data_image0
_chemical_formula_structural       Ni2O4V2
_chemical_formula_sum              "Ni2 O4 V2"
_cell_length_a       3.0879
_cell_length_b       3.99498
_cell_length_c       6.81938
_cell_angle_alpha    90
_cell_angle_beta     78.9479
_cell_angle_gamma    90

_space_group_name_H-M_alt    "P 1"
_space_group_IT_number       1

loop_
  _space_group_symop_operation_xyz
  'x, y, z'

loop_
  _atom_site_type_symbol
  _atom_site_label
  _atom_site_symmetry_multiplicity
  _atom_site_fract_x
  _atom_site_fract_y
  _atom_site_fract_z
  _atom_site_occupancy
  Ni  Ni1       1.0  0.79400  0.25000  0.25200  1.0000
  Ni  Ni2       1.0  0.20300  0.75000  0.99800  1.0000
  O   O1        1.0  0.86500  0.75000  0.29100  1.0000
  O   O2        1.0  0.29900  0.25000  0.54800  1.0000
  O   O3        1.0  0.70300  0.75000  0.70200  1.0000
  O   O4        1.0  0.13500  0.25000  0.95900  1.0000
  V   V1        1.0  0.29200  0.75000  0.48500  1.0000
  V   V2        1.0  0.70900  0.25000  0.76500  1.0000
