data_image0
_chemical_formula_structural       O4Se4Sr8
_chemical_formula_sum              "O4 Se4 Sr8"
_cell_length_a       6.50095
_cell_length_b       4.19222
_cell_length_c       15.9265
_cell_angle_alpha    90
_cell_angle_beta     90
_cell_angle_gamma    90

_space_group_name_H-M_alt    "P 1"
_space_group_IT_number       1

loop_
  _space_group_symop_operation_xyz
  'x, y, z'

loop_
  _atom_site_type_symbol
  _atom_site_label
  _atom_site_symmetry_multiplicity
  _atom_site_fract_x
  _atom_site_fract_y
  _atom_site_fract_z
  _atom_site_occupancy
  O   O1        1.0  0.28600  0.25000  0.17100  1.0000
  O   O2        1.0  0.78600  0.25000  0.32900  1.0000
  O   O3        1.0  0.21400  0.75000  0.67100  1.0000
  O   O4        1.0  0.71400  0.75000  0.82900  1.0000
  Se  Se1       1.0  0.75500  0.75000  0.06870  1.0000
  Se  Se2       1.0  0.25500  0.75000  0.43100  1.0000
  Se  Se3       1.0  0.74500  0.25000  0.56900  1.0000
  Se  Se4       1.0  0.24500  0.25000  0.93100  1.0000
  Sr  Sr1       1.0  0.23500  0.75000  0.08230  1.0000
  Sr  Sr2       1.0  0.64700  0.25000  0.19100  1.0000
  Sr  Sr3       1.0  0.14700  0.25000  0.30900  1.0000
  Sr  Sr4       1.0  0.73500  0.75000  0.41800  1.0000
  Sr  Sr5       1.0  0.26500  0.25000  0.58200  1.0000
  Sr  Sr6       1.0  0.85300  0.75000  0.69100  1.0000
  Sr  Sr7       1.0  0.35300  0.75000  0.80900  1.0000
  Sr  Sr8       1.0  0.76500  0.25000  0.91800  1.0000
