data_image0
_chemical_formula_structural       Ba8O4Se4
_chemical_formula_sum              "Ba8 O4 Se4"
_cell_length_a       6.89208
_cell_length_b       4.46181
_cell_length_c       17.029
_cell_angle_alpha    90
_cell_angle_beta     90
_cell_angle_gamma    90

_space_group_name_H-M_alt    "P 1"
_space_group_IT_number       1

loop_
  _space_group_symop_operation_xyz
  'x, y, z'

loop_
  _atom_site_type_symbol
  _atom_site_label
  _atom_site_symmetry_multiplicity
  _atom_site_fract_x
  _atom_site_fract_y
  _atom_site_fract_z
  _atom_site_occupancy
  Ba  Ba1       1.0  0.23200  0.75000  0.08150  1.0000
  Ba  Ba2       1.0  0.65100  0.25000  0.19000  1.0000
  Ba  Ba3       1.0  0.15100  0.25000  0.31000  1.0000
  Ba  Ba4       1.0  0.73200  0.75000  0.41900  1.0000
  Ba  Ba5       1.0  0.26800  0.25000  0.58100  1.0000
  Ba  Ba6       1.0  0.84900  0.75000  0.69000  1.0000
  Ba  Ba7       1.0  0.34900  0.75000  0.81000  1.0000
  Ba  Ba8       1.0  0.76800  0.25000  0.91900  1.0000
  O   O1        1.0  0.28800  0.25000  0.17100  1.0000
  O   O2        1.0  0.78800  0.25000  0.32900  1.0000
  O   O3        1.0  0.21200  0.75000  0.67100  1.0000
  O   O4        1.0  0.71200  0.75000  0.82900  1.0000
  Se  Se1       1.0  0.75300  0.75000  0.06790  1.0000
  Se  Se2       1.0  0.25300  0.75000  0.43200  1.0000
  Se  Se3       1.0  0.74700  0.25000  0.56800  1.0000
  Se  Se4       1.0  0.24700  0.25000  0.93200  1.0000
