data_image0
_chemical_formula_structural       Hg8O4Se4
_chemical_formula_sum              "Hg8 O4 Se4"
_cell_length_a       6.15
_cell_length_b       3.89521
_cell_length_c       14.6338
_cell_angle_alpha    90
_cell_angle_beta     90
_cell_angle_gamma    90

_space_group_name_H-M_alt    "P 1"
_space_group_IT_number       1

loop_
  _space_group_symop_operation_xyz
  'x, y, z'

loop_
  _atom_site_type_symbol
  _atom_site_label
  _atom_site_symmetry_multiplicity
  _atom_site_fract_x
  _atom_site_fract_y
  _atom_site_fract_z
  _atom_site_occupancy
  Hg  Hg1       1.0  0.18700  0.75000  0.09770  1.0000
  Hg  Hg2       1.0  0.68200  0.25000  0.18300  1.0000
  Hg  Hg3       1.0  0.18200  0.25000  0.31700  1.0000
  Hg  Hg4       1.0  0.68700  0.75000  0.40200  1.0000
  Hg  Hg5       1.0  0.31300  0.25000  0.59800  1.0000
  Hg  Hg6       1.0  0.81800  0.75000  0.68300  1.0000
  Hg  Hg7       1.0  0.31800  0.75000  0.81700  1.0000
  Hg  Hg8       1.0  0.81300  0.25000  0.90200  1.0000
  O   O1        1.0  0.29100  0.25000  0.17400  1.0000
  O   O2        1.0  0.79100  0.25000  0.32600  1.0000
  O   O3        1.0  0.20900  0.75000  0.67400  1.0000
  O   O4        1.0  0.70900  0.75000  0.82600  1.0000
  Se  Se1       1.0  0.75700  0.75000  0.06130  1.0000
  Se  Se2       1.0  0.25700  0.75000  0.43900  1.0000
  Se  Se3       1.0  0.74300  0.25000  0.56100  1.0000
  Se  Se4       1.0  0.24300  0.25000  0.93900  1.0000
