data_image0
_chemical_formula_structural       O4Se4Sn8
_chemical_formula_sum              "O4 Se4 Sn8"
_cell_length_a       6.25402
_cell_length_b       3.81543
_cell_length_c       16.4425
_cell_angle_alpha    90
_cell_angle_beta     90
_cell_angle_gamma    90

_space_group_name_H-M_alt    "P 1"
_space_group_IT_number       1

loop_
  _space_group_symop_operation_xyz
  'x, y, z'

loop_
  _atom_site_type_symbol
  _atom_site_label
  _atom_site_symmetry_multiplicity
  _atom_site_fract_x
  _atom_site_fract_y
  _atom_site_fract_z
  _atom_site_occupancy
  O   O1        1.0  0.34900  0.25000  0.11600  1.0000
  O   O2        1.0  0.84900  0.25000  0.38400  1.0000
  O   O3        1.0  0.15100  0.75000  0.61600  1.0000
  O   O4        1.0  0.65100  0.75000  0.88400  1.0000
  Se  Se1       1.0  0.82800  0.75000  0.11400  1.0000
  Se  Se2       1.0  0.32800  0.75000  0.38600  1.0000
  Se  Se3       1.0  0.67200  0.25000  0.61400  1.0000
  Se  Se4       1.0  0.17200  0.25000  0.88600  1.0000
  Sn  Sn1       1.0  0.26100  0.75000  0.05400  1.0000
  Sn  Sn2       1.0  0.60700  0.25000  0.20100  1.0000
  Sn  Sn3       1.0  0.10700  0.25000  0.29900  1.0000
  Sn  Sn4       1.0  0.76100  0.75000  0.44600  1.0000
  Sn  Sn5       1.0  0.23900  0.25000  0.55400  1.0000
  Sn  Sn6       1.0  0.89300  0.75000  0.70100  1.0000
  Sn  Sn7       1.0  0.39300  0.75000  0.79900  1.0000
  Sn  Sn8       1.0  0.73900  0.25000  0.94600  1.0000
