data_image0
_chemical_formula_structural       Mn8O4Se4
_chemical_formula_sum              "Mn8 O4 Se4"
_cell_length_a       6.09563
_cell_length_b       3.61923
_cell_length_c       12.3597
_cell_angle_alpha    90
_cell_angle_beta     90
_cell_angle_gamma    90

_space_group_name_H-M_alt    "P 1"
_space_group_IT_number       1

loop_
  _space_group_symop_operation_xyz
  'x, y, z'

loop_
  _atom_site_type_symbol
  _atom_site_label
  _atom_site_symmetry_multiplicity
  _atom_site_fract_x
  _atom_site_fract_y
  _atom_site_fract_z
  _atom_site_occupancy
  Mn  Mn1       1.0  0.24300  0.75000  0.05290  1.0000
  Mn  Mn2       1.0  0.51400  0.25000  0.24800  1.0000
  Mn  Mn3       1.0  0.01390  0.25000  0.25200  1.0000
  Mn  Mn4       1.0  0.74300  0.75000  0.44700  1.0000
  Mn  Mn5       1.0  0.25700  0.25000  0.55300  1.0000
  Mn  Mn6       1.0  0.98600  0.75000  0.74800  1.0000
  Mn  Mn7       1.0  0.48600  0.75000  0.75200  1.0000
  Mn  Mn8       1.0  0.75700  0.25000  0.94700  1.0000
  O   O1        1.0  0.26100  0.25000  0.14000  1.0000
  O   O2        1.0  0.76100  0.25000  0.36000  1.0000
  O   O3        1.0  0.23900  0.75000  0.64000  1.0000
  O   O4        1.0  0.73900  0.75000  0.86000  1.0000
  Se  Se1       1.0  0.76500  0.75000  0.11900  1.0000
  Se  Se2       1.0  0.26500  0.75000  0.38100  1.0000
  Se  Se3       1.0  0.73500  0.25000  0.61900  1.0000
  Se  Se4       1.0  0.23500  0.25000  0.88100  1.0000
