data_image0
_chemical_formula_structural       B4Os2
_chemical_formula_sum              "B4 Os2"
_cell_length_a       4.69344
_cell_length_b       2.88381
_cell_length_c       4.08174
_cell_angle_alpha    90
_cell_angle_beta     90
_cell_angle_gamma    90

_space_group_name_H-M_alt    "P 1"
_space_group_IT_number       1

loop_
  _space_group_symop_operation_xyz
  'x, y, z'

loop_
  _atom_site_type_symbol
  _atom_site_label
  _atom_site_symmetry_multiplicity
  _atom_site_fract_x
  _atom_site_fract_y
  _atom_site_fract_z
  _atom_site_occupancy
  B   B1        1.0  0.55600  0.75000  0.36200  1.0000
  B   B2        1.0  0.94400  0.75000  0.36200  1.0000
  B   B3        1.0  0.05550  0.25000  0.63800  1.0000
  B   B4        1.0  0.44400  0.25000  0.63800  1.0000
  Os  Os1       1.0  0.25000  0.25000  0.15400  1.0000
  Os  Os2       1.0  0.75000  0.75000  0.84600  1.0000
