data_image0
_chemical_formula_structural       Ni8O4Se4
_chemical_formula_sum              "Ni8 O4 Se4"
_cell_length_a       5.66389
_cell_length_b       3.45917
_cell_length_c       10.856
_cell_angle_alpha    90
_cell_angle_beta     90
_cell_angle_gamma    90

_space_group_name_H-M_alt    "P 1"
_space_group_IT_number       1

loop_
  _space_group_symop_operation_xyz
  'x, y, z'

loop_
  _atom_site_type_symbol
  _atom_site_label
  _atom_site_symmetry_multiplicity
  _atom_site_fract_x
  _atom_site_fract_y
  _atom_site_fract_z
  _atom_site_occupancy
  Ni  Ni1       1.0  0.30600  0.75000  0.02190  1.0000
  Ni  Ni2       1.0  0.66800  0.25000  0.24900  1.0000
  Ni  Ni3       1.0  0.16800  0.25000  0.25100  1.0000
  Ni  Ni4       1.0  0.80600  0.75000  0.47800  1.0000
  Ni  Ni5       1.0  0.19400  0.25000  0.52200  1.0000
  Ni  Ni6       1.0  0.83200  0.75000  0.74900  1.0000
  Ni  Ni7       1.0  0.33200  0.75000  0.75100  1.0000
  Ni  Ni8       1.0  0.69400  0.25000  0.97800  1.0000
  O   O1        1.0  0.42400  0.25000  0.10600  1.0000
  O   O2        1.0  0.92400  0.25000  0.39400  1.0000
  O   O3        1.0  0.07620  0.75000  0.60600  1.0000
  O   O4        1.0  0.57600  0.75000  0.89400  1.0000
  Se  Se1       1.0  0.91200  0.75000  0.13500  1.0000
  Se  Se2       1.0  0.41200  0.75000  0.36500  1.0000
  Se  Se3       1.0  0.58800  0.25000  0.63500  1.0000
  Se  Se4       1.0  0.08760  0.25000  0.86500  1.0000
