data_image0
_chemical_formula_structural       Mg2Ni2O4
_chemical_formula_sum              "Mg2 Ni2 O4"
_cell_length_a       2.91933
_cell_length_b       3.66761
_cell_length_c       7.49334
_cell_angle_alpha    90
_cell_angle_beta     78.7673
_cell_angle_gamma    90

_space_group_name_H-M_alt    "P 1"
_space_group_IT_number       1

loop_
  _space_group_symop_operation_xyz
  'x, y, z'

loop_
  _atom_site_type_symbol
  _atom_site_label
  _atom_site_symmetry_multiplicity
  _atom_site_fract_x
  _atom_site_fract_y
  _atom_site_fract_z
  _atom_site_occupancy
  Mg  Mg1       1.0  0.32400  0.75000  0.35300  1.0000
  Mg  Mg2       1.0  0.67600  0.25000  0.64700  1.0000
  Ni  Ni1       1.0  0.93600  0.25000  0.12800  1.0000
  Ni  Ni2       1.0  0.06390  0.75000  0.87200  1.0000
  O   O1        1.0  0.93300  0.75000  0.13400  1.0000
  O   O2        1.0  0.81100  0.25000  0.37900  1.0000
  O   O3        1.0  0.18900  0.75000  0.62100  1.0000
  O   O4        1.0  0.06680  0.25000  0.86600  1.0000
