data_image0
_chemical_formula_structural       Cu2Lu2Sn2
_chemical_formula_sum              "Cu2 Lu2 Sn2"
_cell_length_a       4.49
_cell_length_b       4.48994
_cell_length_c       7.11003
_cell_angle_alpha    90
_cell_angle_beta     90
_cell_angle_gamma    120

_space_group_name_H-M_alt    "P 1"
_space_group_IT_number       1

loop_
  _space_group_symop_operation_xyz
  'x, y, z'

loop_
  _atom_site_type_symbol
  _atom_site_label
  _atom_site_symmetry_multiplicity
  _atom_site_fract_x
  _atom_site_fract_y
  _atom_site_fract_z
  _atom_site_occupancy
  Cu  Cu1       1.0  0.33300  0.66700  0.32400  1.0000
  Cu  Cu2       1.0  0.66700  0.33300  0.82400  1.0000
  Lu  Lu1       1.0  0.00001  0.00002  0.00000  1.0000
  Lu  Lu2       1.0  0.00000  0.00000  0.50000  1.0000
  Sn  Sn1       1.0  0.66700  0.33300  0.22900  1.0000
  Sn  Sn2       1.0  0.33300  0.66700  0.72900  1.0000
