data_image0
_chemical_formula_structural       Fe8O4Se4
_chemical_formula_sum              "Fe8 O4 Se4"
_cell_length_a       5.90433
_cell_length_b       3.52505
_cell_length_c       12.0534
_cell_angle_alpha    90
_cell_angle_beta     90
_cell_angle_gamma    90

_space_group_name_H-M_alt    "P 1"
_space_group_IT_number       1

loop_
  _space_group_symop_operation_xyz
  'x, y, z'

loop_
  _atom_site_type_symbol
  _atom_site_label
  _atom_site_symmetry_multiplicity
  _atom_site_fract_x
  _atom_site_fract_y
  _atom_site_fract_z
  _atom_site_occupancy
  Fe  Fe1       1.0  0.23300  0.75000  0.05610  1.0000
  Fe  Fe2       1.0  0.52900  0.25000  0.24400  1.0000
  Fe  Fe3       1.0  0.02900  0.25000  0.25600  1.0000
  Fe  Fe4       1.0  0.73300  0.75000  0.44400  1.0000
  Fe  Fe5       1.0  0.26700  0.25000  0.55600  1.0000
  Fe  Fe6       1.0  0.97100  0.75000  0.74400  1.0000
  Fe  Fe7       1.0  0.47100  0.75000  0.75600  1.0000
  Fe  Fe8       1.0  0.76700  0.25000  0.94400  1.0000
  O   O1        1.0  0.26900  0.25000  0.14100  1.0000
  O   O2        1.0  0.76900  0.25000  0.35900  1.0000
  O   O3        1.0  0.23100  0.75000  0.64100  1.0000
  O   O4        1.0  0.73100  0.75000  0.85900  1.0000
  Se  Se1       1.0  0.77700  0.75000  0.11700  1.0000
  Se  Se2       1.0  0.27700  0.75000  0.38300  1.0000
  Se  Se3       1.0  0.72300  0.25000  0.61700  1.0000
  Se  Se4       1.0  0.22300  0.25000  0.88300  1.0000
