data_image0
_chemical_formula_structural       CeInPt4
_chemical_formula_sum              "Ce1 In1 Pt4"
_cell_length_a       5.46018
_cell_length_b       5.46018
_cell_length_c       5.46018
_cell_angle_alpha    120
_cell_angle_beta     90
_cell_angle_gamma    120

_space_group_name_H-M_alt    "P 1"
_space_group_IT_number       1

loop_
  _space_group_symop_operation_xyz
  'x, y, z'

loop_
  _atom_site_type_symbol
  _atom_site_label
  _atom_site_symmetry_multiplicity
  _atom_site_fract_x
  _atom_site_fract_y
  _atom_site_fract_z
  _atom_site_occupancy
  Ce  Ce1       1.0  0.00000  0.00000  0.00000  1.0000
  In  In1       1.0  0.75000  0.50000  0.25000  1.0000
  Pt  Pt1       1.0  0.37600  0.75100  0.12700  1.0000
  Pt  Pt2       1.0  0.37600  0.75100  0.62400  1.0000
  Pt  Pt3       1.0  0.37600  0.24900  0.62400  1.0000
  Pt  Pt4       1.0  0.87300  0.24900  0.62400  1.0000
