data_image0
_chemical_formula_structural       Cu4Hg4O4Se4
_chemical_formula_sum              "Cu4 Hg4 O4 Se4"
_cell_length_a       6.89856
_cell_length_b       3.23791
_cell_length_c       12.5926
_cell_angle_alpha    90
_cell_angle_beta     90
_cell_angle_gamma    90

_space_group_name_H-M_alt    "P 1"
_space_group_IT_number       1

loop_
  _space_group_symop_operation_xyz
  'x, y, z'

loop_
  _atom_site_type_symbol
  _atom_site_label
  _atom_site_symmetry_multiplicity
  _atom_site_fract_x
  _atom_site_fract_y
  _atom_site_fract_z
  _atom_site_occupancy
  Cu  Cu1       1.0  0.23000  0.75000  0.04630  1.0000
  Cu  Cu2       1.0  0.73000  0.75000  0.45400  1.0000
  Cu  Cu3       1.0  0.27000  0.25000  0.54600  1.0000
  Cu  Cu4       1.0  0.77000  0.25000  0.95400  1.0000
  Hg  Hg1       1.0  0.52500  0.25000  0.23800  1.0000
  Hg  Hg2       1.0  0.02500  0.25000  0.26200  1.0000
  Hg  Hg3       1.0  0.97500  0.75000  0.73800  1.0000
  Hg  Hg4       1.0  0.47500  0.75000  0.76200  1.0000
  O   O1        1.0  0.26000  0.25000  0.14300  1.0000
  O   O2        1.0  0.76000  0.25000  0.35700  1.0000
  O   O3        1.0  0.24000  0.75000  0.64300  1.0000
  O   O4        1.0  0.74000  0.75000  0.85700  1.0000
  Se  Se1       1.0  0.78600  0.75000  0.09220  1.0000
  Se  Se2       1.0  0.28600  0.75000  0.40800  1.0000
  Se  Se3       1.0  0.71400  0.25000  0.59200  1.0000
  Se  Se4       1.0  0.21400  0.25000  0.90800  1.0000
