data_image0
_chemical_formula_structural       Ag4Cd4O4Se4
_chemical_formula_sum              "Ag4 Cd4 O4 Se4"
_cell_length_a       6.28295
_cell_length_b       3.66484
_cell_length_c       12.7368
_cell_angle_alpha    90
_cell_angle_beta     90
_cell_angle_gamma    90

_space_group_name_H-M_alt    "P 1"
_space_group_IT_number       1

loop_
  _space_group_symop_operation_xyz
  'x, y, z'

loop_
  _atom_site_type_symbol
  _atom_site_label
  _atom_site_symmetry_multiplicity
  _atom_site_fract_x
  _atom_site_fract_y
  _atom_site_fract_z
  _atom_site_occupancy
  Ag  Ag1       1.0  0.56100  0.25000  0.24800  1.0000
  Ag  Ag2       1.0  0.06140  0.25000  0.25200  1.0000
  Ag  Ag3       1.0  0.93900  0.75000  0.74800  1.0000
  Ag  Ag4       1.0  0.43900  0.75000  0.75200  1.0000
  Cd  Cd1       1.0  0.24900  0.75000  0.03950  1.0000
  Cd  Cd2       1.0  0.74900  0.75000  0.46100  1.0000
  Cd  Cd3       1.0  0.25100  0.25000  0.53900  1.0000
  Cd  Cd4       1.0  0.75100  0.25000  0.96100  1.0000
  O   O1        1.0  0.31100  0.25000  0.13300  1.0000
  O   O2        1.0  0.81100  0.25000  0.36700  1.0000
  O   O3        1.0  0.18900  0.75000  0.63300  1.0000
  O   O4        1.0  0.68900  0.75000  0.86700  1.0000
  Se  Se1       1.0  0.81000  0.75000  0.12300  1.0000
  Se  Se2       1.0  0.31000  0.75000  0.37700  1.0000
  Se  Se3       1.0  0.69000  0.25000  0.62300  1.0000
  Se  Se4       1.0  0.19000  0.25000  0.87700  1.0000
