data_image0
_chemical_formula_structural       Ba4O4Se4Zn4
_chemical_formula_sum              "Ba4 O4 Se4 Zn4"
_cell_length_a       6.352
_cell_length_b       4.1807
_cell_length_c       13.6249
_cell_angle_alpha    90
_cell_angle_beta     90
_cell_angle_gamma    90

_space_group_name_H-M_alt    "P 1"
_space_group_IT_number       1

loop_
  _space_group_symop_operation_xyz
  'x, y, z'

loop_
  _atom_site_type_symbol
  _atom_site_label
  _atom_site_symmetry_multiplicity
  _atom_site_fract_x
  _atom_site_fract_y
  _atom_site_fract_z
  _atom_site_occupancy
  Ba  Ba1       1.0  0.25300  0.75000  0.12700  1.0000
  Ba  Ba2       1.0  0.75300  0.75000  0.37300  1.0000
  Ba  Ba3       1.0  0.24700  0.25000  0.62700  1.0000
  Ba  Ba4       1.0  0.74700  0.25000  0.87300  1.0000
  O   O1        1.0  0.41000  0.25000  0.21800  1.0000
  O   O2        1.0  0.91000  0.25000  0.28300  1.0000
  O   O3        1.0  0.08950  0.75000  0.71800  1.0000
  O   O4        1.0  0.59000  0.75000  0.78200  1.0000
  Se  Se1       1.0  0.75500  0.75000  0.07070  1.0000
  Se  Se2       1.0  0.25500  0.75000  0.42900  1.0000
  Se  Se3       1.0  0.74500  0.25000  0.57100  1.0000
  Se  Se4       1.0  0.24500  0.25000  0.92900  1.0000
  Zn  Zn1       1.0  0.70900  0.25000  0.17100  1.0000
  Zn  Zn2       1.0  0.20900  0.25000  0.32900  1.0000
  Zn  Zn3       1.0  0.79100  0.75000  0.67100  1.0000
  Zn  Zn4       1.0  0.29100  0.75000  0.82900  1.0000
