data_image0
_chemical_formula_structural       Ca4Ni4O4Se4
_chemical_formula_sum              "Ca4 Ni4 O4 Se4"
_cell_length_a       5.94678
_cell_length_b       3.83224
_cell_length_c       13.1147
_cell_angle_alpha    90
_cell_angle_beta     90
_cell_angle_gamma    90

_space_group_name_H-M_alt    "P 1"
_space_group_IT_number       1

loop_
  _space_group_symop_operation_xyz
  'x, y, z'

loop_
  _atom_site_type_symbol
  _atom_site_label
  _atom_site_symmetry_multiplicity
  _atom_site_fract_x
  _atom_site_fract_y
  _atom_site_fract_z
  _atom_site_occupancy
  Ca  Ca1       1.0  0.25600  0.75000  0.08350  1.0000
  Ca  Ca2       1.0  0.75600  0.75000  0.41600  1.0000
  Ca  Ca3       1.0  0.24400  0.25000  0.58400  1.0000
  Ca  Ca4       1.0  0.74400  0.25000  0.91600  1.0000
  Ni  Ni1       1.0  0.61300  0.25000  0.20500  1.0000
  Ni  Ni2       1.0  0.11300  0.25000  0.29500  1.0000
  Ni  Ni3       1.0  0.88700  0.75000  0.70500  1.0000
  Ni  Ni4       1.0  0.38700  0.75000  0.79500  1.0000
  O   O1        1.0  0.29400  0.25000  0.17400  1.0000
  O   O2        1.0  0.79400  0.25000  0.32600  1.0000
  O   O3        1.0  0.20600  0.75000  0.67400  1.0000
  O   O4        1.0  0.70600  0.75000  0.82600  1.0000
  Se  Se1       1.0  0.75800  0.75000  0.10000  1.0000
  Se  Se2       1.0  0.25800  0.75000  0.40000  1.0000
  Se  Se3       1.0  0.74200  0.25000  0.60000  1.0000
  Se  Se4       1.0  0.24200  0.25000  0.90000  1.0000
