data_image0
_chemical_formula_structural       Co4Cu4O4Se4
_chemical_formula_sum              "Co4 Cu4 O4 Se4"
_cell_length_a       5.85069
_cell_length_b       3.21721
_cell_length_c       12.2053
_cell_angle_alpha    90
_cell_angle_beta     90
_cell_angle_gamma    90

_space_group_name_H-M_alt    "P 1"
_space_group_IT_number       1

loop_
  _space_group_symop_operation_xyz
  'x, y, z'

loop_
  _atom_site_type_symbol
  _atom_site_label
  _atom_site_symmetry_multiplicity
  _atom_site_fract_x
  _atom_site_fract_y
  _atom_site_fract_z
  _atom_site_occupancy
  Co  Co1       1.0  0.22700  0.75000  0.06540  1.0000
  Co  Co2       1.0  0.72700  0.75000  0.43500  1.0000
  Co  Co3       1.0  0.27300  0.25000  0.56500  1.0000
  Co  Co4       1.0  0.77300  0.25000  0.93500  1.0000
  Cu  Cu1       1.0  0.56300  0.25000  0.23900  1.0000
  Cu  Cu2       1.0  0.06350  0.25000  0.26100  1.0000
  Cu  Cu3       1.0  0.93700  0.75000  0.73900  1.0000
  Cu  Cu4       1.0  0.43700  0.75000  0.76100  1.0000
  O   O1        1.0  0.29600  0.25000  0.15400  1.0000
  O   O2        1.0  0.79600  0.25000  0.34600  1.0000
  O   O3        1.0  0.20400  0.75000  0.65400  1.0000
  O   O4        1.0  0.70400  0.75000  0.84600  1.0000
  Se  Se1       1.0  0.79100  0.75000  0.09650  1.0000
  Se  Se2       1.0  0.29100  0.75000  0.40300  1.0000
  Se  Se3       1.0  0.70900  0.25000  0.59700  1.0000
  Se  Se4       1.0  0.20900  0.25000  0.90300  1.0000
