data_image0
_chemical_formula_structural       Mg8O4Se4
_chemical_formula_sum              "Mg8 O4 Se4"
_cell_length_a       5.7951
_cell_length_b       3.58125
_cell_length_c       12.8557
_cell_angle_alpha    90
_cell_angle_beta     90
_cell_angle_gamma    90

_space_group_name_H-M_alt    "P 1"
_space_group_IT_number       1

loop_
  _space_group_symop_operation_xyz
  'x, y, z'

loop_
  _atom_site_type_symbol
  _atom_site_label
  _atom_site_symmetry_multiplicity
  _atom_site_fract_x
  _atom_site_fract_y
  _atom_site_fract_z
  _atom_site_occupancy
  Mg  Mg1       1.0  0.24000  0.75000  0.08420  1.0000
  Mg  Mg2       1.0  0.60600  0.25000  0.20400  1.0000
  Mg  Mg3       1.0  0.10600  0.25000  0.29600  1.0000
  Mg  Mg4       1.0  0.74000  0.75000  0.41600  1.0000
  Mg  Mg5       1.0  0.26000  0.25000  0.58400  1.0000
  Mg  Mg6       1.0  0.89400  0.75000  0.70400  1.0000
  Mg  Mg7       1.0  0.39400  0.75000  0.79600  1.0000
  Mg  Mg8       1.0  0.76000  0.25000  0.91600  1.0000
  O   O1        1.0  0.28000  0.25000  0.16700  1.0000
  O   O2        1.0  0.78000  0.25000  0.33300  1.0000
  O   O3        1.0  0.22000  0.75000  0.66700  1.0000
  O   O4        1.0  0.72000  0.75000  0.83300  1.0000
  Se  Se1       1.0  0.77100  0.75000  0.08400  1.0000
  Se  Se2       1.0  0.27100  0.75000  0.41600  1.0000
  Se  Se3       1.0  0.72900  0.25000  0.58400  1.0000
  Se  Se4       1.0  0.22900  0.25000  0.91600  1.0000
