data_image0
_chemical_formula_structural       Cu4O4Se4Sr4
_chemical_formula_sum              "Cu4 O4 Se4 Sr4"
_cell_length_a       6.27108
_cell_length_b       4.18712
_cell_length_c       12.4182
_cell_angle_alpha    90
_cell_angle_beta     90
_cell_angle_gamma    90

_space_group_name_H-M_alt    "P 1"
_space_group_IT_number       1

loop_
  _space_group_symop_operation_xyz
  'x, y, z'

loop_
  _atom_site_type_symbol
  _atom_site_label
  _atom_site_symmetry_multiplicity
  _atom_site_fract_x
  _atom_site_fract_y
  _atom_site_fract_z
  _atom_site_occupancy
  Cu  Cu1       1.0  0.66900  0.25000  0.18900  1.0000
  Cu  Cu2       1.0  0.16900  0.25000  0.31100  1.0000
  Cu  Cu3       1.0  0.83100  0.75000  0.68900  1.0000
  Cu  Cu4       1.0  0.33100  0.75000  0.81100  1.0000
  O   O1        1.0  0.36500  0.25000  0.19300  1.0000
  O   O2        1.0  0.86500  0.25000  0.30700  1.0000
  O   O3        1.0  0.13500  0.75000  0.69300  1.0000
  O   O4        1.0  0.63500  0.75000  0.80700  1.0000
  Se  Se1       1.0  0.77100  0.75000  0.09600  1.0000
  Se  Se2       1.0  0.27100  0.75000  0.40400  1.0000
  Se  Se3       1.0  0.72900  0.25000  0.59600  1.0000
  Se  Se4       1.0  0.22900  0.25000  0.90400  1.0000
  Sr  Sr1       1.0  0.27200  0.75000  0.10700  1.0000
  Sr  Sr2       1.0  0.77200  0.75000  0.39300  1.0000
  Sr  Sr3       1.0  0.22800  0.25000  0.60700  1.0000
  Sr  Sr4       1.0  0.72800  0.25000  0.89300  1.0000
