data_image0
_chemical_formula_structural       Co8O4Se4
_chemical_formula_sum              "Co8 O4 Se4"
_cell_length_a       5.75134
_cell_length_b       3.42303
_cell_length_c       12.3616
_cell_angle_alpha    90
_cell_angle_beta     90
_cell_angle_gamma    90

_space_group_name_H-M_alt    "P 1"
_space_group_IT_number       1

loop_
  _space_group_symop_operation_xyz
  'x, y, z'

loop_
  _atom_site_type_symbol
  _atom_site_label
  _atom_site_symmetry_multiplicity
  _atom_site_fract_x
  _atom_site_fract_y
  _atom_site_fract_z
  _atom_site_occupancy
  Co  Co1       1.0  0.22800  0.75000  0.08400  1.0000
  Co  Co2       1.0  0.61900  0.25000  0.19500  1.0000
  Co  Co3       1.0  0.11900  0.25000  0.30500  1.0000
  Co  Co4       1.0  0.72800  0.75000  0.41600  1.0000
  Co  Co5       1.0  0.27200  0.25000  0.58400  1.0000
  Co  Co6       1.0  0.88100  0.75000  0.69500  1.0000
  Co  Co7       1.0  0.38100  0.75000  0.80500  1.0000
  Co  Co8       1.0  0.77200  0.25000  0.91600  1.0000
  O   O1        1.0  0.28500  0.25000  0.17000  1.0000
  O   O2        1.0  0.78500  0.25000  0.33000  1.0000
  O   O3        1.0  0.21500  0.75000  0.67000  1.0000
  O   O4        1.0  0.71500  0.75000  0.83000  1.0000
  Se  Se1       1.0  0.78500  0.75000  0.07820  1.0000
  Se  Se2       1.0  0.28500  0.75000  0.42200  1.0000
  Se  Se3       1.0  0.71500  0.25000  0.57800  1.0000
  Se  Se4       1.0  0.21500  0.25000  0.92200  1.0000
