data_image0
_chemical_formula_structural       Ag4O4Pb4Se4
_chemical_formula_sum              "Ag4 O4 Pb4 Se4"
_cell_length_a       6.45555
_cell_length_b       3.95857
_cell_length_c       13.9444
_cell_angle_alpha    90
_cell_angle_beta     90
_cell_angle_gamma    90

_space_group_name_H-M_alt    "P 1"
_space_group_IT_number       1

loop_
  _space_group_symop_operation_xyz
  'x, y, z'

loop_
  _atom_site_type_symbol
  _atom_site_label
  _atom_site_symmetry_multiplicity
  _atom_site_fract_x
  _atom_site_fract_y
  _atom_site_fract_z
  _atom_site_occupancy
  Ag  Ag1       1.0  0.17500  0.75000  0.09410  1.0000
  Ag  Ag2       1.0  0.67500  0.75000  0.40600  1.0000
  Ag  Ag3       1.0  0.32500  0.25000  0.59400  1.0000
  Ag  Ag4       1.0  0.82500  0.25000  0.90600  1.0000
  O   O1        1.0  0.25500  0.25000  0.18900  1.0000
  O   O2        1.0  0.75500  0.25000  0.31100  1.0000
  O   O3        1.0  0.24500  0.75000  0.68900  1.0000
  O   O4        1.0  0.74500  0.75000  0.81100  1.0000
  Pb  Pb1       1.0  0.60300  0.25000  0.16700  1.0000
  Pb  Pb2       1.0  0.10300  0.25000  0.33300  1.0000
  Pb  Pb3       1.0  0.89700  0.75000  0.66700  1.0000
  Pb  Pb4       1.0  0.39700  0.75000  0.83300  1.0000
  Se  Se1       1.0  0.77400  0.75000  0.04310  1.0000
  Se  Se2       1.0  0.27400  0.75000  0.45700  1.0000
  Se  Se3       1.0  0.72600  0.25000  0.54300  1.0000
  Se  Se4       1.0  0.22600  0.25000  0.95700  1.0000
