data_image0
_chemical_formula_structural       Ag4O4Se4Zn4
_chemical_formula_sum              "Ag4 O4 Se4 Zn4"
_cell_length_a       6.39295
_cell_length_b       3.20951
_cell_length_c       13.0728
_cell_angle_alpha    90
_cell_angle_beta     90
_cell_angle_gamma    90

_space_group_name_H-M_alt    "P 1"
_space_group_IT_number       1

loop_
  _space_group_symop_operation_xyz
  'x, y, z'

loop_
  _atom_site_type_symbol
  _atom_site_label
  _atom_site_symmetry_multiplicity
  _atom_site_fract_x
  _atom_site_fract_y
  _atom_site_fract_z
  _atom_site_occupancy
  Ag  Ag1       1.0  0.55500  0.25000  0.24200  1.0000
  Ag  Ag2       1.0  0.05530  0.25000  0.25800  1.0000
  Ag  Ag3       1.0  0.94500  0.75000  0.74200  1.0000
  Ag  Ag4       1.0  0.44500  0.75000  0.75800  1.0000
  O   O1        1.0  0.29600  0.25000  0.13400  1.0000
  O   O2        1.0  0.79600  0.25000  0.36600  1.0000
  O   O3        1.0  0.20400  0.75000  0.63400  1.0000
  O   O4        1.0  0.70400  0.75000  0.86600  1.0000
  Se  Se1       1.0  0.81000  0.75000  0.10400  1.0000
  Se  Se2       1.0  0.31000  0.75000  0.39600  1.0000
  Se  Se3       1.0  0.69000  0.25000  0.60400  1.0000
  Se  Se4       1.0  0.19000  0.25000  0.89600  1.0000
  Zn  Zn1       1.0  0.22200  0.75000  0.05660  1.0000
  Zn  Zn2       1.0  0.72200  0.75000  0.44300  1.0000
  Zn  Zn3       1.0  0.27800  0.25000  0.55700  1.0000
  Zn  Zn4       1.0  0.77800  0.25000  0.94300  1.0000
