data_image0
_chemical_formula_structural       Ni4O4Se4Sr4
_chemical_formula_sum              "Ni4 O4 Se4 Sr4"
_cell_length_a       6.17098
_cell_length_b       4.023
_cell_length_c       13.433
_cell_angle_alpha    90
_cell_angle_beta     90
_cell_angle_gamma    90

_space_group_name_H-M_alt    "P 1"
_space_group_IT_number       1

loop_
  _space_group_symop_operation_xyz
  'x, y, z'

loop_
  _atom_site_type_symbol
  _atom_site_label
  _atom_site_symmetry_multiplicity
  _atom_site_fract_x
  _atom_site_fract_y
  _atom_site_fract_z
  _atom_site_occupancy
  Ni  Ni1       1.0  0.62300  0.25000  0.20400  1.0000
  Ni  Ni2       1.0  0.12300  0.25000  0.29600  1.0000
  Ni  Ni3       1.0  0.87700  0.75000  0.70400  1.0000
  Ni  Ni4       1.0  0.37700  0.75000  0.79600  1.0000
  O   O1        1.0  0.31000  0.25000  0.18200  1.0000
  O   O2        1.0  0.81000  0.25000  0.31800  1.0000
  O   O3        1.0  0.19000  0.75000  0.68200  1.0000
  O   O4        1.0  0.69000  0.75000  0.81800  1.0000
  Se  Se1       1.0  0.75300  0.75000  0.10400  1.0000
  Se  Se2       1.0  0.25300  0.75000  0.39600  1.0000
  Se  Se3       1.0  0.74700  0.25000  0.60400  1.0000
  Se  Se4       1.0  0.24700  0.25000  0.89600  1.0000
  Sr  Sr1       1.0  0.25500  0.75000  0.08600  1.0000
  Sr  Sr2       1.0  0.75500  0.75000  0.41400  1.0000
  Sr  Sr3       1.0  0.24500  0.25000  0.58600  1.0000
  Sr  Sr4       1.0  0.74500  0.25000  0.91400  1.0000
