data_image0
_chemical_formula_structural       O4Se4Sn4Zn4
_chemical_formula_sum              "O4 Se4 Sn4 Zn4"
_cell_length_a       6.12991
_cell_length_b       3.50482
_cell_length_c       15.8613
_cell_angle_alpha    90
_cell_angle_beta     90
_cell_angle_gamma    90

_space_group_name_H-M_alt    "P 1"
_space_group_IT_number       1

loop_
  _space_group_symop_operation_xyz
  'x, y, z'

loop_
  _atom_site_type_symbol
  _atom_site_label
  _atom_site_symmetry_multiplicity
  _atom_site_fract_x
  _atom_site_fract_y
  _atom_site_fract_z
  _atom_site_occupancy
  O   O1        1.0  0.35100  0.25000  0.11600  1.0000
  O   O2        1.0  0.85100  0.25000  0.38400  1.0000
  O   O3        1.0  0.14900  0.75000  0.61600  1.0000
  O   O4        1.0  0.64900  0.75000  0.88400  1.0000
  Se  Se1       1.0  0.82600  0.75000  0.07530  1.0000
  Se  Se2       1.0  0.32600  0.75000  0.42500  1.0000
  Se  Se3       1.0  0.67400  0.25000  0.57500  1.0000
  Se  Se4       1.0  0.17400  0.25000  0.92500  1.0000
  Sn  Sn1       1.0  0.64500  0.25000  0.18400  1.0000
  Sn  Sn2       1.0  0.14500  0.25000  0.31600  1.0000
  Sn  Sn3       1.0  0.85500  0.75000  0.68400  1.0000
  Sn  Sn4       1.0  0.35500  0.75000  0.81600  1.0000
  Zn  Zn1       1.0  0.22200  0.75000  0.08950  1.0000
  Zn  Zn2       1.0  0.72200  0.75000  0.41100  1.0000
  Zn  Zn3       1.0  0.27800  0.25000  0.58900  1.0000
  Zn  Zn4       1.0  0.77800  0.25000  0.91100  1.0000
