data_image0
_chemical_formula_structural       Ba4Ni4O4Se4
_chemical_formula_sum              "Ba4 Ni4 O4 Se4"
_cell_length_a       6.45442
_cell_length_b       4.20272
_cell_length_c       13.8306
_cell_angle_alpha    90
_cell_angle_beta     90
_cell_angle_gamma    90

_space_group_name_H-M_alt    "P 1"
_space_group_IT_number       1

loop_
  _space_group_symop_operation_xyz
  'x, y, z'

loop_
  _atom_site_type_symbol
  _atom_site_label
  _atom_site_symmetry_multiplicity
  _atom_site_fract_x
  _atom_site_fract_y
  _atom_site_fract_z
  _atom_site_occupancy
  Ba  Ba1       1.0  0.25500  0.75000  0.09700  1.0000
  Ba  Ba2       1.0  0.75500  0.75000  0.40300  1.0000
  Ba  Ba3       1.0  0.24500  0.25000  0.59700  1.0000
  Ba  Ba4       1.0  0.74500  0.25000  0.90300  1.0000
  Ni  Ni1       1.0  0.65500  0.25000  0.19700  1.0000
  Ni  Ni2       1.0  0.15500  0.25000  0.30300  1.0000
  Ni  Ni3       1.0  0.84500  0.75000  0.69700  1.0000
  Ni  Ni4       1.0  0.34500  0.75000  0.80300  1.0000
  O   O1        1.0  0.35000  0.25000  0.19700  1.0000
  O   O2        1.0  0.85000  0.25000  0.30300  1.0000
  O   O3        1.0  0.15000  0.75000  0.69700  1.0000
  O   O4        1.0  0.65000  0.75000  0.80300  1.0000
  Se  Se1       1.0  0.75100  0.75000  0.09910  1.0000
  Se  Se2       1.0  0.25100  0.75000  0.40100  1.0000
  Se  Se3       1.0  0.74900  0.25000  0.59900  1.0000
  Se  Se4       1.0  0.24900  0.25000  0.90100  1.0000
