data_image0
_chemical_formula_structural       Hg4Mg4O4Se4
_chemical_formula_sum              "Hg4 Mg4 O4 Se4"
_cell_length_a       5.68658
_cell_length_b       3.64638
_cell_length_c       14.6111
_cell_angle_alpha    90
_cell_angle_beta     90
_cell_angle_gamma    90

_space_group_name_H-M_alt    "P 1"
_space_group_IT_number       1

loop_
  _space_group_symop_operation_xyz
  'x, y, z'

loop_
  _atom_site_type_symbol
  _atom_site_label
  _atom_site_symmetry_multiplicity
  _atom_site_fract_x
  _atom_site_fract_y
  _atom_site_fract_z
  _atom_site_occupancy
  Hg  Hg1       1.0  0.71900  0.25000  0.19300  1.0000
  Hg  Hg2       1.0  0.21900  0.25000  0.30700  1.0000
  Hg  Hg3       1.0  0.78100  0.75000  0.69300  1.0000
  Hg  Hg4       1.0  0.28100  0.75000  0.80700  1.0000
  Mg  Mg1       1.0  0.23400  0.75000  0.09970  1.0000
  Mg  Mg2       1.0  0.73400  0.75000  0.40000  1.0000
  Mg  Mg3       1.0  0.26600  0.25000  0.60000  1.0000
  Mg  Mg4       1.0  0.76600  0.25000  0.90000  1.0000
  O   O1        1.0  0.24900  0.25000  0.15800  1.0000
  O   O2        1.0  0.74900  0.25000  0.34200  1.0000
  O   O3        1.0  0.25100  0.75000  0.65800  1.0000
  O   O4        1.0  0.75100  0.75000  0.84200  1.0000
  Se  Se1       1.0  0.75100  0.75000  0.06280  1.0000
  Se  Se2       1.0  0.25100  0.75000  0.43700  1.0000
  Se  Se3       1.0  0.74900  0.25000  0.56300  1.0000
  Se  Se4       1.0  0.24900  0.25000  0.93700  1.0000
