data_image0
_chemical_formula_structural       H4Mg2O12Se4
_chemical_formula_sum              "H4 Mg2 O12 Se4"
_cell_length_a       8.96357
_cell_length_b       5.22926
_cell_length_c       5.54589
_cell_angle_alpha    90
_cell_angle_beta     89.5352
_cell_angle_gamma    90

_space_group_name_H-M_alt    "P 1"
_space_group_IT_number       1

loop_
  _space_group_symop_operation_xyz
  'x, y, z'

loop_
  _atom_site_type_symbol
  _atom_site_label
  _atom_site_symmetry_multiplicity
  _atom_site_fract_x
  _atom_site_fract_y
  _atom_site_fract_z
  _atom_site_occupancy
  H   H1        1.0  0.50500  0.95000  0.22800  1.0000
  H   H2        1.0  0.99500  0.45000  0.27200  1.0000
  H   H3        1.0  0.00509  0.55000  0.72800  1.0000
  H   H4        1.0  0.49500  0.05000  0.77200  1.0000
  Mg  Mg1       1.0  0.00000  0.00000  0.00000  1.0000
  Mg  Mg2       1.0  0.50000  0.50000  0.50000  1.0000
  O   O1        1.0  0.22400  0.94300  0.03140  1.0000
  O   O2        1.0  0.47500  0.75400  0.22100  1.0000
  O   O3        1.0  0.94500  0.71200  0.24800  1.0000
  O   O4        1.0  0.55500  0.21200  0.25200  1.0000
  O   O5        1.0  0.02550  0.25400  0.27900  1.0000
  O   O6        1.0  0.27600  0.44300  0.46900  1.0000
  O   O7        1.0  0.72400  0.55700  0.53100  1.0000
  O   O8        1.0  0.97500  0.74600  0.72100  1.0000
  O   O9        1.0  0.44500  0.78800  0.74800  1.0000
  O   O10       1.0  0.05480  0.28800  0.75200  1.0000
  O   O11       1.0  0.52500  0.24600  0.77900  1.0000
  O   O12       1.0  0.77600  0.05660  0.96900  1.0000
  Se  Se1       1.0  0.66400  0.30900  0.00989  1.0000
  Se  Se2       1.0  0.83600  0.80900  0.49000  1.0000
  Se  Se3       1.0  0.16400  0.19100  0.51000  1.0000
  Se  Se4       1.0  0.33600  0.69100  0.99000  1.0000
