data_image0
_chemical_formula_structural       Cd4Hg4O4Se4
_chemical_formula_sum              "Cd4 Hg4 O4 Se4"
_cell_length_a       5.91099
_cell_length_b       3.8837
_cell_length_c       14.4396
_cell_angle_alpha    90
_cell_angle_beta     90
_cell_angle_gamma    90

_space_group_name_H-M_alt    "P 1"
_space_group_IT_number       1

loop_
  _space_group_symop_operation_xyz
  'x, y, z'

loop_
  _atom_site_type_symbol
  _atom_site_label
  _atom_site_symmetry_multiplicity
  _atom_site_fract_x
  _atom_site_fract_y
  _atom_site_fract_z
  _atom_site_occupancy
  Cd  Cd1       1.0  0.21600  0.75000  0.09090  1.0000
  Cd  Cd2       1.0  0.71600  0.75000  0.40900  1.0000
  Cd  Cd3       1.0  0.28400  0.25000  0.59100  1.0000
  Cd  Cd4       1.0  0.78400  0.25000  0.90900  1.0000
  Hg  Hg1       1.0  0.69000  0.25000  0.18700  1.0000
  Hg  Hg2       1.0  0.19000  0.25000  0.31300  1.0000
  Hg  Hg3       1.0  0.81000  0.75000  0.68700  1.0000
  Hg  Hg4       1.0  0.31000  0.75000  0.81300  1.0000
  O   O1        1.0  0.27700  0.25000  0.16700  1.0000
  O   O2        1.0  0.77700  0.25000  0.33300  1.0000
  O   O3        1.0  0.22300  0.75000  0.66700  1.0000
  O   O4        1.0  0.72300  0.75000  0.83300  1.0000
  Se  Se1       1.0  0.75200  0.75000  0.06280  1.0000
  Se  Se2       1.0  0.25200  0.75000  0.43700  1.0000
  Se  Se3       1.0  0.74800  0.25000  0.56300  1.0000
  Se  Se4       1.0  0.24800  0.25000  0.93700  1.0000
