data_image0
_chemical_formula_structural       Mn4O4Se4Sn4
_chemical_formula_sum              "Mn4 O4 Se4 Sn4"
_cell_length_a       6.13529
_cell_length_b       3.68196
_cell_length_c       15.0723
_cell_angle_alpha    90
_cell_angle_beta     90
_cell_angle_gamma    90

_space_group_name_H-M_alt    "P 1"
_space_group_IT_number       1

loop_
  _space_group_symop_operation_xyz
  'x, y, z'

loop_
  _atom_site_type_symbol
  _atom_site_label
  _atom_site_symmetry_multiplicity
  _atom_site_fract_x
  _atom_site_fract_y
  _atom_site_fract_z
  _atom_site_occupancy
  Mn  Mn1       1.0  0.30600  0.75000  0.03020  1.0000
  Mn  Mn2       1.0  0.80600  0.75000  0.47000  1.0000
  Mn  Mn3       1.0  0.19400  0.25000  0.53000  1.0000
  Mn  Mn4       1.0  0.69400  0.25000  0.97000  1.0000
  O   O1        1.0  0.44500  0.25000  0.07460  1.0000
  O   O2        1.0  0.94500  0.25000  0.42500  1.0000
  O   O3        1.0  0.05520  0.75000  0.57500  1.0000
  O   O4        1.0  0.55500  0.75000  0.92500  1.0000
  Se  Se1       1.0  0.90600  0.75000  0.10200  1.0000
  Se  Se2       1.0  0.40600  0.75000  0.39800  1.0000
  Se  Se3       1.0  0.59400  0.25000  0.60200  1.0000
  Se  Se4       1.0  0.09380  0.25000  0.89800  1.0000
  Sn  Sn1       1.0  0.65300  0.25000  0.18700  1.0000
  Sn  Sn2       1.0  0.15300  0.25000  0.31300  1.0000
  Sn  Sn3       1.0  0.84700  0.75000  0.68700  1.0000
  Sn  Sn4       1.0  0.34700  0.75000  0.81300  1.0000
