data_image0
_chemical_formula_structural       Cd4Fe4O4Se4
_chemical_formula_sum              "Cd4 Fe4 O4 Se4"
_cell_length_a       5.99711
_cell_length_b       3.73417
_cell_length_c       12.3814
_cell_angle_alpha    90
_cell_angle_beta     90
_cell_angle_gamma    90

_space_group_name_H-M_alt    "P 1"
_space_group_IT_number       1

loop_
  _space_group_symop_operation_xyz
  'x, y, z'

loop_
  _atom_site_type_symbol
  _atom_site_label
  _atom_site_symmetry_multiplicity
  _atom_site_fract_x
  _atom_site_fract_y
  _atom_site_fract_z
  _atom_site_occupancy
  Cd  Cd1       1.0  0.24700  0.75000  0.04610  1.0000
  Cd  Cd2       1.0  0.74700  0.75000  0.45400  1.0000
  Cd  Cd3       1.0  0.25300  0.25000  0.54600  1.0000
  Cd  Cd4       1.0  0.75300  0.25000  0.95400  1.0000
  Fe  Fe1       1.0  0.53700  0.25000  0.24500  1.0000
  Fe  Fe2       1.0  0.03740  0.25000  0.25500  1.0000
  Fe  Fe3       1.0  0.96300  0.75000  0.74500  1.0000
  Fe  Fe4       1.0  0.46300  0.75000  0.75500  1.0000
  O   O1        1.0  0.28000  0.25000  0.15000  1.0000
  O   O2        1.0  0.78000  0.25000  0.35000  1.0000
  O   O3        1.0  0.22000  0.75000  0.65000  1.0000
  O   O4        1.0  0.72000  0.75000  0.85000  1.0000
  Se  Se1       1.0  0.77700  0.75000  0.12200  1.0000
  Se  Se2       1.0  0.27700  0.75000  0.37800  1.0000
  Se  Se3       1.0  0.72300  0.25000  0.62200  1.0000
  Se  Se4       1.0  0.22300  0.25000  0.87800  1.0000
