data_image0
_chemical_formula_structural       Fe4Mg4O4Se4
_chemical_formula_sum              "Fe4 Mg4 O4 Se4"
_cell_length_a       5.89978
_cell_length_b       3.51079
_cell_length_c       12.1773
_cell_angle_alpha    90
_cell_angle_beta     90
_cell_angle_gamma    90

_space_group_name_H-M_alt    "P 1"
_space_group_IT_number       1

loop_
  _space_group_symop_operation_xyz
  'x, y, z'

loop_
  _atom_site_type_symbol
  _atom_site_label
  _atom_site_symmetry_multiplicity
  _atom_site_fract_x
  _atom_site_fract_y
  _atom_site_fract_z
  _atom_site_occupancy
  Fe  Fe1       1.0  0.52300  0.25000  0.24500  1.0000
  Fe  Fe2       1.0  0.02330  0.25000  0.25500  1.0000
  Fe  Fe3       1.0  0.97700  0.75000  0.74500  1.0000
  Fe  Fe4       1.0  0.47700  0.75000  0.75500  1.0000
  Mg  Mg1       1.0  0.24400  0.75000  0.06090  1.0000
  Mg  Mg2       1.0  0.74400  0.75000  0.43900  1.0000
  Mg  Mg3       1.0  0.25600  0.25000  0.56100  1.0000
  Mg  Mg4       1.0  0.75600  0.25000  0.93900  1.0000
  O   O1        1.0  0.26600  0.25000  0.14300  1.0000
  O   O2        1.0  0.76600  0.25000  0.35700  1.0000
  O   O3        1.0  0.23400  0.75000  0.64300  1.0000
  O   O4        1.0  0.73400  0.75000  0.85700  1.0000
  Se  Se1       1.0  0.76700  0.75000  0.11600  1.0000
  Se  Se2       1.0  0.26700  0.75000  0.38400  1.0000
  Se  Se3       1.0  0.73300  0.25000  0.61600  1.0000
  Se  Se4       1.0  0.23300  0.25000  0.88400  1.0000
