data_image0
_chemical_formula_structural       Ag4O4Se4Sr4
_chemical_formula_sum              "Ag4 O4 Se4 Sr4"
_cell_length_a       6.41117
_cell_length_b       4.24352
_cell_length_c       13.6543
_cell_angle_alpha    90
_cell_angle_beta     90
_cell_angle_gamma    90

_space_group_name_H-M_alt    "P 1"
_space_group_IT_number       1

loop_
  _space_group_symop_operation_xyz
  'x, y, z'

loop_
  _atom_site_type_symbol
  _atom_site_label
  _atom_site_symmetry_multiplicity
  _atom_site_fract_x
  _atom_site_fract_y
  _atom_site_fract_z
  _atom_site_occupancy
  Ag  Ag1       1.0  0.63700  0.25000  0.20100  1.0000
  Ag  Ag2       1.0  0.13700  0.25000  0.29900  1.0000
  Ag  Ag3       1.0  0.86300  0.75000  0.70100  1.0000
  Ag  Ag4       1.0  0.36300  0.75000  0.79900  1.0000
  O   O1        1.0  0.30700  0.25000  0.16300  1.0000
  O   O2        1.0  0.80700  0.25000  0.33700  1.0000
  O   O3        1.0  0.19300  0.75000  0.66300  1.0000
  O   O4        1.0  0.69300  0.75000  0.83700  1.0000
  Se  Se1       1.0  0.76200  0.75000  0.09690  1.0000
  Se  Se2       1.0  0.26200  0.75000  0.40300  1.0000
  Se  Se3       1.0  0.73800  0.25000  0.59700  1.0000
  Se  Se4       1.0  0.23800  0.25000  0.90300  1.0000
  Sr  Sr1       1.0  0.26000  0.75000  0.08680  1.0000
  Sr  Sr2       1.0  0.76000  0.75000  0.41300  1.0000
  Sr  Sr3       1.0  0.24000  0.25000  0.58700  1.0000
  Sr  Sr4       1.0  0.74000  0.25000  0.91300  1.0000
