data_image0
_chemical_formula_structural       Ca2Fe2O2Se2
_chemical_formula_sum              "Ca2 Fe2 O2 Se2"
_cell_length_a       3.89216
_cell_length_b       5.93609
_cell_length_c       6.55524
_cell_angle_alpha    90
_cell_angle_beta     72.7301
_cell_angle_gamma    90

_space_group_name_H-M_alt    "P 1"
_space_group_IT_number       1

loop_
  _space_group_symop_operation_xyz
  'x, y, z'

loop_
  _atom_site_type_symbol
  _atom_site_label
  _atom_site_symmetry_multiplicity
  _atom_site_fract_x
  _atom_site_fract_y
  _atom_site_fract_z
  _atom_site_occupancy
  Ca  Ca1       1.0  0.39100  0.75000  0.21700  1.0000
  Ca  Ca2       1.0  0.60900  0.25000  0.78300  1.0000
  Fe  Fe1       1.0  0.90100  0.25000  0.19800  1.0000
  Fe  Fe2       1.0  0.09910  0.75000  0.80200  1.0000
  O   O1        1.0  0.00000  0.00000  0.00000  1.0000
  O   O2        1.0  0.00000  0.50000  0.00000  1.0000
  Se  Se1       1.0  0.28200  0.25000  0.43500  1.0000
  Se  Se2       1.0  0.71800  0.75000  0.56500  1.0000
