data_image0
_chemical_formula_structural       Cu4Fe4O4Se4
_chemical_formula_sum              "Cu4 Fe4 O4 Se4"
_cell_length_a       6.16588
_cell_length_b       3.21384
_cell_length_c       11.8009
_cell_angle_alpha    90
_cell_angle_beta     90
_cell_angle_gamma    90

_space_group_name_H-M_alt    "P 1"
_space_group_IT_number       1

loop_
  _space_group_symop_operation_xyz
  'x, y, z'

loop_
  _atom_site_type_symbol
  _atom_site_label
  _atom_site_symmetry_multiplicity
  _atom_site_fract_x
  _atom_site_fract_y
  _atom_site_fract_z
  _atom_site_occupancy
  Cu  Cu1       1.0  0.25300  0.75000  0.04480  1.0000
  Cu  Cu2       1.0  0.75300  0.75000  0.45500  1.0000
  Cu  Cu3       1.0  0.24700  0.25000  0.54500  1.0000
  Cu  Cu4       1.0  0.74700  0.25000  0.95500  1.0000
  Fe  Fe1       1.0  0.52700  0.25000  0.24800  1.0000
  Fe  Fe2       1.0  0.02690  0.25000  0.25200  1.0000
  Fe  Fe3       1.0  0.97300  0.75000  0.74800  1.0000
  Fe  Fe4       1.0  0.47300  0.75000  0.75200  1.0000
  O   O1        1.0  0.27500  0.25000  0.15000  1.0000
  O   O2        1.0  0.77400  0.25000  0.35000  1.0000
  O   O3        1.0  0.22600  0.75000  0.65000  1.0000
  O   O4        1.0  0.72600  0.75000  0.85000  1.0000
  Se  Se1       1.0  0.77500  0.75000  0.10800  1.0000
  Se  Se2       1.0  0.27500  0.75000  0.39200  1.0000
  Se  Se3       1.0  0.72500  0.25000  0.60800  1.0000
  Se  Se4       1.0  0.22500  0.25000  0.89200  1.0000
