data_image0
_chemical_formula_structural       Ag4Cu4O4Se4
_chemical_formula_sum              "Ag4 Cu4 O4 Se4"
_cell_length_a       6.47259
_cell_length_b       3.17945
_cell_length_c       12.1911
_cell_angle_alpha    90
_cell_angle_beta     90
_cell_angle_gamma    90

_space_group_name_H-M_alt    "P 1"
_space_group_IT_number       1

loop_
  _space_group_symop_operation_xyz
  'x, y, z'

loop_
  _atom_site_type_symbol
  _atom_site_label
  _atom_site_symmetry_multiplicity
  _atom_site_fract_x
  _atom_site_fract_y
  _atom_site_fract_z
  _atom_site_occupancy
  Ag  Ag1       1.0  0.54000  0.25000  0.24800  1.0000
  Ag  Ag2       1.0  0.04030  0.25000  0.25200  1.0000
  Ag  Ag3       1.0  0.96000  0.75000  0.74800  1.0000
  Ag  Ag4       1.0  0.46000  0.75000  0.75200  1.0000
  Cu  Cu1       1.0  0.25700  0.75000  0.03890  1.0000
  Cu  Cu2       1.0  0.75700  0.75000  0.46100  1.0000
  Cu  Cu3       1.0  0.24300  0.25000  0.53900  1.0000
  Cu  Cu4       1.0  0.74300  0.25000  0.96100  1.0000
  O   O1        1.0  0.28900  0.25000  0.13200  1.0000
  O   O2        1.0  0.78900  0.25000  0.36800  1.0000
  O   O3        1.0  0.21100  0.75000  0.63200  1.0000
  O   O4        1.0  0.71100  0.75000  0.86800  1.0000
  Se  Se1       1.0  0.79000  0.75000  0.10200  1.0000
  Se  Se2       1.0  0.29000  0.75000  0.39800  1.0000
  Se  Se3       1.0  0.71000  0.25000  0.60200  1.0000
  Se  Se4       1.0  0.21000  0.25000  0.89800  1.0000
