data_image0
_chemical_formula_structural       Ga4Tm2
_chemical_formula_sum              "Ga4 Tm2"
_cell_length_a       4.22258
_cell_length_b       5.72685
_cell_length_c       5.72685
_cell_angle_alpha    90.3337
_cell_angle_beta     111.633
_cell_angle_gamma    111.633

_space_group_name_H-M_alt    "P 1"
_space_group_IT_number       1

loop_
  _space_group_symop_operation_xyz
  'x, y, z'

loop_
  _atom_site_type_symbol
  _atom_site_label
  _atom_site_symmetry_multiplicity
  _atom_site_fract_x
  _atom_site_fract_y
  _atom_site_fract_z
  _atom_site_occupancy
  Ga  Ga1       1.0  0.95000  0.28900  0.11000  1.0000
  Ga  Ga2       1.0  0.45000  0.11000  0.28900  1.0000
  Ga  Ga3       1.0  0.55000  0.89000  0.71100  1.0000
  Ga  Ga4       1.0  0.05030  0.71100  0.89000  1.0000
  Tm  Tm1       1.0  0.75000  0.69100  0.30900  1.0000
  Tm  Tm2       1.0  0.25000  0.30900  0.69100  1.0000
