data_image0
_chemical_formula_structural       Ca4Mg4O4Se4
_chemical_formula_sum              "Ca4 Mg4 O4 Se4"
_cell_length_a       5.94616
_cell_length_b       3.88084
_cell_length_c       13.5827
_cell_angle_alpha    90
_cell_angle_beta     90
_cell_angle_gamma    90

_space_group_name_H-M_alt    "P 1"
_space_group_IT_number       1

loop_
  _space_group_symop_operation_xyz
  'x, y, z'

loop_
  _atom_site_type_symbol
  _atom_site_label
  _atom_site_symmetry_multiplicity
  _atom_site_fract_x
  _atom_site_fract_y
  _atom_site_fract_z
  _atom_site_occupancy
  Ca  Ca1       1.0  0.25000  0.75000  0.08760  1.0000
  Ca  Ca2       1.0  0.75000  0.75000  0.41200  1.0000
  Ca  Ca3       1.0  0.25000  0.25000  0.58800  1.0000
  Ca  Ca4       1.0  0.75000  0.25000  0.91200  1.0000
  Mg  Mg1       1.0  0.62500  0.25000  0.20000  1.0000
  Mg  Mg2       1.0  0.12500  0.25000  0.30000  1.0000
  Mg  Mg3       1.0  0.87500  0.75000  0.70000  1.0000
  Mg  Mg4       1.0  0.37500  0.75000  0.80000  1.0000
  O   O1        1.0  0.29800  0.25000  0.18000  1.0000
  O   O2        1.0  0.79800  0.25000  0.32000  1.0000
  O   O3        1.0  0.20200  0.75000  0.68000  1.0000
  O   O4        1.0  0.70200  0.75000  0.82000  1.0000
  Se  Se1       1.0  0.75600  0.75000  0.08630  1.0000
  Se  Se2       1.0  0.25600  0.75000  0.41400  1.0000
  Se  Se3       1.0  0.74400  0.25000  0.58600  1.0000
  Se  Se4       1.0  0.24400  0.25000  0.91400  1.0000
