data_image0
_chemical_formula_structural       Ba4Cu4O4Se4
_chemical_formula_sum              "Ba4 Cu4 O4 Se4"
_cell_length_a       6.12484
_cell_length_b       3.93444
_cell_length_c       13.4545
_cell_angle_alpha    90
_cell_angle_beta     90
_cell_angle_gamma    90

_space_group_name_H-M_alt    "P 1"
_space_group_IT_number       1

loop_
  _space_group_symop_operation_xyz
  'x, y, z'

loop_
  _atom_site_type_symbol
  _atom_site_label
  _atom_site_symmetry_multiplicity
  _atom_site_fract_x
  _atom_site_fract_y
  _atom_site_fract_z
  _atom_site_occupancy
  Ba  Ba1       1.0  0.26600  0.75000  0.15200  1.0000
  Ba  Ba2       1.0  0.76600  0.75000  0.34800  1.0000
  Ba  Ba3       1.0  0.23400  0.25000  0.65200  1.0000
  Ba  Ba4       1.0  0.73400  0.25000  0.84800  1.0000
  Cu  Cu1       1.0  0.76400  0.25000  0.15400  1.0000
  Cu  Cu2       1.0  0.26400  0.25000  0.34600  1.0000
  Cu  Cu3       1.0  0.73600  0.75000  0.65400  1.0000
  Cu  Cu4       1.0  0.23600  0.75000  0.84600  1.0000
  O   O1        1.0  0.01670  0.25000  0.25000  1.0000
  O   O2        1.0  0.51700  0.25000  0.25000  1.0000
  O   O3        1.0  0.48300  0.75000  0.75000  1.0000
  O   O4        1.0  0.98300  0.75000  0.75000  1.0000
  Se  Se1       1.0  0.76500  0.75000  0.05490  1.0000
  Se  Se2       1.0  0.26500  0.75000  0.44500  1.0000
  Se  Se3       1.0  0.73500  0.25000  0.55500  1.0000
  Se  Se4       1.0  0.23500  0.25000  0.94500  1.0000
