data_image0
_chemical_formula_structural       Cd8O4Se4
_chemical_formula_sum              "Cd8 O4 Se4"
_cell_length_a       6.0523
_cell_length_b       3.83243
_cell_length_c       14.1608
_cell_angle_alpha    90
_cell_angle_beta     90
_cell_angle_gamma    90

_space_group_name_H-M_alt    "P 1"
_space_group_IT_number       1

loop_
  _space_group_symop_operation_xyz
  'x, y, z'

loop_
  _atom_site_type_symbol
  _atom_site_label
  _atom_site_symmetry_multiplicity
  _atom_site_fract_x
  _atom_site_fract_y
  _atom_site_fract_z
  _atom_site_occupancy
  Cd  Cd1       1.0  0.21300  0.75000  0.08620  1.0000
  Cd  Cd2       1.0  0.64200  0.25000  0.18900  1.0000
  Cd  Cd3       1.0  0.14200  0.25000  0.31100  1.0000
  Cd  Cd4       1.0  0.71300  0.75000  0.41400  1.0000
  Cd  Cd5       1.0  0.28700  0.25000  0.58600  1.0000
  Cd  Cd6       1.0  0.85800  0.75000  0.68900  1.0000
  Cd  Cd7       1.0  0.35800  0.75000  0.81100  1.0000
  Cd  Cd8       1.0  0.78700  0.25000  0.91400  1.0000
  O   O1        1.0  0.27800  0.25000  0.17000  1.0000
  O   O2        1.0  0.77800  0.25000  0.33000  1.0000
  O   O3        1.0  0.22200  0.75000  0.67000  1.0000
  O   O4        1.0  0.72200  0.75000  0.83000  1.0000
  Se  Se1       1.0  0.76200  0.75000  0.06880  1.0000
  Se  Se2       1.0  0.26200  0.75000  0.43100  1.0000
  Se  Se3       1.0  0.73800  0.25000  0.56900  1.0000
  Se  Se4       1.0  0.23800  0.25000  0.93100  1.0000
