data_image0
_chemical_formula_structural       Ag4Ba4O4Se4
_chemical_formula_sum              "Ag4 Ba4 O4 Se4"
_cell_length_a       6.74862
_cell_length_b       4.56285
_cell_length_c       13.2207
_cell_angle_alpha    90
_cell_angle_beta     90
_cell_angle_gamma    90

_space_group_name_H-M_alt    "P 1"
_space_group_IT_number       1

loop_
  _space_group_symop_operation_xyz
  'x, y, z'

loop_
  _atom_site_type_symbol
  _atom_site_label
  _atom_site_symmetry_multiplicity
  _atom_site_fract_x
  _atom_site_fract_y
  _atom_site_fract_z
  _atom_site_occupancy
  Ag  Ag1       1.0  0.64900  0.25000  0.19600  1.0000
  Ag  Ag2       1.0  0.14900  0.25000  0.30400  1.0000
  Ag  Ag3       1.0  0.85100  0.75000  0.69600  1.0000
  Ag  Ag4       1.0  0.35100  0.75000  0.80400  1.0000
  Ba  Ba1       1.0  0.25900  0.75000  0.09410  1.0000
  Ba  Ba2       1.0  0.75900  0.75000  0.40600  1.0000
  Ba  Ba3       1.0  0.24100  0.25000  0.59400  1.0000
  Ba  Ba4       1.0  0.74100  0.25000  0.90600  1.0000
  O   O1        1.0  0.33300  0.25000  0.17000  1.0000
  O   O2        1.0  0.83300  0.25000  0.33000  1.0000
  O   O3        1.0  0.16700  0.75000  0.67000  1.0000
  O   O4        1.0  0.66700  0.75000  0.83000  1.0000
  Se  Se1       1.0  0.75700  0.75000  0.11000  1.0000
  Se  Se2       1.0  0.25700  0.75000  0.39000  1.0000
  Se  Se3       1.0  0.74300  0.25000  0.61000  1.0000
  Se  Se4       1.0  0.24300  0.25000  0.89000  1.0000
