data_image0
_chemical_formula_structural       La8Mg8Rh8
_chemical_formula_sum              "La8 Mg8 Rh8"
_cell_length_a       7.59389
_cell_length_b       4.20543
_cell_length_c       17.0062
_cell_angle_alpha    90
_cell_angle_beta     90
_cell_angle_gamma    90

_space_group_name_H-M_alt    "P 1"
_space_group_IT_number       1

loop_
  _space_group_symop_operation_xyz
  'x, y, z'

loop_
  _atom_site_type_symbol
  _atom_site_label
  _atom_site_symmetry_multiplicity
  _atom_site_fract_x
  _atom_site_fract_y
  _atom_site_fract_z
  _atom_site_occupancy
  La  La1       1.0  0.16300  0.25000  0.06170  1.0000
  La  La2       1.0  0.54400  0.25000  0.21800  1.0000
  La  La3       1.0  0.04420  0.25000  0.28200  1.0000
  La  La4       1.0  0.66300  0.25000  0.43800  1.0000
  La  La5       1.0  0.33700  0.75000  0.56200  1.0000
  La  La6       1.0  0.95600  0.75000  0.71800  1.0000
  La  La7       1.0  0.45600  0.75000  0.78200  1.0000
  La  La8       1.0  0.83700  0.75000  0.93800  1.0000
  Mg  Mg1       1.0  0.50400  0.75000  0.06310  1.0000
  Mg  Mg2       1.0  0.86600  0.75000  0.14900  1.0000
  Mg  Mg3       1.0  0.36600  0.75000  0.35100  1.0000
  Mg  Mg4       1.0  0.00354  0.75000  0.43700  1.0000
  Mg  Mg5       1.0  0.99600  0.25000  0.56300  1.0000
  Mg  Mg6       1.0  0.63400  0.25000  0.64900  1.0000
  Mg  Mg7       1.0  0.13400  0.25000  0.85100  1.0000
  Mg  Mg8       1.0  0.49600  0.25000  0.93700  1.0000
  Rh  Rh1       1.0  0.74600  0.25000  0.06200  1.0000
  Rh  Rh2       1.0  0.24600  0.75000  0.18700  1.0000
  Rh  Rh3       1.0  0.74600  0.75000  0.31300  1.0000
  Rh  Rh4       1.0  0.24600  0.25000  0.43800  1.0000
  Rh  Rh5       1.0  0.75400  0.75000  0.56200  1.0000
  Rh  Rh6       1.0  0.25400  0.25000  0.68700  1.0000
  Rh  Rh7       1.0  0.75400  0.25000  0.81300  1.0000
  Rh  Rh8       1.0  0.25400  0.75000  0.93800  1.0000
