data_image0
_chemical_formula_structural       Ni4O4Pb4Se4
_chemical_formula_sum              "Ni4 O4 Pb4 Se4"
_cell_length_a       5.95117
_cell_length_b       3.94626
_cell_length_c       13.7144
_cell_angle_alpha    90
_cell_angle_beta     90
_cell_angle_gamma    90

_space_group_name_H-M_alt    "P 1"
_space_group_IT_number       1

loop_
  _space_group_symop_operation_xyz
  'x, y, z'

loop_
  _atom_site_type_symbol
  _atom_site_label
  _atom_site_symmetry_multiplicity
  _atom_site_fract_x
  _atom_site_fract_y
  _atom_site_fract_z
  _atom_site_occupancy
  Ni  Ni1       1.0  0.59900  0.25000  0.22000  1.0000
  Ni  Ni2       1.0  0.09950  0.25000  0.28000  1.0000
  Ni  Ni3       1.0  0.90100  0.75000  0.72000  1.0000
  Ni  Ni4       1.0  0.40100  0.75000  0.78000  1.0000
  O   O1        1.0  0.29600  0.25000  0.16800  1.0000
  O   O2        1.0  0.79600  0.25000  0.33200  1.0000
  O   O3        1.0  0.20400  0.75000  0.66800  1.0000
  O   O4        1.0  0.70400  0.75000  0.83200  1.0000
  Pb  Pb1       1.0  0.25400  0.75000  0.07160  1.0000
  Pb  Pb2       1.0  0.75400  0.75000  0.42800  1.0000
  Pb  Pb3       1.0  0.24600  0.25000  0.57200  1.0000
  Pb  Pb4       1.0  0.74600  0.25000  0.92800  1.0000
  Se  Se1       1.0  0.75900  0.75000  0.12800  1.0000
  Se  Se2       1.0  0.25900  0.75000  0.37200  1.0000
  Se  Se3       1.0  0.74100  0.25000  0.62800  1.0000
  Se  Se4       1.0  0.24100  0.25000  0.87200  1.0000
