data_image0
_chemical_formula_structural       Cd4O4Se4Sn4
_chemical_formula_sum              "Cd4 O4 Se4 Sn4"
_cell_length_a       6.21905
_cell_length_b       3.97391
_cell_length_c       14.6585
_cell_angle_alpha    90
_cell_angle_beta     90
_cell_angle_gamma    90

_space_group_name_H-M_alt    "P 1"
_space_group_IT_number       1

loop_
  _space_group_symop_operation_xyz
  'x, y, z'

loop_
  _atom_site_type_symbol
  _atom_site_label
  _atom_site_symmetry_multiplicity
  _atom_site_fract_x
  _atom_site_fract_y
  _atom_site_fract_z
  _atom_site_occupancy
  Cd  Cd1       1.0  0.63600  0.25000  0.19200  1.0000
  Cd  Cd2       1.0  0.13600  0.25000  0.30800  1.0000
  Cd  Cd3       1.0  0.86400  0.75000  0.69200  1.0000
  Cd  Cd4       1.0  0.36400  0.75000  0.80800  1.0000
  O   O1        1.0  0.27400  0.25000  0.16900  1.0000
  O   O2        1.0  0.77400  0.25000  0.33100  1.0000
  O   O3        1.0  0.22600  0.75000  0.66900  1.0000
  O   O4        1.0  0.72600  0.75000  0.83100  1.0000
  Se  Se1       1.0  0.78500  0.75000  0.09030  1.0000
  Se  Se2       1.0  0.28500  0.75000  0.41000  1.0000
  Se  Se3       1.0  0.71500  0.25000  0.59000  1.0000
  Se  Se4       1.0  0.21500  0.25000  0.91000  1.0000
  Sn  Sn1       1.0  0.23900  0.75000  0.08830  1.0000
  Sn  Sn2       1.0  0.73900  0.75000  0.41200  1.0000
  Sn  Sn3       1.0  0.26100  0.25000  0.58800  1.0000
  Sn  Sn4       1.0  0.76100  0.25000  0.91200  1.0000
