data_image0
_chemical_formula_structural       Ca2O2Pb2Se2
_chemical_formula_sum              "Ca2 O2 Pb2 Se2"
_cell_length_a       3.25081
_cell_length_b       6.04628
_cell_length_c       8.52464
_cell_angle_alpha    90
_cell_angle_beta     79.008
_cell_angle_gamma    90

_space_group_name_H-M_alt    "P 1"
_space_group_IT_number       1

loop_
  _space_group_symop_operation_xyz
  'x, y, z'

loop_
  _atom_site_type_symbol
  _atom_site_label
  _atom_site_symmetry_multiplicity
  _atom_site_fract_x
  _atom_site_fract_y
  _atom_site_fract_z
  _atom_site_occupancy
  Ca  Ca1       1.0  0.45600  0.75000  0.08720  1.0000
  Ca  Ca2       1.0  0.54400  0.25000  0.91300  1.0000
  O   O1        1.0  0.00000  0.00000  0.00000  1.0000
  O   O2        1.0  0.00000  0.50000  0.00000  1.0000
  Pb  Pb1       1.0  0.86000  0.25000  0.28000  1.0000
  Pb  Pb2       1.0  0.14000  0.75000  0.72000  1.0000
  Se  Se1       1.0  0.80500  0.75000  0.39000  1.0000
  Se  Se2       1.0  0.19500  0.25000  0.61000  1.0000
