data_image0
_chemical_formula_structural       Mg2O2Te2Zn2
_chemical_formula_sum              "Mg2 O2 Te2 Zn2"
_cell_length_a       3.66349
_cell_length_b       5.78796
_cell_length_c       6.93972
_cell_angle_alpha    90
_cell_angle_beta     74.6954
_cell_angle_gamma    90

_space_group_name_H-M_alt    "P 1"
_space_group_IT_number       1

loop_
  _space_group_symop_operation_xyz
  'x, y, z'

loop_
  _atom_site_type_symbol
  _atom_site_label
  _atom_site_symmetry_multiplicity
  _atom_site_fract_x
  _atom_site_fract_y
  _atom_site_fract_z
  _atom_site_occupancy
  Mg  Mg1       1.0  0.90200  0.25000  0.19500  1.0000
  Mg  Mg2       1.0  0.09760  0.75000  0.80500  1.0000
  O   O1        1.0  0.00000  0.00000  0.00000  1.0000
  O   O2        1.0  0.00000  0.50000  0.00000  1.0000
  Te  Te1       1.0  0.76700  0.75000  0.46700  1.0000
  Te  Te2       1.0  0.23300  0.25000  0.53300  1.0000
  Zn  Zn1       1.0  0.42800  0.75000  0.14400  1.0000
  Zn  Zn2       1.0  0.57200  0.25000  0.85600  1.0000
