data_image0
_chemical_formula_structural       Fe4O2Te2
_chemical_formula_sum              "Fe4 O2 Te2"
_cell_length_a       3.32372
_cell_length_b       5.37399
_cell_length_c       7.30826
_cell_angle_alpha    90
_cell_angle_beta     76.8563
_cell_angle_gamma    90

_space_group_name_H-M_alt    "P 1"
_space_group_IT_number       1

loop_
  _space_group_symop_operation_xyz
  'x, y, z'

loop_
  _atom_site_type_symbol
  _atom_site_label
  _atom_site_symmetry_multiplicity
  _atom_site_fract_x
  _atom_site_fract_y
  _atom_site_fract_z
  _atom_site_occupancy
  Fe  Fe1       1.0  0.45400  0.75000  0.09200  1.0000
  Fe  Fe2       1.0  0.88000  0.25000  0.24100  1.0000
  Fe  Fe3       1.0  0.12000  0.75000  0.75900  1.0000
  Fe  Fe4       1.0  0.54600  0.25000  0.90800  1.0000
  O   O1        1.0  0.00000  0.00000  0.00000  1.0000
  O   O2        1.0  0.00000  0.50000  0.00000  1.0000
  Te  Te1       1.0  0.78800  0.75000  0.42300  1.0000
  Te  Te2       1.0  0.21200  0.25000  0.57700  1.0000
