data_image0
_chemical_formula_structural       Ba4O2Te2
_chemical_formula_sum              "Ba4 O2 Te2"
_cell_length_a       4.28353
_cell_length_b       6.91307
_cell_length_c       8.55773
_cell_angle_alpha    90
_cell_angle_beta     75.5064
_cell_angle_gamma    90

_space_group_name_H-M_alt    "P 1"
_space_group_IT_number       1

loop_
  _space_group_symop_operation_xyz
  'x, y, z'

loop_
  _atom_site_type_symbol
  _atom_site_label
  _atom_site_symmetry_multiplicity
  _atom_site_fract_x
  _atom_site_fract_y
  _atom_site_fract_z
  _atom_site_occupancy
  Ba  Ba1       1.0  0.44200  0.75000  0.11600  1.0000
  Ba  Ba2       1.0  0.86500  0.25000  0.27100  1.0000
  Ba  Ba3       1.0  0.13500  0.75000  0.72900  1.0000
  Ba  Ba4       1.0  0.55800  0.25000  0.88400  1.0000
  O   O1        1.0  0.00000  0.00000  0.00000  1.0000
  O   O2        1.0  0.00000  0.50000  0.00000  1.0000
  Te  Te1       1.0  0.78600  0.75000  0.42800  1.0000
  Te  Te2       1.0  0.21400  0.25000  0.57200  1.0000
