data_image0
_chemical_formula_structural       Fe2O2Te2Zn2
_chemical_formula_sum              "Fe2 O2 Te2 Zn2"
_cell_length_a       3.68035
_cell_length_b       6.09882
_cell_length_c       6.62459
_cell_angle_alpha    90
_cell_angle_beta     73.8723
_cell_angle_gamma    90

_space_group_name_H-M_alt    "P 1"
_space_group_IT_number       1

loop_
  _space_group_symop_operation_xyz
  'x, y, z'

loop_
  _atom_site_type_symbol
  _atom_site_label
  _atom_site_symmetry_multiplicity
  _atom_site_fract_x
  _atom_site_fract_y
  _atom_site_fract_z
  _atom_site_occupancy
  Fe  Fe1       1.0  0.90600  0.25000  0.18700  1.0000
  Fe  Fe2       1.0  0.09350  0.75000  0.81300  1.0000
  O   O1        1.0  0.00000  0.00000  0.00000  1.0000
  O   O2        1.0  0.00000  0.50000  0.00000  1.0000
  Te  Te1       1.0  0.75500  0.75000  0.48900  1.0000
  Te  Te2       1.0  0.24500  0.25000  0.51100  1.0000
  Zn  Zn1       1.0  0.41900  0.75000  0.16300  1.0000
  Zn  Zn2       1.0  0.58100  0.25000  0.83700  1.0000
