data_image0
_chemical_formula_structural       O2Pb2Se2Sn2
_chemical_formula_sum              "O2 Pb2 Se2 Sn2"
_cell_length_a       4.11001
_cell_length_b       4.11624
_cell_length_c       13.7945
_cell_angle_alpha    90
_cell_angle_beta     90
_cell_angle_gamma    119.95

_space_group_name_H-M_alt    "P 1"
_space_group_IT_number       1

loop_
  _space_group_symop_operation_xyz
  'x, y, z'

loop_
  _atom_site_type_symbol
  _atom_site_label
  _atom_site_symmetry_multiplicity
  _atom_site_fract_x
  _atom_site_fract_y
  _atom_site_fract_z
  _atom_site_occupancy
  O   O1        1.0  0.99900  0.99900  0.33100  1.0000
  O   O2        1.0  0.00062  0.00124  0.83100  1.0000
  Pb  Pb1       1.0  0.33300  0.66700  0.26100  1.0000
  Pb  Pb2       1.0  0.66700  0.33300  0.76100  1.0000
  Se  Se1       1.0  0.66600  0.33200  0.10800  1.0000
  Se  Se2       1.0  0.33400  0.66800  0.60800  1.0000
  Sn  Sn1       1.0  0.00061  0.00123  0.48800  1.0000
  Sn  Sn2       1.0  0.99900  0.99900  0.98800  1.0000
