data_image0
_chemical_formula_structural       Ba2Cd2O2Te2
_chemical_formula_sum              "Ba2 Cd2 O2 Te2"
_cell_length_a       4.41135
_cell_length_b       6.46985
_cell_length_c       7.64786
_cell_angle_alpha    90
_cell_angle_beta     73.2375
_cell_angle_gamma    90

_space_group_name_H-M_alt    "P 1"
_space_group_IT_number       1

loop_
  _space_group_symop_operation_xyz
  'x, y, z'

loop_
  _atom_site_type_symbol
  _atom_site_label
  _atom_site_symmetry_multiplicity
  _atom_site_fract_x
  _atom_site_fract_y
  _atom_site_fract_z
  _atom_site_occupancy
  Ba  Ba1       1.0  0.41300  0.75000  0.17500  1.0000
  Ba  Ba2       1.0  0.58700  0.25000  0.82500  1.0000
  Cd  Cd1       1.0  0.89600  0.25000  0.20700  1.0000
  Cd  Cd2       1.0  0.10400  0.75000  0.79300  1.0000
  O   O1        1.0  0.00000  0.00000  0.00000  1.0000
  O   O2        1.0  0.00000  0.50000  0.00000  1.0000
  Te  Te1       1.0  0.28700  0.25000  0.42600  1.0000
  Te  Te2       1.0  0.71300  0.75000  0.57400  1.0000
