data_image0
_chemical_formula_structural       Ba2In4
_chemical_formula_sum              "Ba2 In4"
_cell_length_a       5.28763
_cell_length_b       6.60257
_cell_length_c       6.60257
_cell_angle_alpha    99.1269
_cell_angle_beta     113.605
_cell_angle_gamma    66.3955

_space_group_name_H-M_alt    "P 1"
_space_group_IT_number       1

loop_
  _space_group_symop_operation_xyz
  'x, y, z'

loop_
  _atom_site_type_symbol
  _atom_site_label
  _atom_site_symmetry_multiplicity
  _atom_site_fract_x
  _atom_site_fract_y
  _atom_site_fract_z
  _atom_site_occupancy
  Ba  Ba1       1.0  0.75000  0.69900  0.19900  1.0000
  Ba  Ba2       1.0  0.25000  0.30100  0.80100  1.0000
  In  In1       1.0  0.06750  0.09460  0.23000  1.0000
  In  In2       1.0  0.56700  0.27000  0.40500  1.0000
  In  In3       1.0  0.43300  0.73000  0.59500  1.0000
  In  In4       1.0  0.93300  0.90500  0.77000  1.0000
