data_image0
_chemical_formula_structural       Ag2Ni2O2Te2
_chemical_formula_sum              "Ag2 Ni2 O2 Te2"
_cell_length_a       3.05668
_cell_length_b       5.70383
_cell_length_c       7.45905
_cell_angle_alpha    90
_cell_angle_beta     78.1765
_cell_angle_gamma    90

_space_group_name_H-M_alt    "P 1"
_space_group_IT_number       1

loop_
  _space_group_symop_operation_xyz
  'x, y, z'

loop_
  _atom_site_type_symbol
  _atom_site_label
  _atom_site_symmetry_multiplicity
  _atom_site_fract_x
  _atom_site_fract_y
  _atom_site_fract_z
  _atom_site_occupancy
  Ag  Ag1       1.0  0.85200  0.25000  0.29600  1.0000
  Ag  Ag2       1.0  0.14800  0.75000  0.70400  1.0000
  Ni  Ni1       1.0  0.48600  0.75000  0.02800  1.0000
  Ni  Ni2       1.0  0.51400  0.25000  0.97200  1.0000
  O   O1        1.0  0.00000  0.00000  0.00000  1.0000
  O   O2        1.0  0.00000  0.50000  0.00000  1.0000
  Te  Te1       1.0  0.81200  0.75000  0.37600  1.0000
  Te  Te2       1.0  0.18800  0.25000  0.62400  1.0000
