data_image0
_chemical_formula_structural       Ni2O2Pb2Te2
_chemical_formula_sum              "Ni2 O2 Pb2 Te2"
_cell_length_a       3.10393
_cell_length_b       6.01318
_cell_length_c       8.20018
_cell_angle_alpha    90
_cell_angle_beta     79.0904
_cell_angle_gamma    90

_space_group_name_H-M_alt    "P 1"
_space_group_IT_number       1

loop_
  _space_group_symop_operation_xyz
  'x, y, z'

loop_
  _atom_site_type_symbol
  _atom_site_label
  _atom_site_symmetry_multiplicity
  _atom_site_fract_x
  _atom_site_fract_y
  _atom_site_fract_z
  _atom_site_occupancy
  Ni  Ni1       1.0  0.46000  0.75000  0.07980  1.0000
  Ni  Ni2       1.0  0.54000  0.25000  0.92000  1.0000
  O   O1        1.0  0.00000  0.00000  0.00000  1.0000
  O   O2        1.0  0.00000  0.50000  0.00000  1.0000
  Pb  Pb1       1.0  0.88400  0.25000  0.23200  1.0000
  Pb  Pb2       1.0  0.11600  0.75000  0.76800  1.0000
  Te  Te1       1.0  0.81400  0.75000  0.37300  1.0000
  Te  Te2       1.0  0.18600  0.25000  0.62700  1.0000
