data_image0
_chemical_formula_structural       Ca4Mn4O4Se4
_chemical_formula_sum              "Ca4 Mn4 O4 Se4"
_cell_length_a       6.04671
_cell_length_b       3.88849
_cell_length_c       13.6509
_cell_angle_alpha    90
_cell_angle_beta     90
_cell_angle_gamma    90

_space_group_name_H-M_alt    "P 1"
_space_group_IT_number       1

loop_
  _space_group_symop_operation_xyz
  'x, y, z'

loop_
  _atom_site_type_symbol
  _atom_site_label
  _atom_site_symmetry_multiplicity
  _atom_site_fract_x
  _atom_site_fract_y
  _atom_site_fract_z
  _atom_site_occupancy
  Ca  Ca1       1.0  0.25000  0.75000  0.08330  1.0000
  Ca  Ca2       1.0  0.75000  0.75000  0.41700  1.0000
  Ca  Ca3       1.0  0.25000  0.25000  0.58300  1.0000
  Ca  Ca4       1.0  0.75000  0.25000  0.91700  1.0000
  Mn  Mn1       1.0  0.62000  0.25000  0.20100  1.0000
  Mn  Mn2       1.0  0.12000  0.25000  0.29900  1.0000
  Mn  Mn3       1.0  0.88000  0.75000  0.70100  1.0000
  Mn  Mn4       1.0  0.38000  0.75000  0.79900  1.0000
  O   O1        1.0  0.28900  0.25000  0.17200  1.0000
  O   O2        1.0  0.78900  0.25000  0.32800  1.0000
  O   O3        1.0  0.21100  0.75000  0.67200  1.0000
  O   O4        1.0  0.71100  0.75000  0.82800  1.0000
  Se  Se1       1.0  0.75900  0.75000  0.08880  1.0000
  Se  Se2       1.0  0.25900  0.75000  0.41100  1.0000
  Se  Se3       1.0  0.74100  0.25000  0.58900  1.0000
  Se  Se4       1.0  0.24100  0.25000  0.91100  1.0000
