data_image0
_chemical_formula_structural       Ba2Cu2O2Te2
_chemical_formula_sum              "Ba2 Cu2 O2 Te2"
_cell_length_a       3.78962
_cell_length_b       6.19825
_cell_length_c       7.73914
_cell_angle_alpha    90
_cell_angle_beta     75.8279
_cell_angle_gamma    90

_space_group_name_H-M_alt    "P 1"
_space_group_IT_number       1

loop_
  _space_group_symop_operation_xyz
  'x, y, z'

loop_
  _atom_site_type_symbol
  _atom_site_label
  _atom_site_symmetry_multiplicity
  _atom_site_fract_x
  _atom_site_fract_y
  _atom_site_fract_z
  _atom_site_occupancy
  Ba  Ba1       1.0  0.41800  0.75000  0.16500  1.0000
  Ba  Ba2       1.0  0.58200  0.25000  0.83500  1.0000
  Cu  Cu1       1.0  0.90900  0.25000  0.18300  1.0000
  Cu  Cu2       1.0  0.09150  0.75000  0.81700  1.0000
  O   O1        1.0  0.00000  0.00000  0.00000  1.0000
  O   O2        1.0  0.00000  0.50000  0.00000  1.0000
  Te  Te1       1.0  0.29300  0.25000  0.41400  1.0000
  Te  Te2       1.0  0.70700  0.75000  0.58600  1.0000
