data_image0
_chemical_formula_structural       Cu4O4Sn4Te4
_chemical_formula_sum              "Cu4 O4 Sn4 Te4"
_cell_length_a       6.14344
_cell_length_b       3.68274
_cell_length_c       14.4732
_cell_angle_alpha    90
_cell_angle_beta     90
_cell_angle_gamma    90

_space_group_name_H-M_alt    "P 1"
_space_group_IT_number       1

loop_
  _space_group_symop_operation_xyz
  'x, y, z'

loop_
  _atom_site_type_symbol
  _atom_site_label
  _atom_site_symmetry_multiplicity
  _atom_site_fract_x
  _atom_site_fract_y
  _atom_site_fract_z
  _atom_site_occupancy
  Cu  Cu1       1.0  0.60700  0.25000  0.21300  1.0000
  Cu  Cu2       1.0  0.10700  0.25000  0.28700  1.0000
  Cu  Cu3       1.0  0.89300  0.75000  0.71300  1.0000
  Cu  Cu4       1.0  0.39300  0.75000  0.78700  1.0000
  O   O1        1.0  0.28700  0.25000  0.17500  1.0000
  O   O2        1.0  0.78700  0.25000  0.32500  1.0000
  O   O3        1.0  0.21300  0.75000  0.67500  1.0000
  O   O4        1.0  0.71300  0.75000  0.82500  1.0000
  Sn  Sn1       1.0  0.25700  0.75000  0.09140  1.0000
  Sn  Sn2       1.0  0.75700  0.75000  0.40900  1.0000
  Sn  Sn3       1.0  0.24300  0.25000  0.59100  1.0000
  Sn  Sn4       1.0  0.74300  0.25000  0.90900  1.0000
  Te  Te1       1.0  0.76400  0.75000  0.10100  1.0000
  Te  Te2       1.0  0.26400  0.75000  0.39900  1.0000
  Te  Te3       1.0  0.73600  0.25000  0.60100  1.0000
  Te  Te4       1.0  0.23600  0.25000  0.89900  1.0000
