data_image0
_chemical_formula_structural       Mn8O4Te4
_chemical_formula_sum              "Mn8 O4 Te4"
_cell_length_a       6.20695
_cell_length_b       3.81469
_cell_length_c       12.9649
_cell_angle_alpha    90
_cell_angle_beta     90
_cell_angle_gamma    90

_space_group_name_H-M_alt    "P 1"
_space_group_IT_number       1

loop_
  _space_group_symop_operation_xyz
  'x, y, z'

loop_
  _atom_site_type_symbol
  _atom_site_label
  _atom_site_symmetry_multiplicity
  _atom_site_fract_x
  _atom_site_fract_y
  _atom_site_fract_z
  _atom_site_occupancy
  Mn  Mn1       1.0  0.25600  0.75000  0.07140  1.0000
  Mn  Mn2       1.0  0.51200  0.25000  0.24900  1.0000
  Mn  Mn3       1.0  0.01180  0.25000  0.25100  1.0000
  Mn  Mn4       1.0  0.75600  0.75000  0.42900  1.0000
  Mn  Mn5       1.0  0.24400  0.25000  0.57100  1.0000
  Mn  Mn6       1.0  0.98800  0.75000  0.74900  1.0000
  Mn  Mn7       1.0  0.48800  0.75000  0.75100  1.0000
  Mn  Mn8       1.0  0.74400  0.25000  0.92900  1.0000
  O   O1        1.0  0.26000  0.25000  0.14800  1.0000
  O   O2        1.0  0.76000  0.25000  0.35200  1.0000
  O   O3        1.0  0.24000  0.75000  0.64800  1.0000
  O   O4        1.0  0.74000  0.75000  0.85200  1.0000
  Te  Te1       1.0  0.75900  0.75000  0.11000  1.0000
  Te  Te2       1.0  0.25900  0.75000  0.39000  1.0000
  Te  Te3       1.0  0.74100  0.25000  0.61000  1.0000
  Te  Te4       1.0  0.24100  0.25000  0.89000  1.0000
