data_image0
_chemical_formula_structural       O2Pm2Rb2Te2
_chemical_formula_sum              "O2 Pm2 Rb2 Te2"
_cell_length_a       4.39771
_cell_length_b       4.39771
_cell_length_c       10.9412
_cell_angle_alpha    90
_cell_angle_beta     90
_cell_angle_gamma    90

_space_group_name_H-M_alt    "P 1"
_space_group_IT_number       1

loop_
  _space_group_symop_operation_xyz
  'x, y, z'

loop_
  _atom_site_type_symbol
  _atom_site_label
  _atom_site_symmetry_multiplicity
  _atom_site_fract_x
  _atom_site_fract_y
  _atom_site_fract_z
  _atom_site_occupancy
  O   O1        1.0  0.75000  0.25000  0.00000  1.0000
  O   O2        1.0  0.25000  0.75000  0.00000  1.0000
  Pm  Pm1       1.0  0.25000  0.25000  0.08700  1.0000
  Pm  Pm2       1.0  0.75000  0.75000  0.91300  1.0000
  Rb  Rb1       1.0  0.75000  0.25000  0.50000  1.0000
  Rb  Rb2       1.0  0.25000  0.75000  0.50000  1.0000
  Te  Te1       1.0  0.75000  0.75000  0.25900  1.0000
  Te  Te2       1.0  0.25000  0.25000  0.74100  1.0000
