data_image0
_chemical_formula_structural       Ag2Bi2Yb2
_chemical_formula_sum              "Ag2 Bi2 Yb2"
_cell_length_a       4.83455
_cell_length_b       4.83443
_cell_length_c       7.74254
_cell_angle_alpha    90
_cell_angle_beta     90
_cell_angle_gamma    120.001

_space_group_name_H-M_alt    "P 1"
_space_group_IT_number       1

loop_
  _space_group_symop_operation_xyz
  'x, y, z'

loop_
  _atom_site_type_symbol
  _atom_site_label
  _atom_site_symmetry_multiplicity
  _atom_site_fract_x
  _atom_site_fract_y
  _atom_site_fract_z
  _atom_site_occupancy
  Ag  Ag1       1.0  0.33300  0.66700  0.06880  1.0000
  Ag  Ag2       1.0  0.66700  0.33300  0.56900  1.0000
  Bi  Bi1       1.0  0.33300  0.66700  0.46600  1.0000
  Bi  Bi2       1.0  0.66700  0.33300  0.96600  1.0000
  Yb  Yb1       1.0  0.00000  0.00000  0.24900  1.0000
  Yb  Yb2       1.0  0.00001  0.00001  0.74900  1.0000
