data_image0
_chemical_formula_structural       O2Pb4Te2
_chemical_formula_sum              "O2 Pb4 Te2"
_cell_length_a       3.81442
_cell_length_b       6.36548
_cell_length_c       8.34202
_cell_angle_alpha    90
_cell_angle_beta     76.7838
_cell_angle_gamma    90

_space_group_name_H-M_alt    "P 1"
_space_group_IT_number       1

loop_
  _space_group_symop_operation_xyz
  'x, y, z'

loop_
  _atom_site_type_symbol
  _atom_site_label
  _atom_site_symmetry_multiplicity
  _atom_site_fract_x
  _atom_site_fract_y
  _atom_site_fract_z
  _atom_site_occupancy
  O   O1        1.0  0.00000  0.00000  0.00000  1.0000
  O   O2        1.0  0.00000  0.50000  0.00000  1.0000
  Pb  Pb1       1.0  0.45000  0.75000  0.10100  1.0000
  Pb  Pb2       1.0  0.86800  0.25000  0.26400  1.0000
  Pb  Pb3       1.0  0.13200  0.75000  0.73600  1.0000
  Pb  Pb4       1.0  0.55000  0.25000  0.89900  1.0000
  Te  Te1       1.0  0.79000  0.75000  0.42000  1.0000
  Te  Te2       1.0  0.21000  0.25000  0.58000  1.0000
