data_image0
_chemical_formula_structural       Cu4Si4Zr4
_chemical_formula_sum              "Cu4 Si4 Zr4"
_cell_length_a       7.31615
_cell_length_b       6.52833
_cell_length_c       3.92957
_cell_angle_alpha    90
_cell_angle_beta     90
_cell_angle_gamma    90

_space_group_name_H-M_alt    "P 1"
_space_group_IT_number       1

loop_
  _space_group_symop_operation_xyz
  'x, y, z'

loop_
  _atom_site_type_symbol
  _atom_site_label
  _atom_site_symmetry_multiplicity
  _atom_site_fract_x
  _atom_site_fract_y
  _atom_site_fract_z
  _atom_site_occupancy
  Cu  Cu1       1.0  0.57600  0.16900  0.25000  1.0000
  Cu  Cu2       1.0  0.92400  0.66900  0.25000  1.0000
  Cu  Cu3       1.0  0.07560  0.33100  0.75000  1.0000
  Cu  Cu4       1.0  0.42400  0.83100  0.75000  1.0000
  Si  Si1       1.0  0.89800  0.28000  0.25000  1.0000
  Si  Si2       1.0  0.60200  0.78000  0.25000  1.0000
  Si  Si3       1.0  0.39800  0.22000  0.75000  1.0000
  Si  Si4       1.0  0.10200  0.72000  0.75000  1.0000
  Zr  Zr1       1.0  0.19200  0.01030  0.25000  1.0000
  Zr  Zr2       1.0  0.30800  0.51000  0.25000  1.0000
  Zr  Zr3       1.0  0.69200  0.49000  0.75000  1.0000
  Zr  Zr4       1.0  0.80800  0.99000  0.75000  1.0000
