data_image0
_chemical_formula_structural       Mn4O4Te4Zn4
_chemical_formula_sum              "Mn4 O4 Te4 Zn4"
_cell_length_a       6.20914
_cell_length_b       3.6827
_cell_length_c       12.755
_cell_angle_alpha    90
_cell_angle_beta     90
_cell_angle_gamma    90

_space_group_name_H-M_alt    "P 1"
_space_group_IT_number       1

loop_
  _space_group_symop_operation_xyz
  'x, y, z'

loop_
  _atom_site_type_symbol
  _atom_site_label
  _atom_site_symmetry_multiplicity
  _atom_site_fract_x
  _atom_site_fract_y
  _atom_site_fract_z
  _atom_site_occupancy
  Mn  Mn1       1.0  0.51100  0.25000  0.24700  1.0000
  Mn  Mn2       1.0  0.01130  0.25000  0.25300  1.0000
  Mn  Mn3       1.0  0.98900  0.75000  0.74700  1.0000
  Mn  Mn4       1.0  0.48900  0.75000  0.75300  1.0000
  O   O1        1.0  0.25800  0.25000  0.14800  1.0000
  O   O2        1.0  0.75800  0.25000  0.35200  1.0000
  O   O3        1.0  0.24200  0.75000  0.64800  1.0000
  O   O4        1.0  0.74200  0.75000  0.85200  1.0000
  Te  Te1       1.0  0.76100  0.75000  0.10600  1.0000
  Te  Te2       1.0  0.26100  0.75000  0.39400  1.0000
  Te  Te3       1.0  0.73900  0.25000  0.60600  1.0000
  Te  Te4       1.0  0.23900  0.25000  0.89400  1.0000
  Zn  Zn1       1.0  0.23800  0.75000  0.06920  1.0000
  Zn  Zn2       1.0  0.73800  0.75000  0.43100  1.0000
  Zn  Zn3       1.0  0.26200  0.25000  0.56900  1.0000
  Zn  Zn4       1.0  0.76200  0.25000  0.93100  1.0000
