data_image0
_chemical_formula_structural       Ni8O4Te4
_chemical_formula_sum              "Ni8 O4 Te4"
_cell_length_a       5.91517
_cell_length_b       3.42577
_cell_length_c       12.7444
_cell_angle_alpha    90
_cell_angle_beta     90
_cell_angle_gamma    90

_space_group_name_H-M_alt    "P 1"
_space_group_IT_number       1

loop_
  _space_group_symop_operation_xyz
  'x, y, z'

loop_
  _atom_site_type_symbol
  _atom_site_label
  _atom_site_symmetry_multiplicity
  _atom_site_fract_x
  _atom_site_fract_y
  _atom_site_fract_z
  _atom_site_occupancy
  Ni  Ni1       1.0  0.26100  0.75000  0.07700  1.0000
  Ni  Ni2       1.0  0.54400  0.25000  0.24500  1.0000
  Ni  Ni3       1.0  0.04400  0.25000  0.25500  1.0000
  Ni  Ni4       1.0  0.76100  0.75000  0.42300  1.0000
  Ni  Ni5       1.0  0.23900  0.25000  0.57700  1.0000
  Ni  Ni6       1.0  0.95600  0.75000  0.74500  1.0000
  Ni  Ni7       1.0  0.45600  0.75000  0.75500  1.0000
  Ni  Ni8       1.0  0.73900  0.25000  0.92300  1.0000
  O   O1        1.0  0.28400  0.25000  0.15400  1.0000
  O   O2        1.0  0.78400  0.25000  0.34600  1.0000
  O   O3        1.0  0.21600  0.75000  0.65400  1.0000
  O   O4        1.0  0.71600  0.75000  0.84600  1.0000
  Te  Te1       1.0  0.77900  0.75000  0.10800  1.0000
  Te  Te2       1.0  0.27900  0.75000  0.39200  1.0000
  Te  Te3       1.0  0.72100  0.25000  0.60800  1.0000
  Te  Te4       1.0  0.22100  0.25000  0.89200  1.0000
