data_image0
_chemical_formula_structural       Ba2Cd4
_chemical_formula_sum              "Ba2 Cd4"
_cell_length_a       5.23265
_cell_length_b       6.56563
_cell_length_c       6.56563
_cell_angle_alpha    97.5601
_cell_angle_beta     113.484
_cell_angle_gamma    66.5163

_space_group_name_H-M_alt    "P 1"
_space_group_IT_number       1

loop_
  _space_group_symop_operation_xyz
  'x, y, z'

loop_
  _atom_site_type_symbol
  _atom_site_label
  _atom_site_symmetry_multiplicity
  _atom_site_fract_x
  _atom_site_fract_y
  _atom_site_fract_z
  _atom_site_occupancy
  Ba  Ba1       1.0  0.75000  0.69800  0.19800  1.0000
  Ba  Ba2       1.0  0.25000  0.30200  0.80200  1.0000
  Cd  Cd1       1.0  0.06420  0.09960  0.22800  1.0000
  Cd  Cd2       1.0  0.56400  0.27200  0.40000  1.0000
  Cd  Cd3       1.0  0.43600  0.72800  0.60000  1.0000
  Cd  Cd4       1.0  0.93600  0.90000  0.77200  1.0000
