data_image0
_chemical_formula_structural       Ba4O4Pb4Se4
_chemical_formula_sum              "Ba4 O4 Pb4 Se4"
_cell_length_a       6.69213
_cell_length_b       4.3888
_cell_length_c       16.4469
_cell_angle_alpha    90
_cell_angle_beta     90
_cell_angle_gamma    90

_space_group_name_H-M_alt    "P 1"
_space_group_IT_number       1

loop_
  _space_group_symop_operation_xyz
  'x, y, z'

loop_
  _atom_site_type_symbol
  _atom_site_label
  _atom_site_symmetry_multiplicity
  _atom_site_fract_x
  _atom_site_fract_y
  _atom_site_fract_z
  _atom_site_occupancy
  Ba  Ba1       1.0  0.25100  0.75000  0.08510  1.0000
  Ba  Ba2       1.0  0.75100  0.75000  0.41500  1.0000
  Ba  Ba3       1.0  0.24900  0.25000  0.58500  1.0000
  Ba  Ba4       1.0  0.74900  0.25000  0.91500  1.0000
  O   O1        1.0  0.32200  0.25000  0.16700  1.0000
  O   O2        1.0  0.82200  0.25000  0.33300  1.0000
  O   O3        1.0  0.17800  0.75000  0.66700  1.0000
  O   O4        1.0  0.67800  0.75000  0.83300  1.0000
  Pb  Pb1       1.0  0.66000  0.25000  0.18800  1.0000
  Pb  Pb2       1.0  0.16000  0.25000  0.31200  1.0000
  Pb  Pb3       1.0  0.84000  0.75000  0.68800  1.0000
  Pb  Pb4       1.0  0.34000  0.75000  0.81200  1.0000
  Se  Se1       1.0  0.75300  0.75000  0.07310  1.0000
  Se  Se2       1.0  0.25300  0.75000  0.42700  1.0000
  Se  Se3       1.0  0.74700  0.25000  0.57300  1.0000
  Se  Se4       1.0  0.24700  0.25000  0.92700  1.0000
