data_image0
_chemical_formula_structural       O4Pb8Se4
_chemical_formula_sum              "O4 Pb8 Se4"
_cell_length_a       7.19407
_cell_length_b       3.98448
_cell_length_c       13.8044
_cell_angle_alpha    90
_cell_angle_beta     90
_cell_angle_gamma    90

_space_group_name_H-M_alt    "P 1"
_space_group_IT_number       1

loop_
  _space_group_symop_operation_xyz
  'x, y, z'

loop_
  _atom_site_type_symbol
  _atom_site_label
  _atom_site_symmetry_multiplicity
  _atom_site_fract_x
  _atom_site_fract_y
  _atom_site_fract_z
  _atom_site_occupancy
  O   O1        1.0  0.34700  0.25000  0.12200  1.0000
  O   O2        1.0  0.84700  0.25000  0.37800  1.0000
  O   O3        1.0  0.15300  0.75000  0.62200  1.0000
  O   O4        1.0  0.65300  0.75000  0.87800  1.0000
  Pb  Pb1       1.0  0.26700  0.75000  0.03760  1.0000
  Pb  Pb2       1.0  0.59800  0.25000  0.23800  1.0000
  Pb  Pb3       1.0  0.09800  0.25000  0.26200  1.0000
  Pb  Pb4       1.0  0.76700  0.75000  0.46200  1.0000
  Pb  Pb5       1.0  0.23300  0.25000  0.53800  1.0000
  Pb  Pb6       1.0  0.90200  0.75000  0.73800  1.0000
  Pb  Pb7       1.0  0.40200  0.75000  0.76200  1.0000
  Pb  Pb8       1.0  0.73300  0.25000  0.96200  1.0000
  Se  Se1       1.0  0.90200  0.75000  0.13600  1.0000
  Se  Se2       1.0  0.40200  0.75000  0.36400  1.0000
  Se  Se3       1.0  0.59800  0.25000  0.63600  1.0000
  Se  Se4       1.0  0.09800  0.25000  0.86400  1.0000
