data_image0
_chemical_formula_structural       Ca4O2Te2
_chemical_formula_sum              "Ca4 O2 Te2"
_cell_length_a       4.41872
_cell_length_b       6.57723
_cell_length_c       7.38257
_cell_angle_alpha    90
_cell_angle_beta     72.5864
_cell_angle_gamma    90

_space_group_name_H-M_alt    "P 1"
_space_group_IT_number       1

loop_
  _space_group_symop_operation_xyz
  'x, y, z'

loop_
  _atom_site_type_symbol
  _atom_site_label
  _atom_site_symmetry_multiplicity
  _atom_site_fract_x
  _atom_site_fract_y
  _atom_site_fract_z
  _atom_site_occupancy
  Ca  Ca1       1.0  0.90400  0.25000  0.19200  1.0000
  Ca  Ca2       1.0  0.38800  0.75000  0.22300  1.0000
  Ca  Ca3       1.0  0.61200  0.25000  0.77700  1.0000
  Ca  Ca4       1.0  0.09610  0.75000  0.80800  1.0000
  O   O1        1.0  0.00000  0.00000  0.00000  1.0000
  O   O2        1.0  0.00000  0.50000  0.00000  1.0000
  Te  Te1       1.0  0.26400  0.25000  0.47100  1.0000
  Te  Te2       1.0  0.73600  0.75000  0.52900  1.0000
