data_image0
_chemical_formula_structural       GdSi5
_chemical_formula_sum              "Gd1 Si5"
_cell_length_a       3.77198
_cell_length_b       5.81944
_cell_length_c       5.81944
_cell_angle_alpha    104.449
_cell_angle_beta     108.91
_cell_angle_gamma    108.91

_space_group_name_H-M_alt    "P 1"
_space_group_IT_number       1

loop_
  _space_group_symop_operation_xyz
  'x, y, z'

loop_
  _atom_site_type_symbol
  _atom_site_label
  _atom_site_symmetry_multiplicity
  _atom_site_fract_x
  _atom_site_fract_y
  _atom_site_fract_z
  _atom_site_occupancy
  Gd  Gd1       1.0  0.00000  0.00000  0.00000  1.0000
  Si  Si1       1.0  0.80300  0.47400  0.13200  1.0000
  Si  Si2       1.0  0.80300  0.13200  0.47400  1.0000
  Si  Si3       1.0  0.50000  0.50000  0.50000  1.0000
  Si  Si4       1.0  0.19700  0.86800  0.52600  1.0000
  Si  Si5       1.0  0.19700  0.52600  0.86800  1.0000
