data_image0
_chemical_formula_structural       Fe2Mg2O2Te2
_chemical_formula_sum              "Fe2 Mg2 O2 Te2"
_cell_length_a       3.38261
_cell_length_b       5.30252
_cell_length_c       7.9096
_cell_angle_alpha    90
_cell_angle_beta     77.6532
_cell_angle_gamma    90

_space_group_name_H-M_alt    "P 1"
_space_group_IT_number       1

loop_
  _space_group_symop_operation_xyz
  'x, y, z'

loop_
  _atom_site_type_symbol
  _atom_site_label
  _atom_site_symmetry_multiplicity
  _atom_site_fract_x
  _atom_site_fract_y
  _atom_site_fract_z
  _atom_site_occupancy
  Fe  Fe1       1.0  0.44400  0.75000  0.11100  1.0000
  Fe  Fe2       1.0  0.55600  0.25000  0.88900  1.0000
  Mg  Mg1       1.0  0.90100  0.25000  0.19900  1.0000
  Mg  Mg2       1.0  0.09930  0.75000  0.80100  1.0000
  O   O1        1.0  0.00000  0.00000  0.00000  1.0000
  O   O2        1.0  0.00000  0.50000  0.00000  1.0000
  Te  Te1       1.0  0.80600  0.75000  0.38900  1.0000
  Te  Te2       1.0  0.19400  0.25000  0.61100  1.0000
