data_image0
_chemical_formula_structural       O4Sn4Sr4Te4
_chemical_formula_sum              "O4 Sn4 Sr4 Te4"
_cell_length_a       7.63938
_cell_length_b       4.41485
_cell_length_c       12.414
_cell_angle_alpha    90
_cell_angle_beta     90
_cell_angle_gamma    90

_space_group_name_H-M_alt    "P 1"
_space_group_IT_number       1

loop_
  _space_group_symop_operation_xyz
  'x, y, z'

loop_
  _atom_site_type_symbol
  _atom_site_label
  _atom_site_symmetry_multiplicity
  _atom_site_fract_x
  _atom_site_fract_y
  _atom_site_fract_z
  _atom_site_occupancy
  O   O1        1.0  0.46700  0.25000  0.09420  1.0000
  O   O2        1.0  0.96700  0.25000  0.40600  1.0000
  O   O3        1.0  0.03340  0.75000  0.59400  1.0000
  O   O4        1.0  0.53300  0.75000  0.90600  1.0000
  Sn  Sn1       1.0  0.61300  0.25000  0.23400  1.0000
  Sn  Sn2       1.0  0.11300  0.25000  0.26600  1.0000
  Sn  Sn3       1.0  0.88700  0.75000  0.73400  1.0000
  Sn  Sn4       1.0  0.38700  0.75000  0.76600  1.0000
  Sr  Sr1       1.0  0.32300  0.75000  0.05910  1.0000
  Sr  Sr2       1.0  0.82300  0.75000  0.44100  1.0000
  Sr  Sr3       1.0  0.17700  0.25000  0.55900  1.0000
  Sr  Sr4       1.0  0.67700  0.25000  0.94100  1.0000
  Te  Te1       1.0  0.86500  0.75000  0.14000  1.0000
  Te  Te2       1.0  0.36500  0.75000  0.36000  1.0000
  Te  Te3       1.0  0.63500  0.25000  0.64000  1.0000
  Te  Te4       1.0  0.13500  0.25000  0.86000  1.0000
