data_image0
_chemical_formula_structural       Rb2Sb4
_chemical_formula_sum              "Rb2 Sb4"
_cell_length_a       4.23532
_cell_length_b       7.39629
_cell_length_c       8.72037
_cell_angle_alpha    103.473
_cell_angle_beta     90
_cell_angle_gamma    106.637

_space_group_name_H-M_alt    "P 1"
_space_group_IT_number       1

loop_
  _space_group_symop_operation_xyz
  'x, y, z'

loop_
  _atom_site_type_symbol
  _atom_site_label
  _atom_site_symmetry_multiplicity
  _atom_site_fract_x
  _atom_site_fract_y
  _atom_site_fract_z
  _atom_site_occupancy
  Rb  Rb1       1.0  0.83500  0.67100  0.30200  1.0000
  Rb  Rb2       1.0  0.16500  0.32900  0.69800  1.0000
  Sb  Sb1       1.0  0.09520  0.19000  0.10800  1.0000
  Sb  Sb2       1.0  0.56500  0.13000  0.31400  1.0000
  Sb  Sb3       1.0  0.43500  0.87000  0.68600  1.0000
  Sb  Sb4       1.0  0.90500  0.81000  0.89200  1.0000
