data_image0
_chemical_formula_structural       Ag4Co4O4Te4
_chemical_formula_sum              "Ag4 Co4 O4 Te4"
_cell_length_a       5.90631
_cell_length_b       3.83933
_cell_length_c       13.4193
_cell_angle_alpha    90
_cell_angle_beta     90
_cell_angle_gamma    90

_space_group_name_H-M_alt    "P 1"
_space_group_IT_number       1

loop_
  _space_group_symop_operation_xyz
  'x, y, z'

loop_
  _atom_site_type_symbol
  _atom_site_label
  _atom_site_symmetry_multiplicity
  _atom_site_fract_x
  _atom_site_fract_y
  _atom_site_fract_z
  _atom_site_occupancy
  Ag  Ag1       1.0  0.26800  0.75000  0.09190  1.0000
  Ag  Ag2       1.0  0.76800  0.75000  0.40800  1.0000
  Ag  Ag3       1.0  0.23200  0.25000  0.59200  1.0000
  Ag  Ag4       1.0  0.73200  0.25000  0.90800  1.0000
  Co  Co1       1.0  0.65100  0.25000  0.19700  1.0000
  Co  Co2       1.0  0.15100  0.25000  0.30300  1.0000
  Co  Co3       1.0  0.84900  0.75000  0.69700  1.0000
  Co  Co4       1.0  0.34900  0.75000  0.80300  1.0000
  O   O1        1.0  0.33100  0.25000  0.19000  1.0000
  O   O2        1.0  0.83100  0.25000  0.31000  1.0000
  O   O3        1.0  0.16900  0.75000  0.69000  1.0000
  O   O4        1.0  0.66900  0.75000  0.81000  1.0000
  Te  Te1       1.0  0.78200  0.75000  0.07480  1.0000
  Te  Te2       1.0  0.28200  0.75000  0.42500  1.0000
  Te  Te3       1.0  0.71800  0.25000  0.57500  1.0000
  Te  Te4       1.0  0.21800  0.25000  0.92500  1.0000
