data_image0
_chemical_formula_structural       O4Sn8Te4
_chemical_formula_sum              "O4 Sn8 Te4"
_cell_length_a       7.31132
_cell_length_b       3.95008
_cell_length_c       14.0449
_cell_angle_alpha    90
_cell_angle_beta     90
_cell_angle_gamma    90

_space_group_name_H-M_alt    "P 1"
_space_group_IT_number       1

loop_
  _space_group_symop_operation_xyz
  'x, y, z'

loop_
  _atom_site_type_symbol
  _atom_site_label
  _atom_site_symmetry_multiplicity
  _atom_site_fract_x
  _atom_site_fract_y
  _atom_site_fract_z
  _atom_site_occupancy
  O   O1        1.0  0.32000  0.25000  0.13800  1.0000
  O   O2        1.0  0.82000  0.25000  0.36200  1.0000
  O   O3        1.0  0.18000  0.75000  0.63800  1.0000
  O   O4        1.0  0.68000  0.75000  0.86200  1.0000
  Sn  Sn1       1.0  0.28000  0.75000  0.05580  1.0000
  Sn  Sn2       1.0  0.56200  0.25000  0.23600  1.0000
  Sn  Sn3       1.0  0.06220  0.25000  0.26400  1.0000
  Sn  Sn4       1.0  0.78000  0.75000  0.44400  1.0000
  Sn  Sn5       1.0  0.22000  0.25000  0.55600  1.0000
  Sn  Sn6       1.0  0.93800  0.75000  0.73600  1.0000
  Sn  Sn7       1.0  0.43800  0.75000  0.76400  1.0000
  Sn  Sn8       1.0  0.72000  0.25000  0.94400  1.0000
  Te  Te1       1.0  0.88600  0.75000  0.12500  1.0000
  Te  Te2       1.0  0.38600  0.75000  0.37500  1.0000
  Te  Te3       1.0  0.61400  0.25000  0.62500  1.0000
  Te  Te4       1.0  0.11400  0.25000  0.87500  1.0000
