data_image0
_chemical_formula_structural       Br2Hg2I2
_chemical_formula_sum              "Br2 Hg2 I2"
_cell_length_a       4.35456
_cell_length_b       4.35456
_cell_length_c       13.6975
_cell_angle_alpha    90
_cell_angle_beta     90
_cell_angle_gamma    112.243

_space_group_name_H-M_alt    "P 1"
_space_group_IT_number       1

loop_
  _space_group_symop_operation_xyz
  'x, y, z'

loop_
  _atom_site_type_symbol
  _atom_site_label
  _atom_site_symmetry_multiplicity
  _atom_site_fract_x
  _atom_site_fract_y
  _atom_site_fract_z
  _atom_site_occupancy
  Br  Br1       1.0  0.42800  0.57200  0.12200  1.0000
  Br  Br2       1.0  0.57200  0.42800  0.62200  1.0000
  Hg  Hg1       1.0  0.82600  0.17400  0.49800  1.0000
  Hg  Hg2       1.0  0.17400  0.82600  0.99800  1.0000
  I   I1        1.0  0.09790  0.90200  0.36700  1.0000
  I   I2        1.0  0.90200  0.09790  0.86700  1.0000
