data_image0
_chemical_formula_structural       Ag4O2Te2
_chemical_formula_sum              "Ag4 O2 Te2"
_cell_length_a       3.5254
_cell_length_b       5.67953
_cell_length_c       7.46614
_cell_angle_alpha    90
_cell_angle_beta     76.344
_cell_angle_gamma    90

_space_group_name_H-M_alt    "P 1"
_space_group_IT_number       1

loop_
  _space_group_symop_operation_xyz
  'x, y, z'

loop_
  _atom_site_type_symbol
  _atom_site_label
  _atom_site_symmetry_multiplicity
  _atom_site_fract_x
  _atom_site_fract_y
  _atom_site_fract_z
  _atom_site_occupancy
  Ag  Ag1       1.0  0.44300  0.75000  0.11500  1.0000
  Ag  Ag2       1.0  0.87300  0.25000  0.25400  1.0000
  Ag  Ag3       1.0  0.12700  0.75000  0.74600  1.0000
  Ag  Ag4       1.0  0.55700  0.25000  0.88500  1.0000
  O   O1        1.0  0.00000  0.00000  0.00000  1.0000
  O   O2        1.0  0.00000  0.50000  0.00000  1.0000
  Te  Te1       1.0  0.79400  0.75000  0.41200  1.0000
  Te  Te2       1.0  0.20600  0.25000  0.58800  1.0000
