data_image0
_chemical_formula_structural       O2Sr4Te2
_chemical_formula_sum              "O2 Sr4 Te2"
_cell_length_a       4.1067
_cell_length_b       6.55648
_cell_length_c       8.0648
_cell_angle_alpha    90
_cell_angle_beta     75.2497
_cell_angle_gamma    90

_space_group_name_H-M_alt    "P 1"
_space_group_IT_number       1

loop_
  _space_group_symop_operation_xyz
  'x, y, z'

loop_
  _atom_site_type_symbol
  _atom_site_label
  _atom_site_symmetry_multiplicity
  _atom_site_fract_x
  _atom_site_fract_y
  _atom_site_fract_z
  _atom_site_occupancy
  O   O1        1.0  0.00000  0.00000  0.00000  1.0000
  O   O2        1.0  0.00000  0.50000  0.00000  1.0000
  Sr  Sr1       1.0  0.43700  0.75000  0.12600  1.0000
  Sr  Sr2       1.0  0.87000  0.25000  0.25900  1.0000
  Sr  Sr3       1.0  0.13000  0.75000  0.74100  1.0000
  Sr  Sr4       1.0  0.56300  0.25000  0.87400  1.0000
  Te  Te1       1.0  0.78200  0.75000  0.43500  1.0000
  Te  Te2       1.0  0.21800  0.25000  0.56500  1.0000
