data_image0
_chemical_formula_structural       Ca2O2Se2Sn2
_chemical_formula_sum              "Ca2 O2 Se2 Sn2"
_cell_length_a       3.86734
_cell_length_b       3.86438
_cell_length_c       13.8098
_cell_angle_alpha    90
_cell_angle_beta     90
_cell_angle_gamma    120.025

_space_group_name_H-M_alt    "P 1"
_space_group_IT_number       1

loop_
  _space_group_symop_operation_xyz
  'x, y, z'

loop_
  _atom_site_type_symbol
  _atom_site_label
  _atom_site_symmetry_multiplicity
  _atom_site_fract_x
  _atom_site_fract_y
  _atom_site_fract_z
  _atom_site_occupancy
  Ca  Ca1       1.0  0.33300  0.66600  0.26500  1.0000
  Ca  Ca2       1.0  0.66700  0.33400  0.76500  1.0000
  O   O1        1.0  0.00000  0.00000  0.32400  1.0000
  O   O2        1.0  0.00024  0.00048  0.82400  1.0000
  Se  Se1       1.0  0.66700  0.33300  0.11600  1.0000
  Se  Se2       1.0  0.33300  0.66700  0.61600  1.0000
  Sn  Sn1       1.0  0.00000  0.00000  0.48300  1.0000
  Sn  Sn2       1.0  0.00021  0.00042  0.98300  1.0000
