data_image0
_chemical_formula_structural       Ba4Co4O4Te4
_chemical_formula_sum              "Ba4 Co4 O4 Te4"
_cell_length_a       6.65806
_cell_length_b       4.4027
_cell_length_c       14.1396
_cell_angle_alpha    90
_cell_angle_beta     90
_cell_angle_gamma    90

_space_group_name_H-M_alt    "P 1"
_space_group_IT_number       1

loop_
  _space_group_symop_operation_xyz
  'x, y, z'

loop_
  _atom_site_type_symbol
  _atom_site_label
  _atom_site_symmetry_multiplicity
  _atom_site_fract_x
  _atom_site_fract_y
  _atom_site_fract_z
  _atom_site_occupancy
  Ba  Ba1       1.0  0.25700  0.75000  0.12100  1.0000
  Ba  Ba2       1.0  0.75700  0.75000  0.37900  1.0000
  Ba  Ba3       1.0  0.24300  0.25000  0.62100  1.0000
  Ba  Ba4       1.0  0.74300  0.25000  0.87900  1.0000
  Co  Co1       1.0  0.66100  0.25000  0.18900  1.0000
  Co  Co2       1.0  0.16100  0.25000  0.31100  1.0000
  Co  Co3       1.0  0.83900  0.75000  0.68900  1.0000
  Co  Co4       1.0  0.33900  0.75000  0.81100  1.0000
  O   O1        1.0  0.36400  0.25000  0.20900  1.0000
  O   O2        1.0  0.86400  0.25000  0.29100  1.0000
  O   O3        1.0  0.13600  0.75000  0.70900  1.0000
  O   O4        1.0  0.63600  0.75000  0.79100  1.0000
  Te  Te1       1.0  0.75300  0.75000  0.08570  1.0000
  Te  Te2       1.0  0.25300  0.75000  0.41400  1.0000
  Te  Te3       1.0  0.74700  0.25000  0.58600  1.0000
  Te  Te4       1.0  0.24700  0.25000  0.91400  1.0000
