data_image0
_chemical_formula_structural       Hg4O4Se4Zn4
_chemical_formula_sum              "Hg4 O4 Se4 Zn4"
_cell_length_a       6.04638
_cell_length_b       3.55398
_cell_length_c       14.0485
_cell_angle_alpha    90
_cell_angle_beta     90
_cell_angle_gamma    90

_space_group_name_H-M_alt    "P 1"
_space_group_IT_number       1

loop_
  _space_group_symop_operation_xyz
  'x, y, z'

loop_
  _atom_site_type_symbol
  _atom_site_label
  _atom_site_symmetry_multiplicity
  _atom_site_fract_x
  _atom_site_fract_y
  _atom_site_fract_z
  _atom_site_occupancy
  Hg  Hg1       1.0  0.62800  0.25000  0.18200  1.0000
  Hg  Hg2       1.0  0.12800  0.25000  0.31800  1.0000
  Hg  Hg3       1.0  0.87200  0.75000  0.68200  1.0000
  Hg  Hg4       1.0  0.37200  0.75000  0.81800  1.0000
  O   O1        1.0  0.22600  0.25000  0.16600  1.0000
  O   O2        1.0  0.72600  0.25000  0.33400  1.0000
  O   O3        1.0  0.27400  0.75000  0.66600  1.0000
  O   O4        1.0  0.77400  0.75000  0.83400  1.0000
  Se  Se1       1.0  0.75800  0.75000  0.05180  1.0000
  Se  Se2       1.0  0.25800  0.75000  0.44800  1.0000
  Se  Se3       1.0  0.74200  0.25000  0.55200  1.0000
  Se  Se4       1.0  0.24200  0.25000  0.94800  1.0000
  Zn  Zn1       1.0  0.14800  0.75000  0.10200  1.0000
  Zn  Zn2       1.0  0.64800  0.75000  0.39800  1.0000
  Zn  Zn3       1.0  0.35200  0.25000  0.60200  1.0000
  Zn  Zn4       1.0  0.85200  0.25000  0.89800  1.0000
