data_image0
_chemical_formula_structural       Ba4O4Sn4Te4
_chemical_formula_sum              "Ba4 O4 Sn4 Te4"
_cell_length_a       8.01952
_cell_length_b       4.1694
_cell_length_c       14.0208
_cell_angle_alpha    90
_cell_angle_beta     90
_cell_angle_gamma    90

_space_group_name_H-M_alt    "P 1"
_space_group_IT_number       1

loop_
  _space_group_symop_operation_xyz
  'x, y, z'

loop_
  _atom_site_type_symbol
  _atom_site_label
  _atom_site_symmetry_multiplicity
  _atom_site_fract_x
  _atom_site_fract_y
  _atom_site_fract_z
  _atom_site_occupancy
  Ba  Ba1       1.0  0.57700  0.25000  0.20900  1.0000
  Ba  Ba2       1.0  0.07680  0.25000  0.29100  1.0000
  Ba  Ba3       1.0  0.92300  0.75000  0.70900  1.0000
  Ba  Ba4       1.0  0.42300  0.75000  0.79100  1.0000
  O   O1        1.0  0.27200  0.25000  0.14000  1.0000
  O   O2        1.0  0.77200  0.25000  0.36000  1.0000
  O   O3        1.0  0.22800  0.75000  0.64000  1.0000
  O   O4        1.0  0.72800  0.75000  0.86000  1.0000
  Sn  Sn1       1.0  0.23700  0.75000  0.06500  1.0000
  Sn  Sn2       1.0  0.73700  0.75000  0.43500  1.0000
  Sn  Sn3       1.0  0.26300  0.25000  0.56500  1.0000
  Sn  Sn4       1.0  0.76300  0.25000  0.93500  1.0000
  Te  Te1       1.0  0.88600  0.75000  0.12000  1.0000
  Te  Te2       1.0  0.38600  0.75000  0.38000  1.0000
  Te  Te3       1.0  0.61400  0.25000  0.62000  1.0000
  Te  Te4       1.0  0.11400  0.25000  0.88000  1.0000
