data_image0
_chemical_formula_structural       Cu4Hg4O4Te4
_chemical_formula_sum              "Cu4 Hg4 O4 Te4"
_cell_length_a       6.94622
_cell_length_b       3.34165
_cell_length_c       13.4391
_cell_angle_alpha    90
_cell_angle_beta     90
_cell_angle_gamma    90

_space_group_name_H-M_alt    "P 1"
_space_group_IT_number       1

loop_
  _space_group_symop_operation_xyz
  'x, y, z'

loop_
  _atom_site_type_symbol
  _atom_site_label
  _atom_site_symmetry_multiplicity
  _atom_site_fract_x
  _atom_site_fract_y
  _atom_site_fract_z
  _atom_site_occupancy
  Cu  Cu1       1.0  0.21600  0.75000  0.06440  1.0000
  Cu  Cu2       1.0  0.71600  0.75000  0.43600  1.0000
  Cu  Cu3       1.0  0.28400  0.25000  0.56400  1.0000
  Cu  Cu4       1.0  0.78400  0.25000  0.93600  1.0000
  Hg  Hg1       1.0  0.51300  0.25000  0.23600  1.0000
  Hg  Hg2       1.0  0.01320  0.25000  0.26400  1.0000
  Hg  Hg3       1.0  0.98700  0.75000  0.73600  1.0000
  Hg  Hg4       1.0  0.48700  0.75000  0.76400  1.0000
  O   O1        1.0  0.24500  0.25000  0.15200  1.0000
  O   O2        1.0  0.74500  0.25000  0.34800  1.0000
  O   O3        1.0  0.25500  0.75000  0.65200  1.0000
  O   O4        1.0  0.75500  0.75000  0.84800  1.0000
  Te  Te1       1.0  0.77800  0.75000  0.08330  1.0000
  Te  Te2       1.0  0.27800  0.75000  0.41700  1.0000
  Te  Te3       1.0  0.72200  0.25000  0.58300  1.0000
  Te  Te4       1.0  0.22200  0.25000  0.91700  1.0000
