data_image0
_chemical_formula_structural       H2Na2O2
_chemical_formula_sum              "H2 Na2 O2"
_cell_length_a       3.31736
_cell_length_b       3.35192
_cell_length_c       5.73535
_cell_angle_alpha    73.0093
_cell_angle_beta     90
_cell_angle_gamma    90

_space_group_name_H-M_alt    "P 1"
_space_group_IT_number       1

loop_
  _space_group_symop_operation_xyz
  'x, y, z'

loop_
  _atom_site_type_symbol
  _atom_site_label
  _atom_site_symmetry_multiplicity
  _atom_site_fract_x
  _atom_site_fract_y
  _atom_site_fract_z
  _atom_site_occupancy
  H   H1        1.0  0.75000  0.45900  0.08240  1.0000
  H   H2        1.0  0.25000  0.54100  0.91800  1.0000
  Na  Na1       1.0  0.25000  0.84000  0.32000  1.0000
  Na  Na2       1.0  0.75000  0.16000  0.68000  1.0000
  O   O1        1.0  0.75000  0.37000  0.26000  1.0000
  O   O2        1.0  0.25000  0.63000  0.74000  1.0000
