data_image0
_chemical_formula_structural       Cd4O4Pb4Se4
_chemical_formula_sum              "Cd4 O4 Pb4 Se4"
_cell_length_a       6.67198
_cell_length_b       3.76669
_cell_length_c       15.0202
_cell_angle_alpha    90
_cell_angle_beta     90
_cell_angle_gamma    90

_space_group_name_H-M_alt    "P 1"
_space_group_IT_number       1

loop_
  _space_group_symop_operation_xyz
  'x, y, z'

loop_
  _atom_site_type_symbol
  _atom_site_label
  _atom_site_symmetry_multiplicity
  _atom_site_fract_x
  _atom_site_fract_y
  _atom_site_fract_z
  _atom_site_occupancy
  Cd  Cd1       1.0  0.20400  0.75000  0.07590  1.0000
  Cd  Cd2       1.0  0.70400  0.75000  0.42400  1.0000
  Cd  Cd3       1.0  0.29600  0.25000  0.57600  1.0000
  Cd  Cd4       1.0  0.79600  0.25000  0.92400  1.0000
  O   O1        1.0  0.29100  0.25000  0.14800  1.0000
  O   O2        1.0  0.79100  0.25000  0.35200  1.0000
  O   O3        1.0  0.20900  0.75000  0.64800  1.0000
  O   O4        1.0  0.70900  0.75000  0.85200  1.0000
  Pb  Pb1       1.0  0.61800  0.25000  0.19500  1.0000
  Pb  Pb2       1.0  0.11800  0.25000  0.30500  1.0000
  Pb  Pb3       1.0  0.88200  0.75000  0.69500  1.0000
  Pb  Pb4       1.0  0.38200  0.75000  0.80500  1.0000
  Se  Se1       1.0  0.78900  0.75000  0.07110  1.0000
  Se  Se2       1.0  0.28900  0.75000  0.42900  1.0000
  Se  Se3       1.0  0.71100  0.25000  0.57100  1.0000
  Se  Se4       1.0  0.21100  0.25000  0.92900  1.0000
