data_image0
_chemical_formula_structural       Mn4O4Sr4Te4
_chemical_formula_sum              "Mn4 O4 Sr4 Te4"
_cell_length_a       7.18947
_cell_length_b       3.84117
_cell_length_c       13.7078
_cell_angle_alpha    90
_cell_angle_beta     90
_cell_angle_gamma    90

_space_group_name_H-M_alt    "P 1"
_space_group_IT_number       1

loop_
  _space_group_symop_operation_xyz
  'x, y, z'

loop_
  _atom_site_type_symbol
  _atom_site_label
  _atom_site_symmetry_multiplicity
  _atom_site_fract_x
  _atom_site_fract_y
  _atom_site_fract_z
  _atom_site_occupancy
  Mn  Mn1       1.0  0.21500  0.75000  0.06610  1.0000
  Mn  Mn2       1.0  0.71500  0.75000  0.43400  1.0000
  Mn  Mn3       1.0  0.28500  0.25000  0.56600  1.0000
  Mn  Mn4       1.0  0.78500  0.25000  0.93400  1.0000
  O   O1        1.0  0.26500  0.25000  0.13200  1.0000
  O   O2        1.0  0.76500  0.25000  0.36800  1.0000
  O   O3        1.0  0.23500  0.75000  0.63200  1.0000
  O   O4        1.0  0.73500  0.75000  0.86800  1.0000
  Sr  Sr1       1.0  0.53600  0.25000  0.23300  1.0000
  Sr  Sr2       1.0  0.03610  0.25000  0.26700  1.0000
  Sr  Sr3       1.0  0.96400  0.75000  0.73300  1.0000
  Sr  Sr4       1.0  0.46400  0.75000  0.76700  1.0000
  Te  Te1       1.0  0.80900  0.75000  0.10400  1.0000
  Te  Te2       1.0  0.30900  0.75000  0.39600  1.0000
  Te  Te3       1.0  0.69100  0.25000  0.60400  1.0000
  Te  Te4       1.0  0.19100  0.25000  0.89600  1.0000
