data_image0
_chemical_formula_structural       Hg4Mn4O4Te4
_chemical_formula_sum              "Hg4 Mn4 O4 Te4"
_cell_length_a       5.91816
_cell_length_b       3.87377
_cell_length_c       15.1447
_cell_angle_alpha    90
_cell_angle_beta     90
_cell_angle_gamma    90

_space_group_name_H-M_alt    "P 1"
_space_group_IT_number       1

loop_
  _space_group_symop_operation_xyz
  'x, y, z'

loop_
  _atom_site_type_symbol
  _atom_site_label
  _atom_site_symmetry_multiplicity
  _atom_site_fract_x
  _atom_site_fract_y
  _atom_site_fract_z
  _atom_site_occupancy
  Hg  Hg1       1.0  0.73300  0.25000  0.19800  1.0000
  Hg  Hg2       1.0  0.23300  0.25000  0.30200  1.0000
  Hg  Hg3       1.0  0.76700  0.75000  0.69800  1.0000
  Hg  Hg4       1.0  0.26700  0.75000  0.80200  1.0000
  Mn  Mn1       1.0  0.24200  0.75000  0.10600  1.0000
  Mn  Mn2       1.0  0.74200  0.75000  0.39400  1.0000
  Mn  Mn3       1.0  0.25800  0.25000  0.60600  1.0000
  Mn  Mn4       1.0  0.75800  0.25000  0.89400  1.0000
  O   O1        1.0  0.24600  0.25000  0.15800  1.0000
  O   O2        1.0  0.74600  0.25000  0.34200  1.0000
  O   O3        1.0  0.25400  0.75000  0.65800  1.0000
  O   O4        1.0  0.75400  0.75000  0.84200  1.0000
  Te  Te1       1.0  0.74700  0.75000  0.06520  1.0000
  Te  Te2       1.0  0.24700  0.75000  0.43500  1.0000
  Te  Te3       1.0  0.75300  0.25000  0.56500  1.0000
  Te  Te4       1.0  0.25300  0.25000  0.93500  1.0000
