data_image0
_chemical_formula_structural       Co4Mg4O4Te4
_chemical_formula_sum              "Co4 Mg4 O4 Te4"
_cell_length_a       5.98279
_cell_length_b       3.68946
_cell_length_c       13.1761
_cell_angle_alpha    90
_cell_angle_beta     90
_cell_angle_gamma    90

_space_group_name_H-M_alt    "P 1"
_space_group_IT_number       1

loop_
  _space_group_symop_operation_xyz
  'x, y, z'

loop_
  _atom_site_type_symbol
  _atom_site_label
  _atom_site_symmetry_multiplicity
  _atom_site_fract_x
  _atom_site_fract_y
  _atom_site_fract_z
  _atom_site_occupancy
  Co  Co1       1.0  0.59600  0.25000  0.21400  1.0000
  Co  Co2       1.0  0.09560  0.25000  0.28600  1.0000
  Co  Co3       1.0  0.90400  0.75000  0.71400  1.0000
  Co  Co4       1.0  0.40400  0.75000  0.78600  1.0000
  Mg  Mg1       1.0  0.26300  0.75000  0.09990  1.0000
  Mg  Mg2       1.0  0.76300  0.75000  0.40000  1.0000
  Mg  Mg3       1.0  0.23700  0.25000  0.60000  1.0000
  Mg  Mg4       1.0  0.73700  0.25000  0.90000  1.0000
  O   O1        1.0  0.28000  0.25000  0.16500  1.0000
  O   O2        1.0  0.78000  0.25000  0.33500  1.0000
  O   O3        1.0  0.22000  0.75000  0.66500  1.0000
  O   O4        1.0  0.72000  0.75000  0.83500  1.0000
  Te  Te1       1.0  0.77100  0.75000  0.09400  1.0000
  Te  Te2       1.0  0.27100  0.75000  0.40600  1.0000
  Te  Te3       1.0  0.72900  0.25000  0.59400  1.0000
  Te  Te4       1.0  0.22900  0.25000  0.90600  1.0000
