data_image0
_chemical_formula_structural       Mn4Ni4O4Te4
_chemical_formula_sum              "Mn4 Ni4 O4 Te4"
_cell_length_a       6.15597
_cell_length_b       3.58554
_cell_length_c       12.5489
_cell_angle_alpha    90
_cell_angle_beta     90
_cell_angle_gamma    90

_space_group_name_H-M_alt    "P 1"
_space_group_IT_number       1

loop_
  _space_group_symop_operation_xyz
  'x, y, z'

loop_
  _atom_site_type_symbol
  _atom_site_label
  _atom_site_symmetry_multiplicity
  _atom_site_fract_x
  _atom_site_fract_y
  _atom_site_fract_z
  _atom_site_occupancy
  Mn  Mn1       1.0  0.51600  0.25000  0.24700  1.0000
  Mn  Mn2       1.0  0.01590  0.25000  0.25300  1.0000
  Mn  Mn3       1.0  0.98400  0.75000  0.74700  1.0000
  Mn  Mn4       1.0  0.48400  0.75000  0.75300  1.0000
  Ni  Ni1       1.0  0.24500  0.75000  0.06350  1.0000
  Ni  Ni2       1.0  0.74500  0.75000  0.43600  1.0000
  Ni  Ni3       1.0  0.25500  0.25000  0.56400  1.0000
  Ni  Ni4       1.0  0.75500  0.25000  0.93600  1.0000
  O   O1        1.0  0.26100  0.25000  0.15100  1.0000
  O   O2        1.0  0.76100  0.25000  0.34900  1.0000
  O   O3        1.0  0.23900  0.75000  0.65100  1.0000
  O   O4        1.0  0.73900  0.75000  0.84900  1.0000
  Te  Te1       1.0  0.76400  0.75000  0.09730  1.0000
  Te  Te2       1.0  0.26400  0.75000  0.40300  1.0000
  Te  Te3       1.0  0.73600  0.25000  0.59700  1.0000
  Te  Te4       1.0  0.23600  0.25000  0.90300  1.0000
