data_image0
_chemical_formula_structural       Co4Mn4O4Te4
_chemical_formula_sum              "Co4 Mn4 O4 Te4"
_cell_length_a       5.95748
_cell_length_b       3.77031
_cell_length_c       12.8799
_cell_angle_alpha    90
_cell_angle_beta     90
_cell_angle_gamma    90

_space_group_name_H-M_alt    "P 1"
_space_group_IT_number       1

loop_
  _space_group_symop_operation_xyz
  'x, y, z'

loop_
  _atom_site_type_symbol
  _atom_site_label
  _atom_site_symmetry_multiplicity
  _atom_site_fract_x
  _atom_site_fract_y
  _atom_site_fract_z
  _atom_site_occupancy
  Co  Co1       1.0  0.59100  0.25000  0.21300  1.0000
  Co  Co2       1.0  0.09130  0.25000  0.28700  1.0000
  Co  Co3       1.0  0.90900  0.75000  0.71300  1.0000
  Co  Co4       1.0  0.40900  0.75000  0.78700  1.0000
  Mn  Mn1       1.0  0.26500  0.75000  0.09040  1.0000
  Mn  Mn2       1.0  0.76500  0.75000  0.41000  1.0000
  Mn  Mn3       1.0  0.23500  0.25000  0.59000  1.0000
  Mn  Mn4       1.0  0.73500  0.25000  0.91000  1.0000
  O   O1        1.0  0.27800  0.25000  0.16400  1.0000
  O   O2        1.0  0.77800  0.25000  0.33600  1.0000
  O   O3        1.0  0.22200  0.75000  0.66400  1.0000
  O   O4        1.0  0.72200  0.75000  0.83600  1.0000
  Te  Te1       1.0  0.77300  0.75000  0.09440  1.0000
  Te  Te2       1.0  0.27300  0.75000  0.40600  1.0000
  Te  Te3       1.0  0.72700  0.25000  0.59400  1.0000
  Te  Te4       1.0  0.22700  0.25000  0.90600  1.0000
