data_image0
_chemical_formula_structural       Hg4O2Te2
_chemical_formula_sum              "Hg4 O2 Te2"
_cell_length_a       3.76952
_cell_length_b       6.21205
_cell_length_c       7.55086
_cell_angle_alpha    90
_cell_angle_beta     75.5457
_cell_angle_gamma    90

_space_group_name_H-M_alt    "P 1"
_space_group_IT_number       1

loop_
  _space_group_symop_operation_xyz
  'x, y, z'

loop_
  _atom_site_type_symbol
  _atom_site_label
  _atom_site_symmetry_multiplicity
  _atom_site_fract_x
  _atom_site_fract_y
  _atom_site_fract_z
  _atom_site_occupancy
  Hg  Hg1       1.0  0.43400  0.75000  0.13200  1.0000
  Hg  Hg2       1.0  0.87900  0.25000  0.24200  1.0000
  Hg  Hg3       1.0  0.12100  0.75000  0.75800  1.0000
  Hg  Hg4       1.0  0.56600  0.25000  0.86800  1.0000
  O   O1        1.0  0.00000  0.00000  0.00000  1.0000
  O   O2        1.0  0.00000  0.50000  0.00000  1.0000
  Te  Te1       1.0  0.77300  0.75000  0.45400  1.0000
  Te  Te2       1.0  0.22700  0.25000  0.54600  1.0000
