data_image0
_chemical_formula_structural       Co4Cu4O4Te4
_chemical_formula_sum              "Co4 Cu4 O4 Te4"
_cell_length_a       6.07694
_cell_length_b       3.22221
_cell_length_c       13.3773
_cell_angle_alpha    90
_cell_angle_beta     90
_cell_angle_gamma    90

_space_group_name_H-M_alt    "P 1"
_space_group_IT_number       1

loop_
  _space_group_symop_operation_xyz
  'x, y, z'

loop_
  _atom_site_type_symbol
  _atom_site_label
  _atom_site_symmetry_multiplicity
  _atom_site_fract_x
  _atom_site_fract_y
  _atom_site_fract_z
  _atom_site_occupancy
  Co  Co1       1.0  0.22500  0.75000  0.08840  1.0000
  Co  Co2       1.0  0.72500  0.75000  0.41200  1.0000
  Co  Co3       1.0  0.27500  0.25000  0.58800  1.0000
  Co  Co4       1.0  0.77500  0.25000  0.91200  1.0000
  Cu  Cu1       1.0  0.55400  0.25000  0.23700  1.0000
  Cu  Cu2       1.0  0.05380  0.25000  0.26300  1.0000
  Cu  Cu3       1.0  0.94600  0.75000  0.73700  1.0000
  Cu  Cu4       1.0  0.44600  0.75000  0.76300  1.0000
  O   O1        1.0  0.28400  0.25000  0.16900  1.0000
  O   O2        1.0  0.78400  0.25000  0.33100  1.0000
  O   O3        1.0  0.21600  0.75000  0.66900  1.0000
  O   O4        1.0  0.71600  0.75000  0.83100  1.0000
  Te  Te1       1.0  0.77400  0.75000  0.08360  1.0000
  Te  Te2       1.0  0.27400  0.75000  0.41600  1.0000
  Te  Te3       1.0  0.72600  0.25000  0.58400  1.0000
  Te  Te4       1.0  0.22600  0.25000  0.91600  1.0000
