data_image0
_chemical_formula_structural       Cd4Co4O4Te4
_chemical_formula_sum              "Cd4 Co4 O4 Te4"
_cell_length_a       6.03331
_cell_length_b       3.96741
_cell_length_c       13.4003
_cell_angle_alpha    90
_cell_angle_beta     90
_cell_angle_gamma    90

_space_group_name_H-M_alt    "P 1"
_space_group_IT_number       1

loop_
  _space_group_symop_operation_xyz
  'x, y, z'

loop_
  _atom_site_type_symbol
  _atom_site_label
  _atom_site_symmetry_multiplicity
  _atom_site_fract_x
  _atom_site_fract_y
  _atom_site_fract_z
  _atom_site_occupancy
  Cd  Cd1       1.0  0.24700  0.75000  0.08930  1.0000
  Cd  Cd2       1.0  0.74700  0.75000  0.41100  1.0000
  Cd  Cd3       1.0  0.25300  0.25000  0.58900  1.0000
  Cd  Cd4       1.0  0.75300  0.25000  0.91100  1.0000
  Co  Co1       1.0  0.61200  0.25000  0.20500  1.0000
  Co  Co2       1.0  0.11200  0.25000  0.29500  1.0000
  Co  Co3       1.0  0.88800  0.75000  0.70500  1.0000
  Co  Co4       1.0  0.38800  0.75000  0.79500  1.0000
  O   O1        1.0  0.29300  0.25000  0.17800  1.0000
  O   O2        1.0  0.79300  0.25000  0.32200  1.0000
  O   O3        1.0  0.20700  0.75000  0.67800  1.0000
  O   O4        1.0  0.70700  0.75000  0.82200  1.0000
  Te  Te1       1.0  0.76300  0.75000  0.09020  1.0000
  Te  Te2       1.0  0.26300  0.75000  0.41000  1.0000
  Te  Te3       1.0  0.73700  0.25000  0.59000  1.0000
  Te  Te4       1.0  0.23700  0.25000  0.91000  1.0000
