data_image0
_chemical_formula_structural       Ge2Hf4
_chemical_formula_sum              "Ge2 Hf4"
_cell_length_a       5.31156
_cell_length_b       5.38216
_cell_length_c       5.38216
_cell_angle_alpha    104.092
_cell_angle_beta     60.433
_cell_angle_gamma    119.567

_space_group_name_H-M_alt    "P 1"
_space_group_IT_number       1

loop_
  _space_group_symop_operation_xyz
  'x, y, z'

loop_
  _atom_site_type_symbol
  _atom_site_label
  _atom_site_symmetry_multiplicity
  _atom_site_fract_x
  _atom_site_fract_y
  _atom_site_fract_z
  _atom_site_occupancy
  Ge  Ge1       1.0  0.25000  0.00000  0.00000  1.0000
  Ge  Ge2       1.0  0.75000  0.00000  0.00000  1.0000
  Hf  Hf1       1.0  0.15600  0.50000  0.18800  1.0000
  Hf  Hf2       1.0  0.65600  0.81200  0.50000  1.0000
  Hf  Hf3       1.0  0.34400  0.18800  0.50000  1.0000
  Hf  Hf4       1.0  0.84400  0.50000  0.81200  1.0000
