data_image0
_chemical_formula_structural       Cu2O3Sr
_chemical_formula_sum              "Cu2 O3 Sr1"
_cell_length_a       6.07629
_cell_length_b       3.92835
_cell_length_c       3.47091
_cell_angle_alpha    90
_cell_angle_beta     90
_cell_angle_gamma    108.86

_space_group_name_H-M_alt    "P 1"
_space_group_IT_number       1

loop_
  _space_group_symop_operation_xyz
  'x, y, z'

loop_
  _atom_site_type_symbol
  _atom_site_label
  _atom_site_symmetry_multiplicity
  _atom_site_fract_x
  _atom_site_fract_y
  _atom_site_fract_z
  _atom_site_occupancy
  Cu  Cu1       1.0  0.67000  0.33500  0.00000  1.0000
  Cu  Cu2       1.0  0.33000  0.66500  0.00000  1.0000
  O   O1        1.0  0.34100  0.17000  0.00000  1.0000
  O   O2        1.0  0.00000  0.50000  0.00000  1.0000
  O   O3        1.0  0.65900  0.83000  0.00000  1.0000
  Sr  Sr1       1.0  0.00000  0.00000  0.50000  1.0000
