data_image0
_chemical_formula_structural       Au2Ge2Na2
_chemical_formula_sum              "Au2 Ge2 Na2"
_cell_length_a       4.48299
_cell_length_b       5.74105
_cell_length_c       5.74105
_cell_angle_alpha    96.6971
_cell_angle_beta     112.981
_cell_angle_gamma    67.0185

_space_group_name_H-M_alt    "P 1"
_space_group_IT_number       1

loop_
  _space_group_symop_operation_xyz
  'x, y, z'

loop_
  _atom_site_type_symbol
  _atom_site_label
  _atom_site_symmetry_multiplicity
  _atom_site_fract_x
  _atom_site_fract_y
  _atom_site_fract_z
  _atom_site_occupancy
  Au  Au1       1.0  0.20300  0.79700  0.20300  1.0000
  Au  Au2       1.0  0.79700  0.20300  0.79700  1.0000
  Ge  Ge1       1.0  0.67700  0.64600  0.00000  1.0000
  Ge  Ge2       1.0  0.32300  0.00000  0.64600  1.0000
  Na  Na1       1.0  0.50000  0.22000  0.22000  1.0000
  Na  Na2       1.0  0.00000  0.59100  0.59100  1.0000
