data_image0
_chemical_formula_structural       Ge6La4Mg7
_chemical_formula_sum              "Ge6 La4 Mg7"
_cell_length_a       4.48608
_cell_length_b       8.73804
_cell_length_c       11.0799
_cell_angle_alpha    95.4031
_cell_angle_beta     101.68
_cell_angle_gamma    104.874

_space_group_name_H-M_alt    "P 1"
_space_group_IT_number       1

loop_
  _space_group_symop_operation_xyz
  'x, y, z'

loop_
  _atom_site_type_symbol
  _atom_site_label
  _atom_site_symmetry_multiplicity
  _atom_site_fract_x
  _atom_site_fract_y
  _atom_site_fract_z
  _atom_site_occupancy
  Ge  Ge1       1.0  0.87800  0.72900  0.02760  1.0000
  Ge  Ge2       1.0  0.70300  0.09620  0.30900  1.0000
  Ge  Ge3       1.0  0.47000  0.59000  0.35000  1.0000
  Ge  Ge4       1.0  0.53000  0.41000  0.65000  1.0000
  Ge  Ge5       1.0  0.29700  0.90400  0.69100  1.0000
  Ge  Ge6       1.0  0.12200  0.27100  0.97200  1.0000
  La  La1       1.0  0.79000  0.41900  0.16100  1.0000
  La  La2       1.0  0.12100  0.85500  0.38800  1.0000
  La  La3       1.0  0.87900  0.14500  0.61200  1.0000
  La  La4       1.0  0.21000  0.58100  0.83900  1.0000
  Mg  Mg1       1.0  0.09910  0.06060  0.13800  1.0000
  Mg  Mg2       1.0  0.46600  0.77800  0.15500  1.0000
  Mg  Mg3       1.0  0.33400  0.27400  0.39400  1.0000
  Mg  Mg4       1.0  0.00000  0.50000  0.50000  1.0000
  Mg  Mg5       1.0  0.66600  0.72600  0.60600  1.0000
  Mg  Mg6       1.0  0.53400  0.22200  0.84500  1.0000
  Mg  Mg7       1.0  0.90100  0.93900  0.86200  1.0000
