data_image0
_chemical_formula_structural       B2Ta4
_chemical_formula_sum              "B2 Ta4"
_cell_length_a       4.77749
_cell_length_b       4.77749
_cell_length_c       4.77749
_cell_angle_alpha    105.205
_cell_angle_beta     118.389
_cell_angle_gamma    105.205

_space_group_name_H-M_alt    "P 1"
_space_group_IT_number       1

loop_
  _space_group_symop_operation_xyz
  'x, y, z'

loop_
  _atom_site_type_symbol
  _atom_site_label
  _atom_site_symmetry_multiplicity
  _atom_site_fract_x
  _atom_site_fract_y
  _atom_site_fract_z
  _atom_site_occupancy
  B   B1        1.0  0.25000  0.00000  0.25000  1.0000
  B   B2        1.0  0.75000  0.00000  0.75000  1.0000
  Ta  Ta1       1.0  0.66700  0.83500  0.16700  1.0000
  Ta  Ta2       1.0  0.16700  0.50000  0.33300  1.0000
  Ta  Ta3       1.0  0.83300  0.50000  0.66700  1.0000
  Ta  Ta4       1.0  0.33300  0.16500  0.83300  1.0000
