data_image0
_chemical_formula_structural       H8Mg5O9
_chemical_formula_sum              "H8 Mg5 O9"
_cell_length_a       3.08786
_cell_length_b       3.08787
_cell_length_c       21.1828
_cell_angle_alpha    90
_cell_angle_beta     89.9977
_cell_angle_gamma    120

_space_group_name_H-M_alt    "P 1"
_space_group_IT_number       1

loop_
  _space_group_symop_operation_xyz
  'x, y, z'

loop_
  _atom_site_type_symbol
  _atom_site_label
  _atom_site_symmetry_multiplicity
  _atom_site_fract_x
  _atom_site_fract_y
  _atom_site_fract_z
  _atom_site_occupancy
  H   H1        1.0  0.66700  0.33300  0.15200  1.0000
  H   H2        1.0  0.33300  0.66700  0.18400  1.0000
  H   H3        1.0  0.66700  0.33300  0.37500  1.0000
  H   H4        1.0  0.33300  0.66700  0.40400  1.0000
  H   H5        1.0  0.66700  0.33300  0.59600  1.0000
  H   H6        1.0  0.33300  0.66700  0.62500  1.0000
  H   H7        1.0  0.66700  0.33300  0.81600  1.0000
  H   H8        1.0  0.33300  0.66700  0.84800  1.0000
  Mg  Mg1       1.0  0.33300  0.66700  0.05690  1.0000
  Mg  Mg2       1.0  0.00000  1.00000  0.27900  1.0000
  Mg  Mg3       1.0  0.00000  0.00000  0.50000  1.0000
  Mg  Mg4       1.0  0.00000  1.00000  0.72100  1.0000
  Mg  Mg5       1.0  0.66700  0.33300  0.94300  1.0000
  O   O1        1.0  0.00000  0.00000  0.00000  1.0000
  O   O2        1.0  0.66700  0.33300  0.10600  1.0000
  O   O3        1.0  0.33300  0.66700  0.23000  1.0000
  O   O4        1.0  0.66700  0.33300  0.32900  1.0000
  O   O5        1.0  0.33300  0.66700  0.45000  1.0000
  O   O6        1.0  0.66700  0.33300  0.55000  1.0000
  O   O7        1.0  0.33300  0.66700  0.67100  1.0000
  O   O8        1.0  0.66700  0.33300  0.77000  1.0000
  O   O9        1.0  0.33300  0.66700  0.89400  1.0000
