data_image0
_chemical_formula_structural       Sb4Ti2
_chemical_formula_sum              "Sb4 Ti2"
_cell_length_a       5.55856
_cell_length_b       5.55856
_cell_length_c       5.55856
_cell_angle_alpha    117.376
_cell_angle_beta     105.669
_cell_angle_gamma    105.669

_space_group_name_H-M_alt    "P 1"
_space_group_IT_number       1

loop_
  _space_group_symop_operation_xyz
  'x, y, z'

loop_
  _atom_site_type_symbol
  _atom_site_label
  _atom_site_symmetry_multiplicity
  _atom_site_fract_x
  _atom_site_fract_y
  _atom_site_fract_z
  _atom_site_occupancy
  Sb  Sb1       1.0  0.50000  0.34700  0.15300  1.0000
  Sb  Sb2       1.0  0.19400  0.84700  0.34700  1.0000
  Sb  Sb3       1.0  0.80600  0.15300  0.65300  1.0000
  Sb  Sb4       1.0  0.50000  0.65300  0.84700  1.0000
  Ti  Ti1       1.0  0.00000  0.25000  0.25000  1.0000
  Ti  Ti2       1.0  0.00000  0.75000  0.75000  1.0000
