data_image0
_chemical_formula_structural       As20Ba8In20
_chemical_formula_sum              "As20 Ba8 In20"
_cell_length_a       17.7128
_cell_length_b       4.34769
_cell_length_c       18.1819
_cell_angle_alpha    90
_cell_angle_beta     90
_cell_angle_gamma    90

_space_group_name_H-M_alt    "P 1"
_space_group_IT_number       1

loop_
  _space_group_symop_operation_xyz
  'x, y, z'

loop_
  _atom_site_type_symbol
  _atom_site_label
  _atom_site_symmetry_multiplicity
  _atom_site_fract_x
  _atom_site_fract_y
  _atom_site_fract_z
  _atom_site_occupancy
  As  As1       1.0  0.38600  0.25000  0.01180  1.0000
  As  As2       1.0  0.91900  0.75000  0.05690  1.0000
  As  As3       1.0  0.19500  0.75000  0.12600  1.0000
  As  As4       1.0  0.60200  0.25000  0.19100  1.0000
  As  As5       1.0  0.39400  0.25000  0.23700  1.0000
  As  As6       1.0  0.89400  0.25000  0.26300  1.0000
  As  As7       1.0  0.10200  0.25000  0.30900  1.0000
  As  As8       1.0  0.69500  0.75000  0.37400  1.0000
  As  As9       1.0  0.41900  0.75000  0.44300  1.0000
  As  As10      1.0  0.88600  0.25000  0.48800  1.0000
  As  As11      1.0  0.11400  0.75000  0.51200  1.0000
  As  As12      1.0  0.58100  0.25000  0.55700  1.0000
  As  As13      1.0  0.30500  0.25000  0.62600  1.0000
  As  As14      1.0  0.89800  0.75000  0.69100  1.0000
  As  As15      1.0  0.10600  0.75000  0.73700  1.0000
  As  As16      1.0  0.60600  0.75000  0.76300  1.0000
  As  As17      1.0  0.39800  0.75000  0.80900  1.0000
  As  As18      1.0  0.80500  0.25000  0.87400  1.0000
  As  As19      1.0  0.08070  0.25000  0.94300  1.0000
  As  As20      1.0  0.61400  0.75000  0.98800  1.0000
  Ba  Ba1       1.0  0.47900  0.75000  0.12100  1.0000
  Ba  Ba2       1.0  0.04270  0.25000  0.13000  1.0000
  Ba  Ba3       1.0  0.54300  0.25000  0.37000  1.0000
  Ba  Ba4       1.0  0.97900  0.75000  0.37900  1.0000
  Ba  Ba5       1.0  0.02080  0.25000  0.62100  1.0000
  Ba  Ba6       1.0  0.45700  0.75000  0.63000  1.0000
  Ba  Ba7       1.0  0.95700  0.75000  0.87000  1.0000
  Ba  Ba8       1.0  0.52100  0.25000  0.87900  1.0000
  In  In1       1.0  0.83000  0.25000  0.02840  1.0000
  In  In2       1.0  0.67300  0.25000  0.05860  1.0000
  In  In3       1.0  0.28900  0.25000  0.12700  1.0000
  In  In4       1.0  0.84300  0.75000  0.18800  1.0000
  In  In5       1.0  0.68800  0.75000  0.22100  1.0000
  In  In6       1.0  0.18800  0.75000  0.27900  1.0000
  In  In7       1.0  0.34300  0.75000  0.31200  1.0000
  In  In8       1.0  0.78900  0.25000  0.37300  1.0000
  In  In9       1.0  0.17300  0.25000  0.44100  1.0000
  In  In10      1.0  0.33000  0.25000  0.47200  1.0000
  In  In11      1.0  0.67000  0.75000  0.52800  1.0000
  In  In12      1.0  0.82700  0.75000  0.55900  1.0000
  In  In13      1.0  0.21100  0.75000  0.62700  1.0000
  In  In14      1.0  0.65700  0.25000  0.68800  1.0000
  In  In15      1.0  0.81200  0.25000  0.72100  1.0000
  In  In16      1.0  0.31200  0.25000  0.77900  1.0000
  In  In17      1.0  0.15700  0.25000  0.81200  1.0000
  In  In18      1.0  0.71100  0.75000  0.87300  1.0000
  In  In19      1.0  0.32700  0.75000  0.94100  1.0000
  In  In20      1.0  0.17000  0.75000  0.97200  1.0000
