data_image0
_chemical_formula_structural       Ba12S28Sn8
_chemical_formula_sum              "Ba12 S28 Sn8"
_cell_length_a       11.2175
_cell_length_b       6.87401
_cell_length_c       18.9279
_cell_angle_alpha    90
_cell_angle_beta     100.466
_cell_angle_gamma    90

_space_group_name_H-M_alt    "P 1"
_space_group_IT_number       1

loop_
  _space_group_symop_operation_xyz
  'x, y, z'

loop_
  _atom_site_type_symbol
  _atom_site_label
  _atom_site_symmetry_multiplicity
  _atom_site_fract_x
  _atom_site_fract_y
  _atom_site_fract_z
  _atom_site_occupancy
  Ba  Ba1       1.0  0.51200  0.71800  0.10900  1.0000
  Ba  Ba2       1.0  0.94200  0.76400  0.11200  1.0000
  Ba  Ba3       1.0  0.25600  0.27500  0.16500  1.0000
  Ba  Ba4       1.0  0.74400  0.77500  0.33500  1.0000
  Ba  Ba5       1.0  0.05760  0.26400  0.38800  1.0000
  Ba  Ba6       1.0  0.48800  0.21800  0.39100  1.0000
  Ba  Ba7       1.0  0.51200  0.78200  0.60900  1.0000
  Ba  Ba8       1.0  0.94200  0.73600  0.61200  1.0000
  Ba  Ba9       1.0  0.25600  0.22500  0.66500  1.0000
  Ba  Ba10      1.0  0.74400  0.72500  0.83500  1.0000
  Ba  Ba11      1.0  0.05760  0.23600  0.88800  1.0000
  Ba  Ba12      1.0  0.48800  0.28200  0.89100  1.0000
  S   S1        1.0  0.31900  0.40600  0.01120  1.0000
  S   S2        1.0  0.99900  0.27600  0.05990  1.0000
  S   S3        1.0  0.67700  0.07400  0.06860  1.0000
  S   S4        1.0  0.23300  0.82200  0.11800  1.0000
  S   S5        1.0  0.75000  0.54200  0.19300  1.0000
  S   S6        1.0  0.54800  0.05620  0.23200  1.0000
  S   S7        1.0  0.90500  0.02660  0.24700  1.0000
  S   S8        1.0  0.09460  0.52700  0.25300  1.0000
  S   S9        1.0  0.45200  0.55600  0.26800  1.0000
  S   S10       1.0  0.25000  0.04240  0.30700  1.0000
  S   S11       1.0  0.76700  0.32200  0.38200  1.0000
  S   S12       1.0  0.32300  0.57400  0.43100  1.0000
  S   S13       1.0  0.00092  0.77600  0.44000  1.0000
  S   S14       1.0  0.68100  0.90600  0.48900  1.0000
  S   S15       1.0  0.31900  0.09380  0.51100  1.0000
  S   S16       1.0  0.99900  0.22400  0.56000  1.0000
  S   S17       1.0  0.67700  0.42600  0.56900  1.0000
  S   S18       1.0  0.23300  0.67800  0.61800  1.0000
  S   S19       1.0  0.75000  0.95800  0.69300  1.0000
  S   S20       1.0  0.54800  0.44400  0.73200  1.0000
  S   S21       1.0  0.90500  0.47300  0.74700  1.0000
  S   S22       1.0  0.09460  0.97300  0.75300  1.0000
  S   S23       1.0  0.45200  0.94400  0.76800  1.0000
  S   S24       1.0  0.25000  0.45800  0.80700  1.0000
  S   S25       1.0  0.76700  0.17800  0.88200  1.0000
  S   S26       1.0  0.32300  0.92600  0.93100  1.0000
  S   S27       1.0  0.00092  0.72400  0.94000  1.0000
  S   S28       1.0  0.68100  0.59400  0.98900  1.0000
  Sn  Sn1       1.0  0.79400  0.29400  0.00356  1.0000
  Sn  Sn2       1.0  0.72600  0.19800  0.19600  1.0000
  Sn  Sn3       1.0  0.27400  0.69800  0.30400  1.0000
  Sn  Sn4       1.0  0.20600  0.79400  0.49600  1.0000
  Sn  Sn5       1.0  0.79400  0.20600  0.50400  1.0000
  Sn  Sn6       1.0  0.72600  0.30200  0.69600  1.0000
  Sn  Sn7       1.0  0.27400  0.80200  0.80400  1.0000
  Sn  Sn8       1.0  0.20600  0.70600  0.99600  1.0000
