data_image0
_chemical_formula_structural       Au16Na16S16
_chemical_formula_sum              "Au16 Na16 S16"
_cell_length_a       7.1501
_cell_length_b       12.9819
_cell_length_c       12.9819
_cell_angle_alpha    110.532
_cell_angle_beta     90
_cell_angle_gamma    90

_space_group_name_H-M_alt    "P 1"
_space_group_IT_number       1

loop_
  _space_group_symop_operation_xyz
  'x, y, z'

loop_
  _atom_site_type_symbol
  _atom_site_label
  _atom_site_symmetry_multiplicity
  _atom_site_fract_x
  _atom_site_fract_y
  _atom_site_fract_z
  _atom_site_occupancy
  Au  Au1       1.0  0.00000  0.00000  0.00000  1.0000
  Au  Au2       1.0  0.50000  0.00000  0.00000  1.0000
  Au  Au3       1.0  0.22100  0.75000  0.00383  1.0000
  Au  Au4       1.0  0.27900  0.99600  0.25000  1.0000
  Au  Au5       1.0  0.02790  0.75000  0.25000  1.0000
  Au  Au6       1.0  0.47200  0.75000  0.25000  1.0000
  Au  Au7       1.0  0.27900  0.50400  0.25000  1.0000
  Au  Au8       1.0  0.22100  0.75000  0.49600  1.0000
  Au  Au9       1.0  0.00000  0.50000  0.50000  1.0000
  Au  Au10      1.0  0.50000  0.50000  0.50000  1.0000
  Au  Au11      1.0  0.77900  0.25000  0.50400  1.0000
  Au  Au12      1.0  0.72100  0.49600  0.75000  1.0000
  Au  Au13      1.0  0.52800  0.25000  0.75000  1.0000
  Au  Au14      1.0  0.97200  0.25000  0.75000  1.0000
  Au  Au15      1.0  0.72100  0.00383  0.75000  1.0000
  Au  Au16      1.0  0.77900  0.25000  0.99600  1.0000
  Na  Na1       1.0  0.75000  0.50200  0.00212  1.0000
  Na  Na2       1.0  0.41200  0.25300  0.12300  1.0000
  Na  Na3       1.0  0.75000  0.86300  0.13700  1.0000
  Na  Na4       1.0  0.91200  0.37700  0.24700  1.0000
  Na  Na5       1.0  0.91200  0.12300  0.25300  1.0000
  Na  Na6       1.0  0.75000  0.63700  0.36300  1.0000
  Na  Na7       1.0  0.41200  0.24700  0.37700  1.0000
  Na  Na8       1.0  0.75000  0.99800  0.49800  1.0000
  Na  Na9       1.0  0.25000  0.00212  0.50200  1.0000
  Na  Na10      1.0  0.58800  0.75300  0.62300  1.0000
  Na  Na11      1.0  0.25000  0.36300  0.63700  1.0000
  Na  Na12      1.0  0.08820  0.87700  0.74700  1.0000
  Na  Na13      1.0  0.08820  0.62300  0.75300  1.0000
  Na  Na14      1.0  0.25000  0.13700  0.86300  1.0000
  Na  Na15      1.0  0.58800  0.74700  0.87700  1.0000
  Na  Na16      1.0  0.25000  0.49800  0.99800  1.0000
  S   S1        1.0  0.49300  0.68200  0.05800  1.0000
  S   S2        1.0  0.03740  0.19000  0.06910  1.0000
  S   S3        1.0  0.00709  0.55800  0.18200  1.0000
  S   S4        1.0  0.53700  0.06910  0.19000  1.0000
  S   S5        1.0  0.53700  0.43100  0.31000  1.0000
  S   S6        1.0  0.00709  0.94200  0.31800  1.0000
  S   S7        1.0  0.03740  0.31000  0.43100  1.0000
  S   S8        1.0  0.49300  0.81800  0.44200  1.0000
  S   S9        1.0  0.50700  0.18200  0.55800  1.0000
  S   S10       1.0  0.96300  0.69000  0.56900  1.0000
  S   S11       1.0  0.99300  0.05800  0.68200  1.0000
  S   S12       1.0  0.46300  0.56900  0.69000  1.0000
  S   S13       1.0  0.46300  0.93100  0.81000  1.0000
  S   S14       1.0  0.99300  0.44200  0.81800  1.0000
  S   S15       1.0  0.96300  0.81000  0.93100  1.0000
  S   S16       1.0  0.50700  0.31800  0.94200  1.0000
