data_image0
_chemical_formula_structural       B8H8Mg8O24
_chemical_formula_sum              "B8 H8 Mg8 O24"
_cell_length_a       12.5457
_cell_length_b       10.349
_cell_length_c       3.08885
_cell_angle_alpha    90
_cell_angle_beta     95.9568
_cell_angle_gamma    90

_space_group_name_H-M_alt    "P 1"
_space_group_IT_number       1

loop_
  _space_group_symop_operation_xyz
  'x, y, z'

loop_
  _atom_site_type_symbol
  _atom_site_label
  _atom_site_symmetry_multiplicity
  _atom_site_fract_x
  _atom_site_fract_y
  _atom_site_fract_z
  _atom_site_occupancy
  B   B1        1.0  0.86200  0.83100  0.23500  1.0000
  B   B2        1.0  0.36200  0.66900  0.23500  1.0000
  B   B3        1.0  0.69300  0.95200  0.37500  1.0000
  B   B4        1.0  0.19300  0.54800  0.37500  1.0000
  B   B5        1.0  0.80700  0.45200  0.62500  1.0000
  B   B6        1.0  0.30700  0.04790  0.62500  1.0000
  B   B7        1.0  0.63800  0.33100  0.76500  1.0000
  B   B8        1.0  0.13800  0.16900  0.76500  1.0000
  H   H1        1.0  0.83700  0.24500  0.13600  1.0000
  H   H2        1.0  0.33700  0.25500  0.13600  1.0000
  H   H3        1.0  0.80800  0.62000  0.30700  1.0000
  H   H4        1.0  0.30800  0.88000  0.30700  1.0000
  H   H5        1.0  0.69200  0.12000  0.69300  1.0000
  H   H6        1.0  0.19200  0.38000  0.69300  1.0000
  H   H7        1.0  0.66300  0.74500  0.86400  1.0000
  H   H8        1.0  0.16300  0.75500  0.86400  1.0000
  Mg  Mg1       1.0  0.50400  0.13600  0.24000  1.0000
  Mg  Mg2       1.0  0.00422  0.36400  0.24000  1.0000
  Mg  Mg3       1.0  0.58800  0.57900  0.29000  1.0000
  Mg  Mg4       1.0  0.08840  0.92100  0.29000  1.0000
  Mg  Mg5       1.0  0.91200  0.07870  0.71000  1.0000
  Mg  Mg6       1.0  0.41200  0.42100  0.71000  1.0000
  Mg  Mg7       1.0  0.99600  0.63600  0.76000  1.0000
  Mg  Mg8       1.0  0.49600  0.86400  0.76000  1.0000
  O   O1        1.0  0.40800  0.29400  0.20800  1.0000
  O   O2        1.0  0.90800  0.20600  0.20800  1.0000
  O   O3        1.0  0.92400  0.93700  0.21900  1.0000
  O   O4        1.0  0.42400  0.56300  0.21900  1.0000
  O   O5        1.0  0.89900  0.70600  0.21900  1.0000
  O   O6        1.0  0.39900  0.79400  0.21900  1.0000
  O   O7        1.0  0.75100  0.84400  0.27000  1.0000
  O   O8        1.0  0.25100  0.65600  0.27000  1.0000
  O   O9        1.0  0.58500  0.95600  0.28100  1.0000
  O   O10       1.0  0.08470  0.54400  0.28100  1.0000
  O   O11       1.0  0.75300  0.55100  0.39200  1.0000
  O   O12       1.0  0.25300  0.94900  0.39200  1.0000
  O   O13       1.0  0.74700  0.05100  0.60800  1.0000
  O   O14       1.0  0.24700  0.44900  0.60800  1.0000
  O   O15       1.0  0.91500  0.45600  0.71900  1.0000
  O   O16       1.0  0.41500  0.04360  0.71900  1.0000
  O   O17       1.0  0.74900  0.34400  0.73000  1.0000
  O   O18       1.0  0.24900  0.15600  0.73000  1.0000
  O   O19       1.0  0.60100  0.20600  0.78100  1.0000
  O   O20       1.0  0.10100  0.29400  0.78100  1.0000
  O   O21       1.0  0.57600  0.43700  0.78100  1.0000
  O   O22       1.0  0.07580  0.06260  0.78100  1.0000
  O   O23       1.0  0.09200  0.79400  0.79200  1.0000
  O   O24       1.0  0.59200  0.70600  0.79200  1.0000
