data_image0
_chemical_formula_structural       Bi4Sn4
_chemical_formula_sum              "Bi4 Sn4"
_cell_length_a       6.36056
_cell_length_b       6.36056
_cell_length_c       6.55057
_cell_angle_alpha    90
_cell_angle_beta     90
_cell_angle_gamma    117.603

_space_group_name_H-M_alt    "P 1"
_space_group_IT_number       1

loop_
  _space_group_symop_operation_xyz
  'x, y, z'

loop_
  _atom_site_type_symbol
  _atom_site_label
  _atom_site_symmetry_multiplicity
  _atom_site_fract_x
  _atom_site_fract_y
  _atom_site_fract_z
  _atom_site_occupancy
  Bi  Bi1       1.0  0.32800  0.32800  0.18200  1.0000
  Bi  Bi2       1.0  0.82800  0.82800  0.31800  1.0000
  Bi  Bi3       1.0  0.17200  0.17200  0.68200  1.0000
  Bi  Bi4       1.0  0.67200  0.67200  0.81800  1.0000
  Sn  Sn1       1.0  0.77700  0.22300  0.00000  1.0000
  Sn  Sn2       1.0  0.22300  0.77700  0.00000  1.0000
  Sn  Sn3       1.0  0.72300  0.27700  0.50000  1.0000
  Sn  Sn4       1.0  0.27700  0.72300  0.50000  1.0000
