data_image0
_chemical_formula_structural       Ba4Mg2O14Si4
_chemical_formula_sum              "Ba4 Mg2 O14 Si4"
_cell_length_a       8.19419
_cell_length_b       8.19419
_cell_length_c       5.40289
_cell_angle_alpha    90
_cell_angle_beta     90
_cell_angle_gamma    90

_space_group_name_H-M_alt    "P 1"
_space_group_IT_number       1

loop_
  _space_group_symop_operation_xyz
  'x, y, z'

loop_
  _atom_site_type_symbol
  _atom_site_label
  _atom_site_symmetry_multiplicity
  _atom_site_fract_x
  _atom_site_fract_y
  _atom_site_fract_z
  _atom_site_occupancy
  Ba  Ba1       1.0  0.83600  0.33600  0.49000  1.0000
  Ba  Ba2       1.0  0.16400  0.66400  0.49000  1.0000
  Ba  Ba3       1.0  0.33600  0.16400  0.51000  1.0000
  Ba  Ba4       1.0  0.66400  0.83600  0.51000  1.0000
  Mg  Mg1       1.0  0.00000  0.00000  0.00000  1.0000
  Mg  Mg2       1.0  0.50000  0.50000  0.00000  1.0000
  O   O1        1.0  0.50000  0.00000  0.14000  1.0000
  O   O2        1.0  0.80700  0.07710  0.17900  1.0000
  O   O3        1.0  0.57700  0.30700  0.17900  1.0000
  O   O4        1.0  0.42300  0.69300  0.17900  1.0000
  O   O5        1.0  0.19300  0.92300  0.17900  1.0000
  O   O6        1.0  0.14100  0.35900  0.25500  1.0000
  O   O7        1.0  0.85900  0.64100  0.25500  1.0000
  O   O8        1.0  0.64100  0.14100  0.74500  1.0000
  O   O9        1.0  0.35900  0.85900  0.74500  1.0000
  O   O10       1.0  0.07710  0.19300  0.82100  1.0000
  O   O11       1.0  0.30700  0.42300  0.82100  1.0000
  O   O12       1.0  0.69300  0.57700  0.82100  1.0000
  O   O13       1.0  0.92300  0.80700  0.82100  1.0000
  O   O14       1.0  0.00000  0.50000  0.86000  1.0000
  Si  Si1       1.0  0.63800  0.13800  0.04430  1.0000
  Si  Si2       1.0  0.36200  0.86200  0.04430  1.0000
  Si  Si3       1.0  0.13800  0.36200  0.95600  1.0000
  Si  Si4       1.0  0.86200  0.63800  0.95600  1.0000
