data_image0
_chemical_formula_structural       Ca4Sb2
_chemical_formula_sum              "Ca4 Sb2"
_cell_length_a       4.76995
_cell_length_b       4.76995
_cell_length_c       9.01733
_cell_angle_alpha    105.337
_cell_angle_beta     105.337
_cell_angle_gamma    90

_space_group_name_H-M_alt    "P 1"
_space_group_IT_number       1

loop_
  _space_group_symop_operation_xyz
  'x, y, z'

loop_
  _atom_site_type_symbol
  _atom_site_label
  _atom_site_symmetry_multiplicity
  _atom_site_fract_x
  _atom_site_fract_y
  _atom_site_fract_z
  _atom_site_occupancy
  Ca  Ca1       1.0  0.50000  0.00000  0.00000  1.0000
  Ca  Ca2       1.0  0.00000  0.50000  0.00000  1.0000
  Ca  Ca3       1.0  0.67500  0.67500  0.34900  1.0000
  Ca  Ca4       1.0  0.32500  0.32500  0.65100  1.0000
  Sb  Sb1       1.0  0.13600  0.13600  0.27200  1.0000
  Sb  Sb2       1.0  0.86400  0.86400  0.72800  1.0000
