data_image0
_chemical_formula_structural       Be2Bi4
_chemical_formula_sum              "Be2 Bi4"
_cell_length_a       6.72642
_cell_length_b       5.74641
_cell_length_c       3.72554
_cell_angle_alpha    90
_cell_angle_beta     90
_cell_angle_gamma    90

_space_group_name_H-M_alt    "P 1"
_space_group_IT_number       1

loop_
  _space_group_symop_operation_xyz
  'x, y, z'

loop_
  _atom_site_type_symbol
  _atom_site_label
  _atom_site_symmetry_multiplicity
  _atom_site_fract_x
  _atom_site_fract_y
  _atom_site_fract_z
  _atom_site_occupancy
  Be  Be1       1.0  0.50000  0.50000  0.00000  1.0000
  Be  Be2       1.0  0.00000  0.00000  0.50000  1.0000
  Bi  Bi1       1.0  0.14700  0.28800  0.00000  1.0000
  Bi  Bi2       1.0  0.85300  0.71200  0.00000  1.0000
  Bi  Bi3       1.0  0.64700  0.21200  0.50000  1.0000
  Bi  Bi4       1.0  0.35300  0.78800  0.50000  1.0000
