data_image0
_chemical_formula_structural       Bi4Hg2
_chemical_formula_sum              "Bi4 Hg2"
_cell_length_a       7.7453
_cell_length_b       6.88452
_cell_length_c       3.47956
_cell_angle_alpha    90
_cell_angle_beta     90
_cell_angle_gamma    90

_space_group_name_H-M_alt    "P 1"
_space_group_IT_number       1

loop_
  _space_group_symop_operation_xyz
  'x, y, z'

loop_
  _atom_site_type_symbol
  _atom_site_label
  _atom_site_symmetry_multiplicity
  _atom_site_fract_x
  _atom_site_fract_y
  _atom_site_fract_z
  _atom_site_occupancy
  Bi  Bi1       1.0  0.14100  0.34400  0.00000  1.0000
  Bi  Bi2       1.0  0.85900  0.65600  0.00000  1.0000
  Bi  Bi3       1.0  0.64100  0.15600  0.50000  1.0000
  Bi  Bi4       1.0  0.35900  0.84400  0.50000  1.0000
  Hg  Hg1       1.0  0.50000  0.50000  0.00000  1.0000
  Hg  Hg2       1.0  0.00000  0.00000  0.50000  1.0000
