data_image0
_chemical_formula_structural       Bi4Gd2
_chemical_formula_sum              "Bi4 Gd2"
_cell_length_a       8.27664
_cell_length_b       7.00075
_cell_length_c       3.58799
_cell_angle_alpha    90
_cell_angle_beta     90
_cell_angle_gamma    90

_space_group_name_H-M_alt    "P 1"
_space_group_IT_number       1

loop_
  _space_group_symop_operation_xyz
  'x, y, z'

loop_
  _atom_site_type_symbol
  _atom_site_label
  _atom_site_symmetry_multiplicity
  _atom_site_fract_x
  _atom_site_fract_y
  _atom_site_fract_z
  _atom_site_occupancy
  Bi  Bi1       1.0  0.13600  0.35300  0.00000  1.0000
  Bi  Bi2       1.0  0.86400  0.64700  0.00000  1.0000
  Bi  Bi3       1.0  0.63600  0.14700  0.50000  1.0000
  Bi  Bi4       1.0  0.36400  0.85300  0.50000  1.0000
  Gd  Gd1       1.0  0.50000  0.50000  0.00000  1.0000
  Gd  Gd2       1.0  0.00000  0.00000  0.50000  1.0000
