data_image0
_chemical_formula_structural       Ce4Rh30Si14
_chemical_formula_sum              "Ce4 Rh30 Si14"
_cell_length_a       8.9716
_cell_length_b       8.9716
_cell_length_c       8.9716
_cell_angle_alpha    90
_cell_angle_beta     90
_cell_angle_gamma    90

_space_group_name_H-M_alt    "P 1"
_space_group_IT_number       1

loop_
  _space_group_symop_operation_xyz
  'x, y, z'

loop_
  _atom_site_type_symbol
  _atom_site_label
  _atom_site_symmetry_multiplicity
  _atom_site_fract_x
  _atom_site_fract_y
  _atom_site_fract_z
  _atom_site_occupancy
  Ce  Ce1       1.0  0.50000  0.00000  0.00000  1.0000
  Ce  Ce2       1.0  0.00000  0.50000  0.00000  1.0000
  Ce  Ce3       1.0  0.00000  0.00000  0.50000  1.0000
  Ce  Ce4       1.0  0.50000  0.50000  0.50000  1.0000
  Rh  Rh1       1.0  0.21100  0.00000  0.00000  1.0000
  Rh  Rh2       1.0  0.78900  0.00000  0.00000  1.0000
  Rh  Rh3       1.0  0.00000  0.21100  0.00000  1.0000
  Rh  Rh4       1.0  0.32300  0.32300  0.00000  1.0000
  Rh  Rh5       1.0  0.67700  0.32300  0.00000  1.0000
  Rh  Rh6       1.0  0.32300  0.67700  0.00000  1.0000
  Rh  Rh7       1.0  0.67700  0.67700  0.00000  1.0000
  Rh  Rh8       1.0  0.00000  0.78900  0.00000  1.0000
  Rh  Rh9       1.0  0.00000  0.00000  0.21100  1.0000
  Rh  Rh10      1.0  0.50000  0.25900  0.25900  1.0000
  Rh  Rh11      1.0  0.25900  0.50000  0.25900  1.0000
  Rh  Rh12      1.0  0.74100  0.50000  0.25900  1.0000
  Rh  Rh13      1.0  0.50000  0.74100  0.25900  1.0000
  Rh  Rh14      1.0  0.32300  0.00000  0.32300  1.0000
  Rh  Rh15      1.0  0.67700  0.00000  0.32300  1.0000
  Rh  Rh16      1.0  0.00000  0.32300  0.32300  1.0000
  Rh  Rh17      1.0  0.00000  0.67700  0.32300  1.0000
  Rh  Rh18      1.0  0.25900  0.25900  0.50000  1.0000
  Rh  Rh19      1.0  0.74100  0.25900  0.50000  1.0000
  Rh  Rh20      1.0  0.25900  0.74100  0.50000  1.0000
  Rh  Rh21      1.0  0.74100  0.74100  0.50000  1.0000
  Rh  Rh22      1.0  0.32300  0.00000  0.67700  1.0000
  Rh  Rh23      1.0  0.67700  0.00000  0.67700  1.0000
  Rh  Rh24      1.0  0.00000  0.32300  0.67700  1.0000
  Rh  Rh25      1.0  0.00000  0.67700  0.67700  1.0000
  Rh  Rh26      1.0  0.50000  0.25900  0.74100  1.0000
  Rh  Rh27      1.0  0.25900  0.50000  0.74100  1.0000
  Rh  Rh28      1.0  0.74100  0.50000  0.74100  1.0000
  Rh  Rh29      1.0  0.50000  0.74100  0.74100  1.0000
  Rh  Rh30      1.0  0.00000  0.00000  0.78900  1.0000
  Si  Si1       1.0  0.50000  0.50000  0.13800  1.0000
  Si  Si2       1.0  0.21200  0.21200  0.21200  1.0000
  Si  Si3       1.0  0.78800  0.21200  0.21200  1.0000
  Si  Si4       1.0  0.21200  0.78800  0.21200  1.0000
  Si  Si5       1.0  0.78800  0.78800  0.21200  1.0000
  Si  Si6       1.0  0.50000  0.13800  0.50000  1.0000
  Si  Si7       1.0  0.13800  0.50000  0.50000  1.0000
  Si  Si8       1.0  0.86200  0.50000  0.50000  1.0000
  Si  Si9       1.0  0.50000  0.86200  0.50000  1.0000
  Si  Si10      1.0  0.21200  0.21200  0.78800  1.0000
  Si  Si11      1.0  0.78800  0.21200  0.78800  1.0000
  Si  Si12      1.0  0.21200  0.78800  0.78800  1.0000
  Si  Si13      1.0  0.78800  0.78800  0.78800  1.0000
  Si  Si14      1.0  0.50000  0.50000  0.86200  1.0000
