data_image0
_chemical_formula_structural       O32Pr12Re4
_chemical_formula_sum              "O32 Pr12 Re4"
_cell_length_a       14.9229
_cell_length_b       7.45063
_cell_length_c       6.17799
_cell_angle_alpha    90
_cell_angle_beta     90
_cell_angle_gamma    110.299

_space_group_name_H-M_alt    "P 1"
_space_group_IT_number       1

loop_
  _space_group_symop_operation_xyz
  'x, y, z'

loop_
  _atom_site_type_symbol
  _atom_site_label
  _atom_site_symmetry_multiplicity
  _atom_site_fract_x
  _atom_site_fract_y
  _atom_site_fract_z
  _atom_site_occupancy
  O   O1        1.0  0.17300  0.31500  0.02660  1.0000
  O   O2        1.0  0.34000  0.64400  0.02660  1.0000
  O   O3        1.0  0.59500  0.75100  0.04150  1.0000
  O   O4        1.0  0.09140  0.87300  0.04920  1.0000
  O   O5        1.0  0.83100  0.33100  0.15800  1.0000
  O   O6        1.0  0.01760  0.40500  0.19900  1.0000
  O   O7        1.0  0.47900  0.02510  0.20100  1.0000
  O   O8        1.0  0.29100  0.97200  0.20400  1.0000
  O   O9        1.0  0.79100  0.97200  0.29600  1.0000
  O   O10       1.0  0.97900  0.02510  0.29900  1.0000
  O   O11       1.0  0.51800  0.40500  0.30100  1.0000
  O   O12       1.0  0.33100  0.33100  0.34200  1.0000
  O   O13       1.0  0.59100  0.87300  0.45100  1.0000
  O   O14       1.0  0.09520  0.75100  0.45900  1.0000
  O   O15       1.0  0.84000  0.64400  0.47300  1.0000
  O   O16       1.0  0.67300  0.31500  0.47300  1.0000
  O   O17       1.0  0.32700  0.68500  0.52700  1.0000
  O   O18       1.0  0.16000  0.35600  0.52700  1.0000
  O   O19       1.0  0.90500  0.24900  0.54100  1.0000
  O   O20       1.0  0.40900  0.12700  0.54900  1.0000
  O   O21       1.0  0.66900  0.66900  0.65800  1.0000
  O   O22       1.0  0.48200  0.59500  0.69900  1.0000
  O   O23       1.0  0.02110  0.97500  0.70100  1.0000
  O   O24       1.0  0.20900  0.02800  0.70400  1.0000
  O   O25       1.0  0.70900  0.02800  0.79600  1.0000
  O   O26       1.0  0.52100  0.97500  0.79900  1.0000
  O   O27       1.0  0.98200  0.59500  0.80100  1.0000
  O   O28       1.0  0.16900  0.66900  0.84200  1.0000
  O   O29       1.0  0.90900  0.12700  0.95100  1.0000
  O   O30       1.0  0.40500  0.24900  0.95900  1.0000
  O   O31       1.0  0.66000  0.35600  0.97300  1.0000
  O   O32       1.0  0.82700  0.68500  0.97300  1.0000
  Pr  Pr1       1.0  0.66600  0.10300  0.18800  1.0000
  Pr  Pr2       1.0  0.94700  0.66200  0.20400  1.0000
  Pr  Pr3       1.0  0.70000  0.59900  0.24200  1.0000
  Pr  Pr4       1.0  0.20000  0.59900  0.25800  1.0000
  Pr  Pr5       1.0  0.44700  0.66200  0.29600  1.0000
  Pr  Pr6       1.0  0.16600  0.10300  0.31200  1.0000
  Pr  Pr7       1.0  0.83400  0.89700  0.68800  1.0000
  Pr  Pr8       1.0  0.55300  0.33800  0.70400  1.0000
  Pr  Pr9       1.0  0.80000  0.40100  0.74200  1.0000
  Pr  Pr10      1.0  0.30000  0.40100  0.75800  1.0000
  Pr  Pr11      1.0  0.05300  0.33800  0.79600  1.0000
  Pr  Pr12      1.0  0.33400  0.89700  0.81200  1.0000
  Re  Re1       1.0  0.90900  0.18000  0.24600  1.0000
  Re  Re2       1.0  0.40900  0.18000  0.25400  1.0000
  Re  Re3       1.0  0.59100  0.82000  0.74600  1.0000
  Re  Re4       1.0  0.09100  0.82000  0.75400  1.0000
