data_image0
_chemical_formula_structural       B14Cl2Li10O25
_chemical_formula_sum              "B14 Cl2 Li10 O25"
_cell_length_a       8.41504
_cell_length_b       8.41504
_cell_length_c       8.41504
_cell_angle_alpha    60
_cell_angle_beta     60
_cell_angle_gamma    60

_space_group_name_H-M_alt    "P 1"
_space_group_IT_number       1

loop_
  _space_group_symop_operation_xyz
  'x, y, z'

loop_
  _atom_site_type_symbol
  _atom_site_label
  _atom_site_symmetry_multiplicity
  _atom_site_fract_x
  _atom_site_fract_y
  _atom_site_fract_z
  _atom_site_occupancy
  B   B1        1.0  0.08090  0.08090  0.08090  1.0000
  B   B2        1.0  0.08090  0.08090  0.75700  1.0000
  B   B3        1.0  0.75700  0.08090  0.08090  1.0000
  B   B4        1.0  0.08090  0.75700  0.08090  1.0000
  B   B5        1.0  0.60100  0.60100  0.60100  1.0000
  B   B6        1.0  0.60100  0.60100  0.19800  1.0000
  B   B7        1.0  0.19800  0.60100  0.60100  1.0000
  B   B8        1.0  0.60100  0.19800  0.60100  1.0000
  B   B9        1.0  0.25100  0.25100  0.74900  1.0000
  B   B10       1.0  0.74900  0.74900  0.25100  1.0000
  B   B11       1.0  0.74900  0.25100  0.25100  1.0000
  B   B12       1.0  0.25100  0.74900  0.25100  1.0000
  B   B13       1.0  0.25100  0.74900  0.74900  1.0000
  B   B14       1.0  0.74900  0.25100  0.74900  1.0000
  Cl  Cl1       1.0  0.75000  0.75000  0.75000  1.0000
  Cl  Cl2       1.0  0.25000  0.25000  0.25000  1.0000
  Li  Li1       1.0  0.04590  0.04590  0.45400  1.0000
  Li  Li2       1.0  0.45400  0.45400  0.04590  1.0000
  Li  Li3       1.0  0.45400  0.04590  0.04590  1.0000
  Li  Li4       1.0  0.04590  0.45400  0.04590  1.0000
  Li  Li5       1.0  0.04590  0.45400  0.45400  1.0000
  Li  Li6       1.0  0.45400  0.04590  0.45400  1.0000
  Li  Li7       1.0  0.86200  0.86200  0.86200  1.0000
  Li  Li8       1.0  0.86200  0.86200  0.41300  1.0000
  Li  Li9       1.0  0.41300  0.86200  0.86200  1.0000
  Li  Li10      1.0  0.86200  0.41300  0.86200  1.0000
  O   O1        1.0  0.00000  0.00000  0.00000  1.0000
  O   O2        1.0  0.76400  0.43900  0.59900  1.0000
  O   O3        1.0  0.43900  0.76400  0.19800  1.0000
  O   O4        1.0  0.19800  0.59900  0.43900  1.0000
  O   O5        1.0  0.59900  0.19800  0.76400  1.0000
  O   O6        1.0  0.59900  0.76400  0.43900  1.0000
  O   O7        1.0  0.43900  0.59900  0.76400  1.0000
  O   O8        1.0  0.76400  0.59900  0.19800  1.0000
  O   O9        1.0  0.76400  0.19800  0.43900  1.0000
  O   O10       1.0  0.19800  0.43900  0.76400  1.0000
  O   O11       1.0  0.59900  0.43900  0.19800  1.0000
  O   O12       1.0  0.43900  0.19800  0.59900  1.0000
  O   O13       1.0  0.19800  0.76400  0.59900  1.0000
  O   O14       1.0  0.26300  0.09770  0.93600  1.0000
  O   O15       1.0  0.09770  0.26300  0.70300  1.0000
  O   O16       1.0  0.70300  0.93600  0.09770  1.0000
  O   O17       1.0  0.93600  0.70300  0.26300  1.0000
  O   O18       1.0  0.93600  0.26300  0.09770  1.0000
  O   O19       1.0  0.09770  0.93600  0.26300  1.0000
  O   O20       1.0  0.26300  0.93600  0.70300  1.0000
  O   O21       1.0  0.26300  0.70300  0.09770  1.0000
  O   O22       1.0  0.70300  0.09770  0.26300  1.0000
  O   O23       1.0  0.93600  0.09770  0.70300  1.0000
  O   O24       1.0  0.09770  0.70300  0.93600  1.0000
  O   O25       1.0  0.70300  0.26300  0.93600  1.0000
