data_image0
_chemical_formula_structural       H8Na4O26Si8Ti2
_chemical_formula_sum              "H8 Na4 O26 Si8 Ti2"
_cell_length_a       7.32947
_cell_length_b       7.32947
_cell_length_c       10.4833
_cell_angle_alpha    90
_cell_angle_beta     90
_cell_angle_gamma    90

_space_group_name_H-M_alt    "P 1"
_space_group_IT_number       1

loop_
  _space_group_symop_operation_xyz
  'x, y, z'

loop_
  _atom_site_type_symbol
  _atom_site_label
  _atom_site_symmetry_multiplicity
  _atom_site_fract_x
  _atom_site_fract_y
  _atom_site_fract_z
  _atom_site_occupancy
  H   H1        1.0  0.13000  0.28600  0.00821  1.0000
  H   H2        1.0  0.78600  0.37000  0.00821  1.0000
  H   H3        1.0  0.21400  0.63000  0.00821  1.0000
  H   H4        1.0  0.87000  0.71400  0.00821  1.0000
  H   H5        1.0  0.28600  0.13000  0.99200  1.0000
  H   H6        1.0  0.63000  0.21400  0.99200  1.0000
  H   H7        1.0  0.37000  0.78600  0.99200  1.0000
  H   H8        1.0  0.71400  0.87000  0.99200  1.0000
  Na  Na1       1.0  0.00000  0.00000  0.16100  1.0000
  Na  Na2       1.0  0.50000  0.50000  0.16100  1.0000
  Na  Na3       1.0  0.00000  0.00000  0.83900  1.0000
  Na  Na4       1.0  0.50000  0.50000  0.83900  1.0000
  O   O1        1.0  0.15400  0.15400  0.00000  1.0000
  O   O2        1.0  0.65400  0.34600  0.00000  1.0000
  O   O3        1.0  0.34600  0.65400  0.00000  1.0000
  O   O4        1.0  0.84600  0.84600  0.00000  1.0000
  O   O5        1.0  0.00000  0.50000  0.04150  1.0000
  O   O6        1.0  0.89200  0.26700  0.25600  1.0000
  O   O7        1.0  0.23300  0.39200  0.25600  1.0000
  O   O8        1.0  0.76700  0.60800  0.25600  1.0000
  O   O9        1.0  0.10800  0.73300  0.25600  1.0000
  O   O10       1.0  0.24600  0.04010  0.32000  1.0000
  O   O11       1.0  0.54000  0.25400  0.32000  1.0000
  O   O12       1.0  0.46000  0.74600  0.32000  1.0000
  O   O13       1.0  0.75400  0.96000  0.32000  1.0000
  O   O14       1.0  0.78900  0.21100  0.50000  1.0000
  O   O15       1.0  0.28900  0.28900  0.50000  1.0000
  O   O16       1.0  0.71100  0.71100  0.50000  1.0000
  O   O17       1.0  0.21100  0.78900  0.50000  1.0000
  O   O18       1.0  0.04010  0.24600  0.68000  1.0000
  O   O19       1.0  0.74600  0.46000  0.68000  1.0000
  O   O20       1.0  0.25400  0.54000  0.68000  1.0000
  O   O21       1.0  0.96000  0.75400  0.68000  1.0000
  O   O22       1.0  0.73300  0.10800  0.74400  1.0000
  O   O23       1.0  0.39200  0.23300  0.74400  1.0000
  O   O24       1.0  0.60800  0.76700  0.74400  1.0000
  O   O25       1.0  0.26700  0.89200  0.74400  1.0000
  O   O26       1.0  0.50000  0.00000  0.95800  1.0000
  Si  Si1       1.0  0.74500  0.17900  0.35100  1.0000
  Si  Si2       1.0  0.32100  0.24500  0.35100  1.0000
  Si  Si3       1.0  0.67900  0.75500  0.35100  1.0000
  Si  Si4       1.0  0.25500  0.82100  0.35100  1.0000
  Si  Si5       1.0  0.82100  0.25500  0.64900  1.0000
  Si  Si6       1.0  0.24500  0.32100  0.64900  1.0000
  Si  Si7       1.0  0.75500  0.67900  0.64900  1.0000
  Si  Si8       1.0  0.17900  0.74500  0.64900  1.0000
  Ti  Ti1       1.0  0.00000  0.50000  0.21100  1.0000
  Ti  Ti2       1.0  0.50000  0.00000  0.78900  1.0000
