data_image0
_chemical_formula_structural       As2Bi4
_chemical_formula_sum              "As2 Bi4"
_cell_length_a       7.68172
_cell_length_b       6.24596
_cell_length_c       3.83298
_cell_angle_alpha    90
_cell_angle_beta     90
_cell_angle_gamma    90

_space_group_name_H-M_alt    "P 1"
_space_group_IT_number       1

loop_
  _space_group_symop_operation_xyz
  'x, y, z'

loop_
  _atom_site_type_symbol
  _atom_site_label
  _atom_site_symmetry_multiplicity
  _atom_site_fract_x
  _atom_site_fract_y
  _atom_site_fract_z
  _atom_site_occupancy
  As  As1       1.0  0.50000  0.50000  0.00000  1.0000
  As  As2       1.0  0.00000  0.00000  0.50000  1.0000
  Bi  Bi1       1.0  0.13800  0.31800  0.00000  1.0000
  Bi  Bi2       1.0  0.86200  0.68200  0.00000  1.0000
  Bi  Bi3       1.0  0.63800  0.18200  0.50000  1.0000
  Bi  Bi4       1.0  0.36200  0.81800  0.50000  1.0000
