data_image0
_chemical_formula_structural       F4Nb
_chemical_formula_sum              "F4 Nb1"
_cell_length_a       4.04215
_cell_length_b       4.04215
_cell_length_c       4.70905
_cell_angle_alpha    115.416
_cell_angle_beta     115.416
_cell_angle_gamma    90

_space_group_name_H-M_alt    "P 1"
_space_group_IT_number       1

loop_
  _space_group_symop_operation_xyz
  'x, y, z'

loop_
  _atom_site_type_symbol
  _atom_site_label
  _atom_site_symmetry_multiplicity
  _atom_site_fract_x
  _atom_site_fract_y
  _atom_site_fract_z
  _atom_site_occupancy
  F   F1        1.0  0.50000  0.00000  0.00000  1.0000
  F   F2        1.0  0.00000  0.50000  0.00000  1.0000
  F   F3        1.0  0.74400  0.74400  0.48700  1.0000
  F   F4        1.0  0.25600  0.25600  0.51300  1.0000
  Nb  Nb1       1.0  0.00000  0.00000  0.00000  1.0000
