data_image0
_chemical_formula_structural       K8Mg4O28V8
_chemical_formula_sum              "K8 Mg4 O28 V8"
_cell_length_a       8.3415
_cell_length_b       8.3415
_cell_length_c       11.2001
_cell_angle_alpha    90
_cell_angle_beta     90
_cell_angle_gamma    90

_space_group_name_H-M_alt    "P 1"
_space_group_IT_number       1

loop_
  _space_group_symop_operation_xyz
  'x, y, z'

loop_
  _atom_site_type_symbol
  _atom_site_label
  _atom_site_symmetry_multiplicity
  _atom_site_fract_x
  _atom_site_fract_y
  _atom_site_fract_z
  _atom_site_occupancy
  K   K1        1.0  0.18100  0.18100  0.00000  1.0000
  K   K2        1.0  0.64500  0.35500  0.00000  1.0000
  K   K3        1.0  0.35500  0.64500  0.00000  1.0000
  K   K4        1.0  0.81900  0.81900  0.00000  1.0000
  K   K5        1.0  0.14500  0.14500  0.50000  1.0000
  K   K6        1.0  0.68100  0.31900  0.50000  1.0000
  K   K7        1.0  0.31900  0.68100  0.50000  1.0000
  K   K8        1.0  0.85500  0.85500  0.50000  1.0000
  Mg  Mg1       1.0  0.50000  0.00000  0.25000  1.0000
  Mg  Mg2       1.0  0.00000  0.50000  0.25000  1.0000
  Mg  Mg3       1.0  0.50000  0.00000  0.75000  1.0000
  Mg  Mg4       1.0  0.00000  0.50000  0.75000  1.0000
  O   O1        1.0  0.35800  0.35800  0.14100  1.0000
  O   O2        1.0  0.64200  0.64200  0.14100  1.0000
  O   O3        1.0  0.00000  0.00000  0.15000  1.0000
  O   O4        1.0  0.67200  0.08990  0.15300  1.0000
  O   O5        1.0  0.91000  0.32800  0.15300  1.0000
  O   O6        1.0  0.08990  0.67200  0.15300  1.0000
  O   O7        1.0  0.32800  0.91000  0.15300  1.0000
  O   O8        1.0  0.41000  0.17200  0.34700  1.0000
  O   O9        1.0  0.17200  0.41000  0.34700  1.0000
  O   O10       1.0  0.82800  0.59000  0.34700  1.0000
  O   O11       1.0  0.59000  0.82800  0.34700  1.0000
  O   O12       1.0  0.50000  0.50000  0.35000  1.0000
  O   O13       1.0  0.85800  0.14200  0.35900  1.0000
  O   O14       1.0  0.14200  0.85800  0.35900  1.0000
  O   O15       1.0  0.85800  0.14200  0.64100  1.0000
  O   O16       1.0  0.14200  0.85800  0.64100  1.0000
  O   O17       1.0  0.50000  0.50000  0.65000  1.0000
  O   O18       1.0  0.41000  0.17200  0.65300  1.0000
  O   O19       1.0  0.17200  0.41000  0.65300  1.0000
  O   O20       1.0  0.82800  0.59000  0.65300  1.0000
  O   O21       1.0  0.59000  0.82800  0.65300  1.0000
  O   O22       1.0  0.67200  0.08990  0.84700  1.0000
  O   O23       1.0  0.91000  0.32800  0.84700  1.0000
  O   O24       1.0  0.08990  0.67200  0.84700  1.0000
  O   O25       1.0  0.32800  0.91000  0.84700  1.0000
  O   O26       1.0  0.00000  0.00000  0.85000  1.0000
  O   O27       1.0  0.35800  0.35800  0.85900  1.0000
  O   O28       1.0  0.64200  0.64200  0.85900  1.0000
  V   V1        1.0  0.85700  0.14300  0.21000  1.0000
  V   V2        1.0  0.14300  0.85700  0.21000  1.0000
  V   V3        1.0  0.35700  0.35700  0.29000  1.0000
  V   V4        1.0  0.64300  0.64300  0.29000  1.0000
  V   V5        1.0  0.35700  0.35700  0.71000  1.0000
  V   V6        1.0  0.64300  0.64300  0.71000  1.0000
  V   V7        1.0  0.85700  0.14300  0.79000  1.0000
  V   V8        1.0  0.14300  0.85700  0.79000  1.0000
