data_image0
_chemical_formula_structural       Ba2O3Pd
_chemical_formula_sum              "Ba2 O3 Pd1"
_cell_length_a       3.83422
_cell_length_b       4.11594
_cell_length_c       7.2513
_cell_angle_alpha    106.488
_cell_angle_beta     105.33
_cell_angle_gamma    90

_space_group_name_H-M_alt    "P 1"
_space_group_IT_number       1

loop_
  _space_group_symop_operation_xyz
  'x, y, z'

loop_
  _atom_site_type_symbol
  _atom_site_label
  _atom_site_symmetry_multiplicity
  _atom_site_fract_x
  _atom_site_fract_y
  _atom_site_fract_z
  _atom_site_occupancy
  Ba  Ba1       1.0  0.64600  0.64600  0.29100  1.0000
  Ba  Ba2       1.0  0.35400  0.35400  0.70900  1.0000
  O   O1        1.0  0.00000  0.50000  0.00000  1.0000
  O   O2        1.0  0.15500  0.15500  0.31000  1.0000
  O   O3        1.0  0.84500  0.84500  0.69000  1.0000
  Pd  Pd1       1.0  0.00000  0.00000  0.00000  1.0000
