data_image0
_chemical_formula_structural       Cs8F32Sb8
_chemical_formula_sum              "Cs8 F32 Sb8"
_cell_length_a       9.15611
_cell_length_b       15.0258
_cell_length_c       6.1771
_cell_angle_alpha    90
_cell_angle_beta     90
_cell_angle_gamma    90

_space_group_name_H-M_alt    "P 1"
_space_group_IT_number       1

loop_
  _space_group_symop_operation_xyz
  'x, y, z'

loop_
  _atom_site_type_symbol
  _atom_site_label
  _atom_site_symmetry_multiplicity
  _atom_site_fract_x
  _atom_site_fract_y
  _atom_site_fract_z
  _atom_site_occupancy
  Cs  Cs1       1.0  0.38800  0.23900  0.00000  1.0000
  Cs  Cs2       1.0  0.88800  0.26100  0.00000  1.0000
  Cs  Cs3       1.0  0.11200  0.73900  0.00000  1.0000
  Cs  Cs4       1.0  0.61200  0.76100  0.00000  1.0000
  Cs  Cs5       1.0  0.60000  0.11600  0.50000  1.0000
  Cs  Cs6       1.0  0.10000  0.38400  0.50000  1.0000
  Cs  Cs7       1.0  0.90000  0.61600  0.50000  1.0000
  Cs  Cs8       1.0  0.40000  0.88400  0.50000  1.0000
  F   F1        1.0  0.66100  0.09720  0.00000  1.0000
  F   F2        1.0  0.16100  0.40300  0.00000  1.0000
  F   F3        1.0  0.83900  0.59700  0.00000  1.0000
  F   F4        1.0  0.33900  0.90300  0.00000  1.0000
  F   F5        1.0  0.34900  0.05380  0.23400  1.0000
  F   F6        1.0  0.84900  0.44600  0.23400  1.0000
  F   F7        1.0  0.15100  0.55400  0.23400  1.0000
  F   F8        1.0  0.65100  0.94600  0.23400  1.0000
  F   F9        1.0  0.89200  0.07820  0.25200  1.0000
  F   F10       1.0  0.39200  0.42200  0.25200  1.0000
  F   F11       1.0  0.60800  0.57800  0.25200  1.0000
  F   F12       1.0  0.10800  0.92200  0.25200  1.0000
  F   F13       1.0  0.13700  0.20400  0.26700  1.0000
  F   F14       1.0  0.63700  0.29600  0.26700  1.0000
  F   F15       1.0  0.36300  0.70400  0.26700  1.0000
  F   F16       1.0  0.86300  0.79600  0.26700  1.0000
  F   F17       1.0  0.90200  0.21900  0.50000  1.0000
  F   F18       1.0  0.40200  0.28100  0.50000  1.0000
  F   F19       1.0  0.59800  0.71900  0.50000  1.0000
  F   F20       1.0  0.09780  0.78100  0.50000  1.0000
  F   F21       1.0  0.13700  0.20400  0.73300  1.0000
  F   F22       1.0  0.63700  0.29600  0.73300  1.0000
  F   F23       1.0  0.36300  0.70400  0.73300  1.0000
  F   F24       1.0  0.86300  0.79600  0.73300  1.0000
  F   F25       1.0  0.89200  0.07820  0.74800  1.0000
  F   F26       1.0  0.39200  0.42200  0.74800  1.0000
  F   F27       1.0  0.60800  0.57800  0.74800  1.0000
  F   F28       1.0  0.10800  0.92200  0.74800  1.0000
  F   F29       1.0  0.34900  0.05380  0.76600  1.0000
  F   F30       1.0  0.84900  0.44600  0.76600  1.0000
  F   F31       1.0  0.15100  0.55400  0.76600  1.0000
  F   F32       1.0  0.65100  0.94600  0.76600  1.0000
  Sb  Sb1       1.0  0.21300  0.00924  0.00000  1.0000
  Sb  Sb2       1.0  0.71300  0.49100  0.00000  1.0000
  Sb  Sb3       1.0  0.28700  0.50900  0.00000  1.0000
  Sb  Sb4       1.0  0.78700  0.99100  0.00000  1.0000
  Sb  Sb5       1.0  0.05410  0.12400  0.50000  1.0000
  Sb  Sb6       1.0  0.55400  0.37600  0.50000  1.0000
  Sb  Sb7       1.0  0.44600  0.62400  0.50000  1.0000
  Sb  Sb8       1.0  0.94600  0.87600  0.50000  1.0000
