data_image0
_chemical_formula_structural       Br4C20O20Tc4
_chemical_formula_sum              "Br4 C20 O20 Tc4"
_cell_length_a       11.6026
_cell_length_b       11.4161
_cell_length_c       5.99143
_cell_angle_alpha    90
_cell_angle_beta     90
_cell_angle_gamma    90

_space_group_name_H-M_alt    "P 1"
_space_group_IT_number       1

loop_
  _space_group_symop_operation_xyz
  'x, y, z'

loop_
  _atom_site_type_symbol
  _atom_site_label
  _atom_site_symmetry_multiplicity
  _atom_site_fract_x
  _atom_site_fract_y
  _atom_site_fract_z
  _atom_site_occupancy
  Br  Br1       1.0  0.25800  0.25000  0.09510  1.0000
  Br  Br2       1.0  0.75800  0.25000  0.40500  1.0000
  Br  Br3       1.0  0.24200  0.75000  0.59500  1.0000
  Br  Br4       1.0  0.74200  0.75000  0.90500  1.0000
  C   C1        1.0  0.27500  0.62600  0.07600  1.0000
  C   C2        1.0  0.27500  0.87400  0.07600  1.0000
  C   C3        1.0  0.52900  0.12400  0.19600  1.0000
  C   C4        1.0  0.52900  0.37600  0.19600  1.0000
  C   C5        1.0  0.47400  0.75000  0.20500  1.0000
  C   C6        1.0  0.97400  0.75000  0.29500  1.0000
  C   C7        1.0  0.02890  0.12400  0.30400  1.0000
  C   C8        1.0  0.02890  0.37600  0.30400  1.0000
  C   C9        1.0  0.77500  0.62600  0.42400  1.0000
  C   C10       1.0  0.77500  0.87400  0.42400  1.0000
  C   C11       1.0  0.22500  0.12600  0.57600  1.0000
  C   C12       1.0  0.22500  0.37400  0.57600  1.0000
  C   C13       1.0  0.97100  0.62400  0.69600  1.0000
  C   C14       1.0  0.97100  0.87600  0.69600  1.0000
  C   C15       1.0  0.02570  0.25000  0.70500  1.0000
  C   C16       1.0  0.52600  0.25000  0.79500  1.0000
  C   C17       1.0  0.47100  0.62400  0.80400  1.0000
  C   C18       1.0  0.47100  0.87600  0.80400  1.0000
  C   C19       1.0  0.72500  0.12600  0.92400  1.0000
  C   C20       1.0  0.72500  0.37400  0.92400  1.0000
  O   O1        1.0  0.03460  0.75000  0.14000  1.0000
  O   O2        1.0  0.21600  0.55300  0.14700  1.0000
  O   O3        1.0  0.21600  0.94700  0.14700  1.0000
  O   O4        1.0  0.97700  0.04780  0.22800  1.0000
  O   O5        1.0  0.97700  0.45200  0.22800  1.0000
  O   O6        1.0  0.47700  0.04780  0.27200  1.0000
  O   O7        1.0  0.47700  0.45200  0.27200  1.0000
  O   O8        1.0  0.71600  0.55300  0.35300  1.0000
  O   O9        1.0  0.71600  0.94700  0.35300  1.0000
  O   O10       1.0  0.53500  0.75000  0.36000  1.0000
  O   O11       1.0  0.46500  0.25000  0.64000  1.0000
  O   O12       1.0  0.28400  0.05340  0.64700  1.0000
  O   O13       1.0  0.28400  0.44700  0.64700  1.0000
  O   O14       1.0  0.52300  0.54800  0.72800  1.0000
  O   O15       1.0  0.52300  0.95200  0.72800  1.0000
  O   O16       1.0  0.02280  0.54800  0.77200  1.0000
  O   O17       1.0  0.02280  0.95200  0.77200  1.0000
  O   O18       1.0  0.78400  0.05340  0.85300  1.0000
  O   O19       1.0  0.78400  0.44700  0.85300  1.0000
  O   O20       1.0  0.96500  0.25000  0.86000  1.0000
  Tc  Tc1       1.0  0.62300  0.25000  0.05370  1.0000
  Tc  Tc2       1.0  0.12300  0.25000  0.44600  1.0000
  Tc  Tc3       1.0  0.87700  0.75000  0.55400  1.0000
  Tc  Tc4       1.0  0.37700  0.75000  0.94600  1.0000
