data_image0
_chemical_formula_structural       Bi4Sc2
_chemical_formula_sum              "Bi4 Sc2"
_cell_length_a       7.77936
_cell_length_b       6.7157
_cell_length_c       3.48492
_cell_angle_alpha    90
_cell_angle_beta     90
_cell_angle_gamma    90

_space_group_name_H-M_alt    "P 1"
_space_group_IT_number       1

loop_
  _space_group_symop_operation_xyz
  'x, y, z'

loop_
  _atom_site_type_symbol
  _atom_site_label
  _atom_site_symmetry_multiplicity
  _atom_site_fract_x
  _atom_site_fract_y
  _atom_site_fract_z
  _atom_site_occupancy
  Bi  Bi1       1.0  0.13900  0.33800  0.00000  1.0000
  Bi  Bi2       1.0  0.86100  0.66200  0.00000  1.0000
  Bi  Bi3       1.0  0.63900  0.16200  0.50000  1.0000
  Bi  Bi4       1.0  0.36100  0.83800  0.50000  1.0000
  Sc  Sc1       1.0  0.50000  0.50000  0.00000  1.0000
  Sc  Sc2       1.0  0.00000  0.00000  0.50000  1.0000
