data_image0
_chemical_formula_structural       K8Pd4Se40
_chemical_formula_sum              "K8 Pd4 Se40"
_cell_length_a       12.5628
_cell_length_b       13.1258
_cell_length_c       13.1258
_cell_angle_alpha    103.251
_cell_angle_beta     61.4091
_cell_angle_gamma    118.591

_space_group_name_H-M_alt    "P 1"
_space_group_IT_number       1

loop_
  _space_group_symop_operation_xyz
  'x, y, z'

loop_
  _atom_site_type_symbol
  _atom_site_label
  _atom_site_symmetry_multiplicity
  _atom_site_fract_x
  _atom_site_fract_y
  _atom_site_fract_z
  _atom_site_occupancy
  K   K1        1.0  0.71800  0.74200  0.05260  1.0000
  K   K2        1.0  0.22800  0.94700  0.24300  1.0000
  K   K3        1.0  0.02360  0.55300  0.25700  1.0000
  K   K4        1.0  0.52900  0.75800  0.44700  1.0000
  K   K5        1.0  0.47600  0.25700  0.55300  1.0000
  K   K6        1.0  0.78200  0.05260  0.74200  1.0000
  K   K7        1.0  0.97100  0.44700  0.75800  1.0000
  K   K8        1.0  0.27200  0.24300  0.94700  1.0000
  Pd  Pd1       1.0  0.37500  0.75000  0.25000  1.0000
  Pd  Pd2       1.0  0.87500  0.75000  0.25000  1.0000
  Pd  Pd3       1.0  0.12500  0.25000  0.75000  1.0000
  Pd  Pd4       1.0  0.62500  0.25000  0.75000  1.0000
  Se  Se1       1.0  0.85600  0.05600  0.03350  1.0000
  Se  Se2       1.0  0.50700  0.83100  0.05070  1.0000
  Se  Se3       1.0  0.64400  0.03350  0.05600  1.0000
  Se  Se4       1.0  0.49400  0.20000  0.07840  1.0000
  Se  Se5       1.0  0.87400  0.60700  0.09090  1.0000
  Se  Se6       1.0  0.03560  0.90900  0.10600  1.0000
  Se  Se7       1.0  0.32500  0.55100  0.16900  1.0000
  Se  Se8       1.0  0.35700  0.30400  0.17100  1.0000
  Se  Se9       1.0  0.77600  0.32900  0.19600  1.0000
  Se  Se10      1.0  0.00595  0.07840  0.20000  1.0000
  Se  Se11      1.0  0.62700  0.42200  0.30000  1.0000
  Se  Se12      1.0  0.14300  0.17100  0.30400  1.0000
  Se  Se13      1.0  0.72400  0.19600  0.32900  1.0000
  Se  Se14      1.0  0.44300  0.94900  0.33100  1.0000
  Se  Se15      1.0  0.73300  0.59100  0.39400  1.0000
  Se  Se16      1.0  0.85800  0.89300  0.40900  1.0000
  Se  Se17      1.0  0.87300  0.30000  0.42200  1.0000
  Se  Se18      1.0  0.16600  0.46600  0.44400  1.0000
  Se  Se19      1.0  0.22600  0.66900  0.44900  1.0000
  Se  Se20      1.0  0.33400  0.44400  0.46600  1.0000
  Se  Se21      1.0  0.30000  0.94400  0.53300  1.0000
  Se  Se22      1.0  0.17500  0.16900  0.55100  1.0000
  Se  Se23      1.0  0.11000  0.96700  0.55600  1.0000
  Se  Se24      1.0  0.79400  0.80000  0.57800  1.0000
  Se  Se25      1.0  0.76700  0.39400  0.59100  1.0000
  Se  Se26      1.0  0.62600  0.09090  0.60700  1.0000
  Se  Se27      1.0  0.27400  0.44900  0.66900  1.0000
  Se  Se28      1.0  0.55300  0.69600  0.67000  1.0000
  Se  Se29      1.0  0.94700  0.67000  0.69600  1.0000
  Se  Se30      1.0  0.42800  0.92200  0.70000  1.0000
  Se  Se31      1.0  0.70600  0.57800  0.80000  1.0000
  Se  Se32      1.0  0.47300  0.83000  0.80400  1.0000
  Se  Se33      1.0  0.02670  0.80400  0.83000  1.0000
  Se  Se34      1.0  0.99300  0.05070  0.83100  1.0000
  Se  Se35      1.0  0.64200  0.40900  0.89300  1.0000
  Se  Se36      1.0  0.46400  0.10600  0.90900  1.0000
  Se  Se37      1.0  0.07240  0.70000  0.92200  1.0000
  Se  Se38      1.0  0.20000  0.53300  0.94400  1.0000
  Se  Se39      1.0  0.05750  0.33100  0.94900  1.0000
  Se  Se40      1.0  0.39000  0.55600  0.96700  1.0000
