data_image0
_chemical_formula_structural       C12Fe2H16N12O8Tb2
_chemical_formula_sum              "C12 Fe2 H16 N12 O8 Tb2"
_cell_length_a       7.23728
_cell_length_b       7.30418
_cell_length_c       13.4836
_cell_angle_alpha    90
_cell_angle_beta     90
_cell_angle_gamma    120.306

_space_group_name_H-M_alt    "P 1"
_space_group_IT_number       1

loop_
  _space_group_symop_operation_xyz
  'x, y, z'

loop_
  _atom_site_type_symbol
  _atom_site_label
  _atom_site_symmetry_multiplicity
  _atom_site_fract_x
  _atom_site_fract_y
  _atom_site_fract_z
  _atom_site_occupancy
  C   C1        1.0  0.72400  0.86200  0.05790  1.0000
  C   C2        1.0  0.08190  0.22900  0.09010  1.0000
  C   C3        1.0  0.08190  0.85300  0.09010  1.0000
  C   C4        1.0  0.08190  0.22900  0.41000  1.0000
  C   C5        1.0  0.08190  0.85300  0.41000  1.0000
  C   C6        1.0  0.72400  0.86200  0.44200  1.0000
  C   C7        1.0  0.27600  0.13800  0.55800  1.0000
  C   C8        1.0  0.91800  0.14700  0.59000  1.0000
  C   C9        1.0  0.91800  0.77100  0.59000  1.0000
  C   C10       1.0  0.91800  0.14700  0.91000  1.0000
  C   C11       1.0  0.91800  0.77100  0.91000  1.0000
  C   C12       1.0  0.27600  0.13800  0.94200  1.0000
  Fe  Fe1       1.0  0.00000  0.00000  0.00000  1.0000
  Fe  Fe2       1.0  0.00000  0.00000  0.50000  1.0000
  H   H1        1.0  0.60100  0.30000  0.03550  1.0000
  H   H2        1.0  0.82300  0.41100  0.09150  1.0000
  H   H3        1.0  0.60200  0.13600  0.19000  1.0000
  H   H4        1.0  0.60200  0.46600  0.19000  1.0000
  H   H5        1.0  0.60200  0.13600  0.31000  1.0000
  H   H6        1.0  0.60200  0.46600  0.31000  1.0000
  H   H7        1.0  0.82300  0.41100  0.40900  1.0000
  H   H8        1.0  0.60100  0.30000  0.46400  1.0000
  H   H9        1.0  0.39900  0.70000  0.53600  1.0000
  H   H10       1.0  0.17700  0.58900  0.59100  1.0000
  H   H11       1.0  0.39800  0.53400  0.69000  1.0000
  H   H12       1.0  0.39800  0.86400  0.69000  1.0000
  H   H13       1.0  0.39800  0.53400  0.81000  1.0000
  H   H14       1.0  0.39800  0.86400  0.81000  1.0000
  H   H15       1.0  0.17700  0.58900  0.90900  1.0000
  H   H16       1.0  0.39900  0.70000  0.96400  1.0000
  N   N1        1.0  0.55100  0.77500  0.09170  1.0000
  N   N2        1.0  0.13900  0.37400  0.14300  1.0000
  N   N3        1.0  0.13900  0.76500  0.14300  1.0000
  N   N4        1.0  0.13900  0.37400  0.35700  1.0000
  N   N5        1.0  0.13900  0.76500  0.35700  1.0000
  N   N6        1.0  0.55100  0.77500  0.40800  1.0000
  N   N7        1.0  0.44900  0.22500  0.59200  1.0000
  N   N8        1.0  0.86100  0.23500  0.64300  1.0000
  N   N9        1.0  0.86100  0.62600  0.64300  1.0000
  N   N10       1.0  0.86100  0.23500  0.85700  1.0000
  N   N11       1.0  0.86100  0.62600  0.85700  1.0000
  N   N12       1.0  0.44900  0.22500  0.90800  1.0000
  O   O1        1.0  0.66800  0.33400  0.10200  1.0000
  O   O2        1.0  0.57100  0.04480  0.25000  1.0000
  O   O3        1.0  0.57100  0.52700  0.25000  1.0000
  O   O4        1.0  0.66800  0.33400  0.39800  1.0000
  O   O5        1.0  0.33200  0.66600  0.60200  1.0000
  O   O6        1.0  0.42900  0.47300  0.75000  1.0000
  O   O7        1.0  0.42900  0.95500  0.75000  1.0000
  O   O8        1.0  0.33200  0.66600  0.89800  1.0000
  Tb  Tb1       1.0  0.35200  0.67600  0.25000  1.0000
  Tb  Tb2       1.0  0.64800  0.32400  0.75000  1.0000
