data_image0
_chemical_formula_structural       Mo4O32P8Pb4
_chemical_formula_sum              "Mo4 O32 P8 Pb4"
_cell_length_a       6.56732
_cell_length_b       9.96015
_cell_length_c       9.96015
_cell_angle_alpha    90.3088
_cell_angle_beta     98.5764
_cell_angle_gamma    98.5764

_space_group_name_H-M_alt    "P 1"
_space_group_IT_number       1

loop_
  _space_group_symop_operation_xyz
  'x, y, z'

loop_
  _atom_site_type_symbol
  _atom_site_label
  _atom_site_symmetry_multiplicity
  _atom_site_fract_x
  _atom_site_fract_y
  _atom_site_fract_z
  _atom_site_occupancy
  Mo  Mo1       1.0  0.18800  0.72400  0.00777  1.0000
  Mo  Mo2       1.0  0.31200  0.99200  0.27600  1.0000
  Mo  Mo3       1.0  0.68800  0.00777  0.72400  1.0000
  Mo  Mo4       1.0  0.81200  0.27600  0.99200  1.0000
  O   O1        1.0  0.87600  0.70600  0.01360  1.0000
  O   O2        1.0  0.50200  0.70100  0.02150  1.0000
  O   O3        1.0  0.75000  0.92400  0.07630  1.0000
  O   O4        1.0  0.25000  0.87100  0.12900  1.0000
  O   O5        1.0  0.86500  0.43100  0.13300  1.0000
  O   O6        1.0  0.33600  0.16400  0.16000  1.0000
  O   O7        1.0  0.83600  0.16000  0.16400  1.0000
  O   O8        1.0  0.20200  0.59500  0.16600  1.0000
  O   O9        1.0  0.62400  0.98600  0.29400  1.0000
  O   O10       1.0  0.99800  0.97900  0.29900  1.0000
  O   O11       1.0  0.92100  0.59400  0.32300  1.0000
  O   O12       1.0  0.16600  0.41500  0.33000  1.0000
  O   O13       1.0  0.29800  0.83400  0.40500  1.0000
  O   O14       1.0  0.57900  0.67700  0.40600  1.0000
  O   O15       1.0  0.66600  0.33000  0.41500  1.0000
  O   O16       1.0  0.36500  0.13300  0.43100  1.0000
  O   O17       1.0  0.63500  0.86700  0.56900  1.0000
  O   O18       1.0  0.33400  0.67000  0.58500  1.0000
  O   O19       1.0  0.42100  0.32300  0.59400  1.0000
  O   O20       1.0  0.70200  0.16600  0.59500  1.0000
  O   O21       1.0  0.83400  0.58500  0.67000  1.0000
  O   O22       1.0  0.07920  0.40600  0.67700  1.0000
  O   O23       1.0  0.00198  0.02150  0.70100  1.0000
  O   O24       1.0  0.37600  0.01360  0.70600  1.0000
  O   O25       1.0  0.79800  0.40500  0.83400  1.0000
  O   O26       1.0  0.16400  0.84000  0.83600  1.0000
  O   O27       1.0  0.66400  0.83600  0.84000  1.0000
  O   O28       1.0  0.13500  0.56900  0.86700  1.0000
  O   O29       1.0  0.75000  0.12900  0.87100  1.0000
  O   O30       1.0  0.25000  0.07630  0.92400  1.0000
  O   O31       1.0  0.49800  0.29900  0.97900  1.0000
  O   O32       1.0  0.12400  0.29400  0.98600  1.0000
  P   P1        1.0  0.30200  0.21200  0.01540  1.0000
  P   P2        1.0  0.80200  0.01540  0.21200  1.0000
  P   P3        1.0  0.03920  0.50900  0.24100  1.0000
  P   P4        1.0  0.46100  0.75900  0.49100  1.0000
  P   P5        1.0  0.53900  0.24100  0.50900  1.0000
  P   P6        1.0  0.96100  0.49100  0.75900  1.0000
  P   P7        1.0  0.19800  0.98500  0.78800  1.0000
  P   P8        1.0  0.69800  0.78800  0.98500  1.0000
  Pb  Pb1       1.0  0.54000  0.48800  0.25200  1.0000
  Pb  Pb2       1.0  0.04030  0.25200  0.48800  1.0000
  Pb  Pb3       1.0  0.96000  0.74800  0.51200  1.0000
  Pb  Pb4       1.0  0.46000  0.51200  0.74800  1.0000
