data_image0
_chemical_formula_structural       Ba4In8La8O28
_chemical_formula_sum              "Ba4 In8 La8 O28"
_cell_length_a       5.93852
_cell_length_b       5.93852
_cell_length_c       20.7754
_cell_angle_alpha    90
_cell_angle_beta     90
_cell_angle_gamma    90

_space_group_name_H-M_alt    "P 1"
_space_group_IT_number       1

loop_
  _space_group_symop_operation_xyz
  'x, y, z'

loop_
  _atom_site_type_symbol
  _atom_site_label
  _atom_site_symmetry_multiplicity
  _atom_site_fract_x
  _atom_site_fract_y
  _atom_site_fract_z
  _atom_site_occupancy
  Ba  Ba1       1.0  0.25800  0.25800  0.00000  1.0000
  Ba  Ba2       1.0  0.74200  0.74200  0.00000  1.0000
  Ba  Ba3       1.0  0.75800  0.24200  0.50000  1.0000
  Ba  Ba4       1.0  0.24200  0.75800  0.50000  1.0000
  In  In1       1.0  0.75800  0.24200  0.10200  1.0000
  In  In2       1.0  0.24200  0.75800  0.10200  1.0000
  In  In3       1.0  0.25800  0.25800  0.39800  1.0000
  In  In4       1.0  0.74200  0.74200  0.39800  1.0000
  In  In5       1.0  0.25800  0.25800  0.60200  1.0000
  In  In6       1.0  0.74200  0.74200  0.60200  1.0000
  In  In7       1.0  0.75800  0.24200  0.89800  1.0000
  In  In8       1.0  0.24200  0.75800  0.89800  1.0000
  La  La1       1.0  0.27600  0.27600  0.18500  1.0000
  La  La2       1.0  0.72400  0.72400  0.18500  1.0000
  La  La3       1.0  0.77600  0.22400  0.31500  1.0000
  La  La4       1.0  0.22400  0.77600  0.31500  1.0000
  La  La5       1.0  0.77600  0.22400  0.68500  1.0000
  La  La6       1.0  0.22400  0.77600  0.68500  1.0000
  La  La7       1.0  0.27600  0.27600  0.81500  1.0000
  La  La8       1.0  0.72400  0.72400  0.81500  1.0000
  O   O1        1.0  0.79800  0.20200  0.00000  1.0000
  O   O2        1.0  0.20200  0.79800  0.00000  1.0000
  O   O3        1.0  0.50000  0.50000  0.09120  1.0000
  O   O4        1.0  0.50000  0.00000  0.11400  1.0000
  O   O5        1.0  0.00000  0.50000  0.11400  1.0000
  O   O6        1.0  0.00000  0.00000  0.13400  1.0000
  O   O7        1.0  0.68400  0.31600  0.21100  1.0000
  O   O8        1.0  0.31600  0.68400  0.21100  1.0000
  O   O9        1.0  0.18400  0.18400  0.28900  1.0000
  O   O10       1.0  0.81600  0.81600  0.28900  1.0000
  O   O11       1.0  0.50000  0.50000  0.36600  1.0000
  O   O12       1.0  0.50000  0.00000  0.38600  1.0000
  O   O13       1.0  0.00000  0.50000  0.38600  1.0000
  O   O14       1.0  0.00000  0.00000  0.40900  1.0000
  O   O15       1.0  0.29800  0.29800  0.50000  1.0000
  O   O16       1.0  0.70200  0.70200  0.50000  1.0000
  O   O17       1.0  0.00000  0.00000  0.59100  1.0000
  O   O18       1.0  0.50000  0.00000  0.61400  1.0000
  O   O19       1.0  0.00000  0.50000  0.61400  1.0000
  O   O20       1.0  0.50000  0.50000  0.63400  1.0000
  O   O21       1.0  0.18400  0.18400  0.71100  1.0000
  O   O22       1.0  0.81600  0.81600  0.71100  1.0000
  O   O23       1.0  0.68400  0.31600  0.78900  1.0000
  O   O24       1.0  0.31600  0.68400  0.78900  1.0000
  O   O25       1.0  0.00000  0.00000  0.86600  1.0000
  O   O26       1.0  0.50000  0.00000  0.88600  1.0000
  O   O27       1.0  0.00000  0.50000  0.88600  1.0000
  O   O28       1.0  0.50000  0.50000  0.90900  1.0000
