data_image0
_chemical_formula_structural       Ca2H4MgO10P2
_chemical_formula_sum              "Ca2 H4 Mg1 O10 P2"
_cell_length_a       5.69533
_cell_length_b       6.72378
_cell_length_c       5.40259
_cell_angle_alpha    97.3044
_cell_angle_beta     108.622
_cell_angle_gamma    107.347

_space_group_name_H-M_alt    "P 1"
_space_group_IT_number       1

loop_
  _space_group_symop_operation_xyz
  'x, y, z'

loop_
  _atom_site_type_symbol
  _atom_site_label
  _atom_site_symmetry_multiplicity
  _atom_site_fract_x
  _atom_site_fract_y
  _atom_site_fract_z
  _atom_site_occupancy
  Ca  Ca1       1.0  0.69800  0.23700  0.34700  1.0000
  Ca  Ca2       1.0  0.30200  0.76300  0.65300  1.0000
  H   H1        1.0  0.17700  0.68100  0.08270  1.0000
  H   H2        1.0  0.12300  0.39900  0.14600  1.0000
  H   H3        1.0  0.87700  0.60100  0.85400  1.0000
  H   H4        1.0  0.82300  0.31900  0.91700  1.0000
  Mg  Mg1       1.0  0.00000  0.00000  0.00000  1.0000
  O   O1        1.0  0.94700  0.27700  0.06700  1.0000
  O   O2        1.0  0.66400  0.87000  0.10100  1.0000
  O   O3        1.0  0.37500  0.60800  0.27800  1.0000
  O   O4        1.0  0.84500  0.62100  0.36400  1.0000
  O   O5        1.0  0.25600  0.07040  0.40500  1.0000
  O   O6        1.0  0.74400  0.93000  0.59500  1.0000
  O   O7        1.0  0.15500  0.37900  0.63600  1.0000
  O   O8        1.0  0.62500  0.39200  0.72200  1.0000
  O   O9        1.0  0.33600  0.13000  0.89900  1.0000
  O   O10       1.0  0.05330  0.72300  0.93300  1.0000
  P   P1        1.0  0.66600  0.75300  0.33400  1.0000
  P   P2        1.0  0.33400  0.24700  0.66600  1.0000
