data_image0
_chemical_formula_structural       Fe8O32P8Sr4
_chemical_formula_sum              "Fe8 O32 P8 Sr4"
_cell_length_a       9.34376
_cell_length_b       6.81811
_cell_length_c       10.503
_cell_angle_alpha    90
_cell_angle_beta     109.533
_cell_angle_gamma    90

_space_group_name_H-M_alt    "P 1"
_space_group_IT_number       1

loop_
  _space_group_symop_operation_xyz
  'x, y, z'

loop_
  _atom_site_type_symbol
  _atom_site_label
  _atom_site_symmetry_multiplicity
  _atom_site_fract_x
  _atom_site_fract_y
  _atom_site_fract_z
  _atom_site_occupancy
  Fe  Fe1       1.0  0.08210  0.65000  0.11800  1.0000
  Fe  Fe2       1.0  0.71500  0.39500  0.16300  1.0000
  Fe  Fe3       1.0  0.28500  0.89500  0.33700  1.0000
  Fe  Fe4       1.0  0.91800  0.15000  0.38200  1.0000
  Fe  Fe5       1.0  0.08210  0.85000  0.61800  1.0000
  Fe  Fe6       1.0  0.71500  0.10500  0.66300  1.0000
  Fe  Fe7       1.0  0.28500  0.60500  0.83700  1.0000
  Fe  Fe8       1.0  0.91800  0.35000  0.88200  1.0000
  O   O1        1.0  0.34900  0.47900  0.02340  1.0000
  O   O2        1.0  0.45000  0.81600  0.03750  1.0000
  O   O3        1.0  0.06890  0.34100  0.08520  1.0000
  O   O4        1.0  0.10800  0.98100  0.13500  1.0000
  O   O5        1.0  0.86300  0.15500  0.14100  1.0000
  O   O6        1.0  0.88900  0.70100  0.17600  1.0000
  O   O7        1.0  0.31100  0.69200  0.19900  1.0000
  O   O8        1.0  0.57800  0.58400  0.23000  1.0000
  O   O9        1.0  0.42200  0.08420  0.27000  1.0000
  O   O10       1.0  0.68900  0.19200  0.30100  1.0000
  O   O11       1.0  0.11100  0.20100  0.32400  1.0000
  O   O12       1.0  0.13700  0.65500  0.35900  1.0000
  O   O13       1.0  0.89200  0.48100  0.36500  1.0000
  O   O14       1.0  0.93100  0.84100  0.41500  1.0000
  O   O15       1.0  0.55000  0.31600  0.46300  1.0000
  O   O16       1.0  0.65100  0.97900  0.47700  1.0000
  O   O17       1.0  0.34900  0.02100  0.52300  1.0000
  O   O18       1.0  0.45000  0.68400  0.53700  1.0000
  O   O19       1.0  0.06890  0.15900  0.58500  1.0000
  O   O20       1.0  0.10800  0.51900  0.63500  1.0000
  O   O21       1.0  0.86300  0.34500  0.64100  1.0000
  O   O22       1.0  0.88900  0.79900  0.67600  1.0000
  O   O23       1.0  0.31100  0.80800  0.69900  1.0000
  O   O24       1.0  0.57800  0.91600  0.73000  1.0000
  O   O25       1.0  0.42200  0.41600  0.77000  1.0000
  O   O26       1.0  0.68900  0.30800  0.80100  1.0000
  O   O27       1.0  0.11100  0.29900  0.82400  1.0000
  O   O28       1.0  0.13700  0.84500  0.85900  1.0000
  O   O29       1.0  0.89200  0.01930  0.86500  1.0000
  O   O30       1.0  0.93100  0.65900  0.91500  1.0000
  O   O31       1.0  0.55000  0.18400  0.96300  1.0000
  O   O32       1.0  0.65100  0.52100  0.97700  1.0000
  P   P1        1.0  0.42700  0.64500  0.12400  1.0000
  P   P2        1.0  0.03650  0.16900  0.17000  1.0000
  P   P3        1.0  0.96400  0.66900  0.33000  1.0000
  P   P4        1.0  0.57300  0.14500  0.37600  1.0000
  P   P5        1.0  0.42700  0.85500  0.62400  1.0000
  P   P6        1.0  0.03650  0.33100  0.67000  1.0000
  P   P7        1.0  0.96400  0.83100  0.83000  1.0000
  P   P8        1.0  0.57300  0.35500  0.87600  1.0000
  Sr  Sr1       1.0  0.30400  0.11900  0.01540  1.0000
  Sr  Sr2       1.0  0.69600  0.61900  0.48500  1.0000
  Sr  Sr3       1.0  0.30400  0.38100  0.51500  1.0000
  Sr  Sr4       1.0  0.69600  0.88100  0.98500  1.0000
