data_image0
_chemical_formula_structural       B14Br2Fe6O26
_chemical_formula_sum              "B14 Br2 Fe6 O26"
_cell_length_a       8.60468
_cell_length_b       8.60468
_cell_length_c       8.60273
_cell_angle_alpha    119.812
_cell_angle_beta     119.812
_cell_angle_gamma    60.1759

_space_group_name_H-M_alt    "P 1"
_space_group_IT_number       1

loop_
  _space_group_symop_operation_xyz
  'x, y, z'

loop_
  _atom_site_type_symbol
  _atom_site_label
  _atom_site_symmetry_multiplicity
  _atom_site_fract_x
  _atom_site_fract_y
  _atom_site_fract_z
  _atom_site_occupancy
  B   B1        1.0  0.91400  0.22000  0.08330  1.0000
  B   B2        1.0  0.22000  0.91700  0.08620  1.0000
  B   B3        1.0  0.88800  0.88800  0.11200  1.0000
  B   B4        1.0  0.73900  0.23400  0.25800  1.0000
  B   B5        1.0  0.23400  0.74200  0.26100  1.0000
  B   B6        1.0  0.23900  0.24200  0.26600  1.0000
  B   B7        1.0  0.41400  0.41700  0.28000  1.0000
  B   B8        1.0  0.72000  0.41400  0.58300  1.0000
  B   B9        1.0  0.41700  0.72000  0.58600  1.0000
  B   B10       1.0  0.38800  0.38800  0.61200  1.0000
  B   B11       1.0  0.73400  0.23900  0.75800  1.0000
  B   B12       1.0  0.24200  0.73400  0.76100  1.0000
  B   B13       1.0  0.74200  0.73900  0.76600  1.0000
  B   B14       1.0  0.91700  0.91400  0.78000  1.0000
  Br  Br1       1.0  0.73000  0.73000  0.27000  1.0000
  Br  Br2       1.0  0.23000  0.23000  0.77000  1.0000
  Fe  Fe1       1.0  0.51100  0.51100  0.04020  1.0000
  Fe  Fe2       1.0  0.96000  0.51100  0.48900  1.0000
  Fe  Fe3       1.0  0.51100  0.96000  0.48900  1.0000
  Fe  Fe4       1.0  0.01120  0.01100  0.54000  1.0000
  Fe  Fe5       1.0  0.01100  0.46000  0.98900  1.0000
  Fe  Fe6       1.0  0.46000  0.01110  0.98900  1.0000
  O   O1        1.0  1.00000  0.00000  0.00029  1.0000
  O   O2        1.0  0.27200  0.74200  0.11300  1.0000
  O   O3        1.0  0.72400  0.04360  0.11600  1.0000
  O   O4        1.0  0.05240  0.29800  0.12300  1.0000
  O   O5        1.0  0.55200  0.37700  0.20200  1.0000
  O   O6        1.0  0.23500  0.55600  0.21700  1.0000
  O   O7        1.0  0.38700  0.24200  0.22800  1.0000
  O   O8        1.0  0.88700  0.27200  0.25800  1.0000
  O   O9        1.0  0.28300  0.05580  0.26500  1.0000
  O   O10       1.0  0.04360  0.88400  0.27600  1.0000
  O   O11       1.0  0.78300  0.23600  0.44400  1.0000
  O   O12       1.0  0.37700  0.79800  0.44800  1.0000
  O   O13       1.0  0.22400  0.38400  0.45700  1.0000
  O   O14       1.0  0.50000  0.50000  0.50000  1.0000
  O   O15       1.0  0.24200  0.77200  0.61300  1.0000
  O   O16       1.0  0.54400  0.22400  0.61600  1.0000
  O   O17       1.0  0.79800  0.55200  0.62300  1.0000
  O   O18       1.0  0.87700  0.05250  0.70200  1.0000
  O   O19       1.0  0.05580  0.73500  0.71700  1.0000
  O   O20       1.0  0.74200  0.88700  0.72800  1.0000
  O   O21       1.0  0.77200  0.38700  0.75800  1.0000
  O   O22       1.0  0.55600  0.78300  0.76500  1.0000
  O   O23       1.0  0.38400  0.54400  0.77600  1.0000
  O   O24       1.0  0.73600  0.28300  0.94400  1.0000
  O   O25       1.0  0.29800  0.87700  0.94800  1.0000
  O   O26       1.0  0.88400  0.72400  0.95700  1.0000
