data_image0
_chemical_formula_structural       Bi4Tb2
_chemical_formula_sum              "Bi4 Tb2"
_cell_length_a       8.22041
_cell_length_b       6.99525
_cell_length_c       3.58938
_cell_angle_alpha    90
_cell_angle_beta     90
_cell_angle_gamma    90

_space_group_name_H-M_alt    "P 1"
_space_group_IT_number       1

loop_
  _space_group_symop_operation_xyz
  'x, y, z'

loop_
  _atom_site_type_symbol
  _atom_site_label
  _atom_site_symmetry_multiplicity
  _atom_site_fract_x
  _atom_site_fract_y
  _atom_site_fract_z
  _atom_site_occupancy
  Bi  Bi1       1.0  0.13500  0.35100  0.00000  1.0000
  Bi  Bi2       1.0  0.86500  0.64900  0.00000  1.0000
  Bi  Bi3       1.0  0.63500  0.14900  0.50000  1.0000
  Bi  Bi4       1.0  0.36500  0.85100  0.50000  1.0000
  Tb  Tb1       1.0  0.50000  0.50000  0.00000  1.0000
  Tb  Tb2       1.0  0.00000  0.00000  0.50000  1.0000
