data_image0
_chemical_formula_structural       Ba8C6Cs6F10O18
_chemical_formula_sum              "Ba8 C6 Cs6 F10 O18"
_cell_length_a       11.3825
_cell_length_b       11.3828
_cell_length_c       7.57136
_cell_angle_alpha    90
_cell_angle_beta     90
_cell_angle_gamma    120.001

_space_group_name_H-M_alt    "P 1"
_space_group_IT_number       1

loop_
  _space_group_symop_operation_xyz
  'x, y, z'

loop_
  _atom_site_type_symbol
  _atom_site_label
  _atom_site_symmetry_multiplicity
  _atom_site_fract_x
  _atom_site_fract_y
  _atom_site_fract_z
  _atom_site_occupancy
  Ba  Ba1       1.0  0.66700  0.33300  0.35700  1.0000
  Ba  Ba2       1.0  0.46300  0.92600  0.40400  1.0000
  Ba  Ba3       1.0  0.07360  0.53700  0.40400  1.0000
  Ba  Ba4       1.0  0.46300  0.53700  0.40400  1.0000
  Ba  Ba5       1.0  0.33300  0.66700  0.85700  1.0000
  Ba  Ba6       1.0  0.53700  0.07360  0.90400  1.0000
  Ba  Ba7       1.0  0.53700  0.46300  0.90400  1.0000
  Ba  Ba8       1.0  0.92600  0.46300  0.90400  1.0000
  C   C1        1.0  0.39300  0.19600  0.13600  1.0000
  C   C2        1.0  0.80400  0.60700  0.13600  1.0000
  C   C3        1.0  0.80400  0.19600  0.13600  1.0000
  C   C4        1.0  0.19600  0.39300  0.63600  1.0000
  C   C5        1.0  0.19600  0.80400  0.63600  1.0000
  C   C6        1.0  0.60700  0.80400  0.63600  1.0000
  Cs  Cs1       1.0  0.75800  0.87900  0.06890  1.0000
  Cs  Cs2       1.0  0.12100  0.87900  0.06890  1.0000
  Cs  Cs3       1.0  0.12100  0.24200  0.06890  1.0000
  Cs  Cs4       1.0  0.87900  0.12100  0.56900  1.0000
  Cs  Cs5       1.0  0.24200  0.12100  0.56900  1.0000
  Cs  Cs6       1.0  0.87900  0.75800  0.56900  1.0000
  F   F1        1.0  0.14700  0.57300  0.08560  1.0000
  F   F2        1.0  0.42700  0.57300  0.08560  1.0000
  F   F3        1.0  0.42700  0.85300  0.08560  1.0000
  F   F4        1.0  0.00000  0.00000  0.31100  1.0000
  F   F5        1.0  0.33300  0.66700  0.50000  1.0000
  F   F6        1.0  0.85300  0.42700  0.58600  1.0000
  F   F7        1.0  0.57300  0.42700  0.58600  1.0000
  F   F8        1.0  0.57300  0.14700  0.58600  1.0000
  F   F9        1.0  0.00000  0.00000  0.81100  1.0000
  F   F10       1.0  0.66700  0.33300  0.00000  1.0000
  O   O1        1.0  0.69500  0.10700  0.21900  1.0000
  O   O2        1.0  0.89300  0.30500  0.21900  1.0000
  O   O3        1.0  0.89300  0.58800  0.21900  1.0000
  O   O4        1.0  0.41200  0.10700  0.21900  1.0000
  O   O5        1.0  0.41200  0.30500  0.21900  1.0000
  O   O6        1.0  0.69500  0.58800  0.21900  1.0000
  O   O7        1.0  0.18000  0.35900  0.47000  1.0000
  O   O8        1.0  0.64100  0.82000  0.47000  1.0000
  O   O9        1.0  0.18000  0.82000  0.47000  1.0000
  O   O10       1.0  0.30500  0.89300  0.71900  1.0000
  O   O11       1.0  0.10700  0.41200  0.71900  1.0000
  O   O12       1.0  0.10700  0.69500  0.71900  1.0000
  O   O13       1.0  0.58800  0.69500  0.71900  1.0000
  O   O14       1.0  0.58800  0.89300  0.71900  1.0000
  O   O15       1.0  0.30500  0.41200  0.71900  1.0000
  O   O16       1.0  0.82000  0.64100  0.97000  1.0000
  O   O17       1.0  0.35900  0.18000  0.97000  1.0000
  O   O18       1.0  0.82000  0.18000  0.97000  1.0000
