data_image0
_chemical_formula_structural       Ce2K4O30Si12
_chemical_formula_sum              "Ce2 K4 O30 Si12"
_cell_length_a       8.72348
_cell_length_b       9.73463
_cell_length_c       9.92286
_cell_angle_alpha    105.99
_cell_angle_beta     63.9239
_cell_angle_gamma    116.62

_space_group_name_H-M_alt    "P 1"
_space_group_IT_number       1

loop_
  _space_group_symop_operation_xyz
  'x, y, z'

loop_
  _atom_site_type_symbol
  _atom_site_label
  _atom_site_symmetry_multiplicity
  _atom_site_fract_x
  _atom_site_fract_y
  _atom_site_fract_z
  _atom_site_occupancy
  Ce  Ce1       1.0  0.16200  0.25000  0.25000  1.0000
  Ce  Ce2       1.0  0.83800  0.75000  0.75000  1.0000
  K   K1        1.0  0.89700  0.15200  0.00764  1.0000
  K   K2        1.0  0.75300  0.34800  0.49200  1.0000
  K   K3        1.0  0.24700  0.65200  0.50800  1.0000
  K   K4        1.0  0.10300  0.84800  0.99200  1.0000
  O   O1        1.0  0.76500  0.81300  0.01530  1.0000
  O   O2        1.0  0.78100  0.46500  0.06130  1.0000
  O   O3        1.0  0.39300  0.65600  0.13000  1.0000
  O   O4        1.0  0.53900  0.96000  0.15100  1.0000
  O   O5        1.0  0.08730  0.69900  0.18700  1.0000
  O   O6        1.0  0.06560  0.42200  0.20700  1.0000
  O   O7        1.0  0.27200  0.06130  0.23000  1.0000
  O   O8        1.0  0.60200  0.25000  0.25000  1.0000
  O   O9        1.0  0.44000  0.43900  0.27000  1.0000
  O   O10       1.0  0.85000  0.07770  0.29300  1.0000
  O   O11       1.0  0.57600  0.80100  0.31300  1.0000
  O   O12       1.0  0.73100  0.54000  0.34900  1.0000
  O   O13       1.0  0.86800  0.84400  0.37000  1.0000
  O   O14       1.0  0.37800  0.03520  0.43900  1.0000
  O   O15       1.0  0.96800  0.68700  0.48500  1.0000
  O   O16       1.0  0.03250  0.31300  0.51500  1.0000
  O   O17       1.0  0.62200  0.96500  0.56100  1.0000
  O   O18       1.0  0.13200  0.15600  0.63000  1.0000
  O   O19       1.0  0.26900  0.46000  0.65100  1.0000
  O   O20       1.0  0.42400  0.19900  0.68700  1.0000
  O   O21       1.0  0.15000  0.92200  0.70700  1.0000
  O   O22       1.0  0.56000  0.56100  0.73000  1.0000
  O   O23       1.0  0.39800  0.75000  0.75000  1.0000
  O   O24       1.0  0.72800  0.93900  0.77000  1.0000
  O   O25       1.0  0.93400  0.57800  0.79300  1.0000
  O   O26       1.0  0.91300  0.30100  0.81300  1.0000
  O   O27       1.0  0.46100  0.04050  0.84900  1.0000
  O   O28       1.0  0.60700  0.34400  0.87000  1.0000
  O   O29       1.0  0.21900  0.53500  0.93900  1.0000
  O   O30       1.0  0.23500  0.18700  0.98500  1.0000
  Si  Si1       1.0  0.19000  0.57300  0.11700  1.0000
  Si  Si2       1.0  0.57300  0.80500  0.14900  1.0000
  Si  Si3       1.0  0.63100  0.42500  0.23100  1.0000
  Si  Si4       1.0  0.43800  0.07520  0.26900  1.0000
  Si  Si5       1.0  0.91600  0.69500  0.35100  1.0000
  Si  Si6       1.0  0.73400  0.92700  0.38300  1.0000
  Si  Si7       1.0  0.26600  0.07330  0.61700  1.0000
  Si  Si8       1.0  0.08380  0.30500  0.64900  1.0000
  Si  Si9       1.0  0.56200  0.92500  0.73100  1.0000
  Si  Si10      1.0  0.36900  0.57500  0.76900  1.0000
  Si  Si11      1.0  0.42700  0.19500  0.85100  1.0000
  Si  Si12      1.0  0.81000  0.42700  0.88300  1.0000
