data_image0
_chemical_formula_structural       Dy4Mo4Na8O32P4
_chemical_formula_sum              "Dy4 Mo4 Na8 O32 P4"
_cell_length_a       6.83988
_cell_length_b       11.2713
_cell_length_c       11.2713
_cell_angle_alpha    104.179
_cell_angle_beta     107.663
_cell_angle_gamma    107.663

_space_group_name_H-M_alt    "P 1"
_space_group_IT_number       1

loop_
  _space_group_symop_operation_xyz
  'x, y, z'

loop_
  _atom_site_type_symbol
  _atom_site_label
  _atom_site_symmetry_multiplicity
  _atom_site_fract_x
  _atom_site_fract_y
  _atom_site_fract_z
  _atom_site_occupancy
  Dy  Dy1       1.0  0.43000  0.68000  0.18000  1.0000
  Dy  Dy2       1.0  0.07000  0.82000  0.32000  1.0000
  Dy  Dy3       1.0  0.93000  0.18000  0.68000  1.0000
  Dy  Dy4       1.0  0.57000  0.32000  0.82000  1.0000
  Mo  Mo1       1.0  0.25000  0.93000  0.07020  1.0000
  Mo  Mo2       1.0  0.75000  0.57000  0.43000  1.0000
  Mo  Mo3       1.0  0.25000  0.43000  0.57000  1.0000
  Mo  Mo4       1.0  0.75000  0.07020  0.93000  1.0000
  Na  Na1       1.0  0.43200  0.29300  0.09980  1.0000
  Na  Na2       1.0  0.03900  0.40000  0.20700  1.0000
  Na  Na3       1.0  0.93200  0.09980  0.29300  1.0000
  Na  Na4       1.0  0.53900  0.20700  0.40000  1.0000
  Na  Na5       1.0  0.46100  0.79300  0.60000  1.0000
  Na  Na6       1.0  0.06780  0.90000  0.70700  1.0000
  Na  Na7       1.0  0.96100  0.60000  0.79300  1.0000
  Na  Na8       1.0  0.56800  0.70700  0.90000  1.0000
  O   O1        1.0  0.72900  0.42200  0.06100  1.0000
  O   O2        1.0  0.24700  0.43900  0.07830  1.0000
  O   O3        1.0  0.90900  0.13900  0.10600  1.0000
  O   O4        1.0  0.44400  0.85200  0.10600  1.0000
  O   O5        1.0  0.40900  0.10600  0.13900  1.0000
  O   O6        1.0  0.72100  0.65500  0.14000  1.0000
  O   O7        1.0  0.05610  0.89400  0.14800  1.0000
  O   O8        1.0  0.07380  0.64000  0.15500  1.0000
  O   O9        1.0  0.77900  0.86000  0.34500  1.0000
  O   O10       1.0  0.51400  0.60600  0.35200  1.0000
  O   O11       1.0  0.42600  0.84500  0.36000  1.0000
  O   O12       1.0  0.66500  0.39400  0.36100  1.0000
  O   O13       1.0  0.98600  0.64800  0.39400  1.0000
  O   O14       1.0  0.16500  0.36100  0.39400  1.0000
  O   O15       1.0  0.22900  0.06100  0.42200  1.0000
  O   O16       1.0  0.74700  0.07830  0.43900  1.0000
  O   O17       1.0  0.25300  0.92200  0.56100  1.0000
  O   O18       1.0  0.77100  0.93900  0.57800  1.0000
  O   O19       1.0  0.83500  0.63900  0.60600  1.0000
  O   O20       1.0  0.01430  0.35200  0.60600  1.0000
  O   O21       1.0  0.33500  0.60600  0.63900  1.0000
  O   O22       1.0  0.57400  0.15500  0.64000  1.0000
  O   O23       1.0  0.48600  0.39400  0.64800  1.0000
  O   O24       1.0  0.22100  0.14000  0.65500  1.0000
  O   O25       1.0  0.92600  0.36000  0.84500  1.0000
  O   O26       1.0  0.94400  0.10600  0.85200  1.0000
  O   O27       1.0  0.27900  0.34500  0.86000  1.0000
  O   O28       1.0  0.59100  0.89400  0.86100  1.0000
  O   O29       1.0  0.55600  0.14800  0.89400  1.0000
  O   O30       1.0  0.09070  0.86100  0.89400  1.0000
  O   O31       1.0  0.75300  0.56100  0.92200  1.0000
  O   O32       1.0  0.27100  0.57800  0.93900  1.0000
  P   P1        1.0  0.81700  0.56700  0.06730  1.0000
  P   P2        1.0  0.68300  0.93300  0.43300  1.0000
  P   P3        1.0  0.31700  0.06730  0.56700  1.0000
  P   P4        1.0  0.18300  0.43300  0.93300  1.0000
