data_image0
_chemical_formula_structural       F36P4Pb2Xe6
_chemical_formula_sum              "F36 P4 Pb2 Xe6"
_cell_length_a       8.2803
_cell_length_b       8.2803
_cell_length_c       10.3357
_cell_angle_alpha    97.117
_cell_angle_beta     82.883
_cell_angle_gamma    91.6389

_space_group_name_H-M_alt    "P 1"
_space_group_IT_number       1

loop_
  _space_group_symop_operation_xyz
  'x, y, z'

loop_
  _atom_site_type_symbol
  _atom_site_label
  _atom_site_symmetry_multiplicity
  _atom_site_fract_x
  _atom_site_fract_y
  _atom_site_fract_z
  _atom_site_occupancy
  F   F1        1.0  0.62100  0.14900  0.05380  1.0000
  F   F2        1.0  0.85100  0.37900  0.05380  1.0000
  F   F3        1.0  0.13000  0.40000  0.06450  1.0000
  F   F4        1.0  0.60000  0.87000  0.06450  1.0000
  F   F5        1.0  0.37700  0.03290  0.13400  1.0000
  F   F6        1.0  0.96700  0.62300  0.13400  1.0000
  F   F7        1.0  0.92300  0.07710  0.19400  1.0000
  F   F8        1.0  0.52400  0.47600  0.19400  1.0000
  F   F9        1.0  0.28700  0.71300  0.25300  1.0000
  F   F10       1.0  0.62200  0.02220  0.30600  1.0000
  F   F11       1.0  0.97800  0.37800  0.30600  1.0000
  F   F12       1.0  0.09030  0.91000  0.31600  1.0000
  F   F13       1.0  0.43500  0.27200  0.38500  1.0000
  F   F14       1.0  0.72800  0.56500  0.38500  1.0000
  F   F15       1.0  0.05760  0.66200  0.39700  1.0000
  F   F16       1.0  0.33800  0.94200  0.39700  1.0000
  F   F17       1.0  0.88500  0.11500  0.46300  1.0000
  F   F18       1.0  0.31200  0.68800  0.46900  1.0000
  F   F19       1.0  0.68800  0.31200  0.53100  1.0000
  F   F20       1.0  0.11500  0.88500  0.53700  1.0000
  F   F21       1.0  0.66200  0.05760  0.60300  1.0000
  F   F22       1.0  0.94200  0.33800  0.60300  1.0000
  F   F23       1.0  0.27200  0.43500  0.61500  1.0000
  F   F24       1.0  0.56500  0.72800  0.61500  1.0000
  F   F25       1.0  0.91000  0.09030  0.68400  1.0000
  F   F26       1.0  0.02220  0.62200  0.69400  1.0000
  F   F27       1.0  0.37800  0.97800  0.69400  1.0000
  F   F28       1.0  0.71300  0.28700  0.74700  1.0000
  F   F29       1.0  0.47600  0.52400  0.80600  1.0000
  F   F30       1.0  0.07710  0.92300  0.80600  1.0000
  F   F31       1.0  0.03290  0.37700  0.86600  1.0000
  F   F32       1.0  0.62300  0.96700  0.86600  1.0000
  F   F33       1.0  0.40000  0.13000  0.93500  1.0000
  F   F34       1.0  0.87000  0.60000  0.93500  1.0000
  F   F35       1.0  0.14900  0.62100  0.94600  1.0000
  F   F36       1.0  0.37900  0.85100  0.94600  1.0000
  P   P1        1.0  0.50000  0.00000  0.00000  1.0000
  P   P2        1.0  0.00000  0.50000  0.00000  1.0000
  P   P3        1.0  0.19700  0.80300  0.39100  1.0000
  P   P4        1.0  0.80300  0.19700  0.60900  1.0000
  Pb  Pb1       1.0  0.71200  0.28800  0.28000  1.0000
  Pb  Pb2       1.0  0.28800  0.71200  0.72000  1.0000
  Xe  Xe1       1.0  0.00000  0.00000  0.00000  1.0000
  Xe  Xe2       1.0  0.50000  0.50000  0.00000  1.0000
  Xe  Xe3       1.0  0.20600  0.31800  0.33800  1.0000
  Xe  Xe4       1.0  0.68200  0.79400  0.33800  1.0000
  Xe  Xe5       1.0  0.31800  0.20600  0.66200  1.0000
  Xe  Xe6       1.0  0.79400  0.68200  0.66200  1.0000
