data_image0
_chemical_formula_structural       Ba6C10Ce4F4O30
_chemical_formula_sum              "Ba6 C10 Ce4 F4 O30"
_cell_length_a       5.07432
_cell_length_b       10.9743
_cell_length_c       13.0937
_cell_angle_alpha    94.3771
_cell_angle_beta     90
_cell_angle_gamma    103.367

_space_group_name_H-M_alt    "P 1"
_space_group_IT_number       1

loop_
  _space_group_symop_operation_xyz
  'x, y, z'

loop_
  _atom_site_type_symbol
  _atom_site_label
  _atom_site_symmetry_multiplicity
  _atom_site_fract_x
  _atom_site_fract_y
  _atom_site_fract_z
  _atom_site_occupancy
  Ba  Ba1       1.0  0.00000  0.00000  0.00000  1.0000
  Ba  Ba2       1.0  0.68700  0.37300  0.09510  1.0000
  Ba  Ba3       1.0  0.80800  0.61600  0.39900  1.0000
  Ba  Ba4       1.0  0.50000  0.00000  0.50000  1.0000
  Ba  Ba5       1.0  0.19200  0.38400  0.60100  1.0000
  Ba  Ba6       1.0  0.31300  0.62700  0.90500  1.0000
  C   C1        1.0  0.83900  0.67800  0.09770  1.0000
  C   C2        1.0  0.54100  0.08270  0.20000  1.0000
  C   C3        1.0  0.24600  0.49200  0.27600  1.0000
  C   C4        1.0  0.95200  0.90400  0.35500  1.0000
  C   C5        1.0  0.65000  0.30100  0.46100  1.0000
  C   C6        1.0  0.35000  0.69900  0.53900  1.0000
  C   C7        1.0  0.04810  0.09610  0.64500  1.0000
  C   C8        1.0  0.75400  0.50800  0.72400  1.0000
  C   C9        1.0  0.45900  0.91700  0.80000  1.0000
  C   C10       1.0  0.16100  0.32200  0.90200  1.0000
  Ce  Ce1       1.0  0.40000  0.80100  0.18400  1.0000
  Ce  Ce2       1.0  0.10500  0.21100  0.28700  1.0000
  Ce  Ce3       1.0  0.89500  0.78900  0.71300  1.0000
  Ce  Ce4       1.0  0.60000  0.19900  0.81600  1.0000
  F   F1        1.0  0.42800  0.85600  0.01170  1.0000
  F   F2        1.0  0.12600  0.25200  0.10900  1.0000
  F   F3        1.0  0.87400  0.74800  0.89100  1.0000
  F   F4        1.0  0.57200  0.14400  0.98800  1.0000
  O   O1        1.0  0.03220  0.62000  0.08440  1.0000
  O   O2        1.0  0.58700  0.62000  0.08440  1.0000
  O   O3        1.0  0.89800  0.79600  0.13200  1.0000
  O   O4        1.0  0.29100  0.02410  0.18600  1.0000
  O   O5        1.0  0.73300  0.02410  0.18600  1.0000
  O   O6        1.0  0.60000  0.20000  0.23500  1.0000
  O   O7        1.0  0.43500  0.43000  0.27600  1.0000
  O   O8        1.0  0.99500  0.43000  0.27600  1.0000
  O   O9        1.0  0.30700  0.61300  0.28100  1.0000
  O   O10       1.0  0.14300  0.84400  0.34200  1.0000
  O   O11       1.0  0.70100  0.84400  0.34200  1.0000
  O   O12       1.0  0.01040  0.02080  0.38800  1.0000
  O   O13       1.0  0.40000  0.24200  0.44200  1.0000
  O   O14       1.0  0.84200  0.24200  0.44200  1.0000
  O   O15       1.0  0.29300  0.58700  0.49600  1.0000
  O   O16       1.0  0.70700  0.41300  0.50400  1.0000
  O   O17       1.0  0.15800  0.75800  0.55800  1.0000
  O   O18       1.0  0.60000  0.75800  0.55800  1.0000
  O   O19       1.0  0.99000  0.97900  0.61200  1.0000
  O   O20       1.0  0.29900  0.15600  0.65800  1.0000
  O   O21       1.0  0.85700  0.15600  0.65800  1.0000
  O   O22       1.0  0.69300  0.38700  0.71900  1.0000
  O   O23       1.0  0.00452  0.57000  0.72400  1.0000
  O   O24       1.0  0.56500  0.57000  0.72400  1.0000
  O   O25       1.0  0.40000  0.80000  0.76500  1.0000
  O   O26       1.0  0.26700  0.97600  0.81400  1.0000
  O   O27       1.0  0.70900  0.97600  0.81400  1.0000
  O   O28       1.0  0.10200  0.20400  0.86800  1.0000
  O   O29       1.0  0.41300  0.38000  0.91600  1.0000
  O   O30       1.0  0.96800  0.38000  0.91600  1.0000
