data_image0
_chemical_formula_structural       Ce2N12O36Rb4
_chemical_formula_sum              "Ce2 N12 O36 Rb4"
_cell_length_a       12.7636
_cell_length_b       6.83648
_cell_length_c       8.02435
_cell_angle_alpha    90
_cell_angle_beta     91.4745
_cell_angle_gamma    90

_space_group_name_H-M_alt    "P 1"
_space_group_IT_number       1

loop_
  _space_group_symop_operation_xyz
  'x, y, z'

loop_
  _atom_site_type_symbol
  _atom_site_label
  _atom_site_symmetry_multiplicity
  _atom_site_fract_x
  _atom_site_fract_y
  _atom_site_fract_z
  _atom_site_occupancy
  Ce  Ce1       1.0  0.00000  0.00000  0.00000  1.0000
  Ce  Ce2       1.0  0.50000  0.50000  0.50000  1.0000
  N   N1        1.0  0.81100  0.73100  0.03440  1.0000
  N   N2        1.0  0.55900  0.75600  0.21100  1.0000
  N   N3        1.0  0.11500  0.71400  0.23200  1.0000
  N   N4        1.0  0.38500  0.21400  0.26800  1.0000
  N   N5        1.0  0.94100  0.25600  0.28900  1.0000
  N   N6        1.0  0.68900  0.23100  0.46600  1.0000
  N   N7        1.0  0.31100  0.76900  0.53400  1.0000
  N   N8        1.0  0.05930  0.74400  0.71100  1.0000
  N   N9        1.0  0.61500  0.78600  0.73200  1.0000
  N   N10       1.0  0.88500  0.28600  0.76800  1.0000
  N   N11       1.0  0.44100  0.24400  0.78900  1.0000
  N   N12       1.0  0.18900  0.26900  0.96600  1.0000
  O   O1        1.0  0.74200  0.60900  0.06350  1.0000
  O   O2        1.0  0.12400  0.29200  0.08150  1.0000
  O   O3        1.0  0.56400  0.87600  0.09680  1.0000
  O   O4        1.0  0.82100  0.88600  0.12400  1.0000
  O   O5        1.0  0.90000  0.28700  0.14500  1.0000
  O   O6        1.0  0.15900  0.86700  0.17300  1.0000
  O   O7        1.0  0.51000  0.59400  0.18800  1.0000
  O   O8        1.0  0.33300  0.09160  0.19000  1.0000
  O   O9        1.0  0.01690  0.69600  0.20400  1.0000
  O   O10       1.0  0.48300  0.19600  0.29600  1.0000
  O   O11       1.0  0.16700  0.59200  0.31000  1.0000
  O   O12       1.0  0.99000  0.09440  0.31200  1.0000
  O   O13       1.0  0.34100  0.36700  0.32700  1.0000
  O   O14       1.0  0.60000  0.78700  0.35500  1.0000
  O   O15       1.0  0.67900  0.38600  0.37600  1.0000
  O   O16       1.0  0.93600  0.37600  0.40300  1.0000
  O   O17       1.0  0.37600  0.79200  0.41900  1.0000
  O   O18       1.0  0.75800  0.10900  0.43600  1.0000
  O   O19       1.0  0.24200  0.89100  0.56400  1.0000
  O   O20       1.0  0.62400  0.20800  0.58100  1.0000
  O   O21       1.0  0.06440  0.62400  0.59700  1.0000
  O   O22       1.0  0.32100  0.61400  0.62400  1.0000
  O   O23       1.0  0.40000  0.21300  0.64500  1.0000
  O   O24       1.0  0.65900  0.63300  0.67300  1.0000
  O   O25       1.0  0.00954  0.90600  0.68800  1.0000
  O   O26       1.0  0.83300  0.40800  0.69000  1.0000
  O   O27       1.0  0.51700  0.80400  0.70400  1.0000
  O   O28       1.0  0.98300  0.30400  0.79600  1.0000
  O   O29       1.0  0.66700  0.90800  0.81000  1.0000
  O   O30       1.0  0.49000  0.40600  0.81200  1.0000
  O   O31       1.0  0.84100  0.13300  0.82700  1.0000
  O   O32       1.0  0.10000  0.71300  0.85500  1.0000
  O   O33       1.0  0.17900  0.11400  0.87600  1.0000
  O   O34       1.0  0.43600  0.12400  0.90300  1.0000
  O   O35       1.0  0.87600  0.70800  0.91900  1.0000
  O   O36       1.0  0.25800  0.39100  0.93600  1.0000
  Rb  Rb1       1.0  0.66000  0.23800  0.02970  1.0000
  Rb  Rb2       1.0  0.84000  0.73800  0.47000  1.0000
  Rb  Rb3       1.0  0.16000  0.26200  0.53000  1.0000
  Rb  Rb4       1.0  0.34000  0.76200  0.97000  1.0000
