data_image0
_chemical_formula_structural       C8Na8O32Ti2Zr4
_chemical_formula_sum              "C8 Na8 O32 Ti2 Zr4"
_cell_length_a       6.08585
_cell_length_b       6.08585
_cell_length_c       17.7165
_cell_angle_alpha    93.568
_cell_angle_beta     93.568
_cell_angle_gamma    65.8236

_space_group_name_H-M_alt    "P 1"
_space_group_IT_number       1

loop_
  _space_group_symop_operation_xyz
  'x, y, z'

loop_
  _atom_site_type_symbol
  _atom_site_label
  _atom_site_symmetry_multiplicity
  _atom_site_fract_x
  _atom_site_fract_y
  _atom_site_fract_z
  _atom_site_occupancy
  C   C1        1.0  0.49800  0.20000  0.09800  1.0000
  C   C2        1.0  0.07060  0.73900  0.11300  1.0000
  C   C3        1.0  0.26100  0.92900  0.38700  1.0000
  C   C4        1.0  0.80000  0.50200  0.40200  1.0000
  C   C5        1.0  0.20000  0.49800  0.59800  1.0000
  C   C6        1.0  0.73900  0.07060  0.61300  1.0000
  C   C7        1.0  0.92900  0.26100  0.88700  1.0000
  C   C8        1.0  0.50200  0.80000  0.90200  1.0000
  Na  Na1       1.0  0.04040  0.21600  0.06860  1.0000
  Na  Na2       1.0  0.54200  0.65700  0.08410  1.0000
  Na  Na3       1.0  0.34300  0.45800  0.41600  1.0000
  Na  Na4       1.0  0.78400  0.96000  0.43100  1.0000
  Na  Na5       1.0  0.21600  0.04040  0.56900  1.0000
  Na  Na6       1.0  0.65700  0.54200  0.58400  1.0000
  Na  Na7       1.0  0.45800  0.34300  0.91600  1.0000
  Na  Na8       1.0  0.96000  0.78400  0.93100  1.0000
  O   O1        1.0  0.40600  0.28100  0.03470  1.0000
  O   O2        1.0  0.09970  0.80600  0.05100  1.0000
  O   O3        1.0  0.94500  0.61300  0.12400  1.0000
  O   O4        1.0  0.42700  0.05320  0.13100  1.0000
  O   O5        1.0  0.66000  0.26400  0.13300  1.0000
  O   O6        1.0  0.17200  0.78600  0.17700  1.0000
  O   O7        1.0  0.01850  0.25400  0.23400  1.0000
  O   O8        1.0  0.63200  0.63800  0.23900  1.0000
  O   O9        1.0  0.36200  0.36800  0.26100  1.0000
  O   O10       1.0  0.74600  0.98100  0.26600  1.0000
  O   O11       1.0  0.21400  0.82800  0.32300  1.0000
  O   O12       1.0  0.73600  0.34000  0.36700  1.0000
  O   O13       1.0  0.94700  0.57300  0.36900  1.0000
  O   O14       1.0  0.38700  0.05510  0.37600  1.0000
  O   O15       1.0  0.19400  0.90000  0.44900  1.0000
  O   O16       1.0  0.71900  0.59400  0.46500  1.0000
  O   O17       1.0  0.28100  0.40600  0.53500  1.0000
  O   O18       1.0  0.80600  0.09970  0.55100  1.0000
  O   O19       1.0  0.61300  0.94500  0.62400  1.0000
  O   O20       1.0  0.05320  0.42700  0.63100  1.0000
  O   O21       1.0  0.26400  0.66000  0.63300  1.0000
  O   O22       1.0  0.78600  0.17200  0.67700  1.0000
  O   O23       1.0  0.25400  0.01850  0.73400  1.0000
  O   O24       1.0  0.63800  0.63200  0.73900  1.0000
  O   O25       1.0  0.36800  0.36200  0.76100  1.0000
  O   O26       1.0  0.98100  0.74600  0.76600  1.0000
  O   O27       1.0  0.82800  0.21400  0.82300  1.0000
  O   O28       1.0  0.34000  0.73600  0.86700  1.0000
  O   O29       1.0  0.57300  0.94700  0.86900  1.0000
  O   O30       1.0  0.05510  0.38700  0.87600  1.0000
  O   O31       1.0  0.90000  0.19400  0.94900  1.0000
  O   O32       1.0  0.59400  0.71900  0.96500  1.0000
  Ti  Ti1       1.0  0.69500  0.30500  0.25000  1.0000
  Ti  Ti2       1.0  0.30500  0.69500  0.75000  1.0000
  Zr  Zr1       1.0  0.38100  0.00207  0.24800  1.0000
  Zr  Zr2       1.0  0.99800  0.61900  0.25200  1.0000
  Zr  Zr3       1.0  0.00207  0.38100  0.74800  1.0000
  Zr  Zr4       1.0  0.61900  0.99800  0.75200  1.0000
