data_image0
_chemical_formula_structural       Ag12Gd8Hg12O48
_chemical_formula_sum              "Ag12 Gd8 Hg12 O48"
_cell_length_a       11.3779
_cell_length_b       11.3779
_cell_length_c       11.3779
_cell_angle_alpha    109.471
_cell_angle_beta     109.471
_cell_angle_gamma    109.471

_space_group_name_H-M_alt    "P 1"
_space_group_IT_number       1

loop_
  _space_group_symop_operation_xyz
  'x, y, z'

loop_
  _atom_site_type_symbol
  _atom_site_label
  _atom_site_symmetry_multiplicity
  _atom_site_fract_x
  _atom_site_fract_y
  _atom_site_fract_z
  _atom_site_occupancy
  Ag  Ag1       1.0  0.37500  0.25000  0.12500  1.0000
  Ag  Ag2       1.0  0.25000  0.87500  0.12500  1.0000
  Ag  Ag3       1.0  0.37500  0.62500  0.25000  1.0000
  Ag  Ag4       1.0  0.87500  0.12500  0.25000  1.0000
  Ag  Ag5       1.0  0.12500  0.75000  0.37500  1.0000
  Ag  Ag6       1.0  0.75000  0.62500  0.37500  1.0000
  Ag  Ag7       1.0  0.25000  0.37500  0.62500  1.0000
  Ag  Ag8       1.0  0.87500  0.25000  0.62500  1.0000
  Ag  Ag9       1.0  0.12500  0.87500  0.75000  1.0000
  Ag  Ag10      1.0  0.62500  0.37500  0.75000  1.0000
  Ag  Ag11      1.0  0.75000  0.12500  0.87500  1.0000
  Ag  Ag12      1.0  0.62500  0.75000  0.87500  1.0000
  Gd  Gd1       1.0  0.00000  0.00000  0.00000  1.0000
  Gd  Gd2       1.0  0.50000  0.00000  0.00000  1.0000
  Gd  Gd3       1.0  0.00000  0.50000  0.00000  1.0000
  Gd  Gd4       1.0  0.50000  0.50000  0.00000  1.0000
  Gd  Gd5       1.0  0.00000  0.00000  0.50000  1.0000
  Gd  Gd6       1.0  0.50000  0.50000  0.50000  1.0000
  Gd  Gd7       1.0  0.50000  0.00000  0.50000  1.0000
  Gd  Gd8       1.0  0.00000  0.50000  0.50000  1.0000
  Hg  Hg1       1.0  0.75000  0.37500  0.12500  1.0000
  Hg  Hg2       1.0  0.87500  0.75000  0.12500  1.0000
  Hg  Hg3       1.0  0.12500  0.37500  0.25000  1.0000
  Hg  Hg4       1.0  0.62500  0.87500  0.25000  1.0000
  Hg  Hg5       1.0  0.25000  0.12500  0.37500  1.0000
  Hg  Hg6       1.0  0.62500  0.25000  0.37500  1.0000
  Hg  Hg7       1.0  0.75000  0.87500  0.62500  1.0000
  Hg  Hg8       1.0  0.37500  0.75000  0.62500  1.0000
  Hg  Hg9       1.0  0.37500  0.12500  0.75000  1.0000
  Hg  Hg10      1.0  0.87500  0.62500  0.75000  1.0000
  Hg  Hg11      1.0  0.12500  0.25000  0.87500  1.0000
  Hg  Hg12      1.0  0.25000  0.62500  0.87500  1.0000
  O   O1        1.0  0.61400  0.87900  0.05240  1.0000
  O   O2        1.0  0.93900  0.17400  0.05240  1.0000
  O   O3        1.0  0.32600  0.44800  0.06140  1.0000
  O   O4        1.0  0.23500  0.61400  0.06140  1.0000
  O   O5        1.0  0.55200  0.37900  0.11400  1.0000
  O   O6        1.0  0.06140  0.73500  0.11400  1.0000
  O   O7        1.0  0.73500  0.17400  0.12100  1.0000
  O   O8        1.0  0.88600  0.94800  0.12100  1.0000
  O   O9        1.0  0.43900  0.05240  0.17400  1.0000
  O   O10       1.0  0.23500  0.12100  0.17400  1.0000
  O   O11       1.0  0.11400  0.56100  0.23500  1.0000
  O   O12       1.0  0.62100  0.67400  0.23500  1.0000
  O   O13       1.0  0.32600  0.37900  0.26500  1.0000
  O   O14       1.0  0.43900  0.88600  0.26500  1.0000
  O   O15       1.0  0.94800  0.56100  0.32600  1.0000
  O   O16       1.0  0.87900  0.76500  0.32600  1.0000
  O   O17       1.0  0.05240  0.11400  0.37900  1.0000
  O   O18       1.0  0.82600  0.26500  0.37900  1.0000
  O   O19       1.0  0.26500  0.93900  0.38600  1.0000
  O   O20       1.0  0.62100  0.44800  0.38600  1.0000
  O   O21       1.0  0.55200  0.67400  0.43900  1.0000
  O   O22       1.0  0.38600  0.76500  0.43900  1.0000
  O   O23       1.0  0.12100  0.38600  0.44800  1.0000
  O   O24       1.0  0.82600  0.06140  0.44800  1.0000
  O   O25       1.0  0.17400  0.93900  0.55200  1.0000
  O   O26       1.0  0.87900  0.61400  0.55200  1.0000
  O   O27       1.0  0.61400  0.23500  0.56100  1.0000
  O   O28       1.0  0.44800  0.32600  0.56100  1.0000
  O   O29       1.0  0.73500  0.06140  0.61400  1.0000
  O   O30       1.0  0.37900  0.55200  0.61400  1.0000
  O   O31       1.0  0.94800  0.88600  0.62100  1.0000
  O   O32       1.0  0.17400  0.73500  0.62100  1.0000
  O   O33       1.0  0.12100  0.23500  0.67400  1.0000
  O   O34       1.0  0.05240  0.43900  0.67400  1.0000
  O   O35       1.0  0.67400  0.62100  0.73500  1.0000
  O   O36       1.0  0.56100  0.11400  0.73500  1.0000
  O   O37       1.0  0.88600  0.43900  0.76500  1.0000
  O   O38       1.0  0.37900  0.32600  0.76500  1.0000
  O   O39       1.0  0.76500  0.87900  0.82600  1.0000
  O   O40       1.0  0.56100  0.94800  0.82600  1.0000
  O   O41       1.0  0.26500  0.82600  0.87900  1.0000
  O   O42       1.0  0.11400  0.05240  0.87900  1.0000
  O   O43       1.0  0.44800  0.62100  0.88600  1.0000
  O   O44       1.0  0.93900  0.26500  0.88600  1.0000
  O   O45       1.0  0.76500  0.38600  0.93900  1.0000
  O   O46       1.0  0.67400  0.55200  0.93900  1.0000
  O   O47       1.0  0.06140  0.82600  0.94800  1.0000
  O   O48       1.0  0.38600  0.12100  0.94800  1.0000
