data_image0
_chemical_formula_structural       Au2Bi4
_chemical_formula_sum              "Au2 Bi4"
_cell_length_a       7.26329
_cell_length_b       6.23969
_cell_length_c       3.87861
_cell_angle_alpha    90
_cell_angle_beta     90
_cell_angle_gamma    90

_space_group_name_H-M_alt    "P 1"
_space_group_IT_number       1

loop_
  _space_group_symop_operation_xyz
  'x, y, z'

loop_
  _atom_site_type_symbol
  _atom_site_label
  _atom_site_symmetry_multiplicity
  _atom_site_fract_x
  _atom_site_fract_y
  _atom_site_fract_z
  _atom_site_occupancy
  Au  Au1       1.0  0.50000  0.50000  0.00000  1.0000
  Au  Au2       1.0  0.00000  0.00000  0.50000  1.0000
  Bi  Bi1       1.0  0.13800  0.30600  0.00000  1.0000
  Bi  Bi2       1.0  0.86200  0.69400  0.00000  1.0000
  Bi  Bi3       1.0  0.63800  0.19400  0.50000  1.0000
  Bi  Bi4       1.0  0.36200  0.80600  0.50000  1.0000
