data_image0
_chemical_formula_structural       Bi8Eu4
_chemical_formula_sum              "Bi8 Eu4"
_cell_length_a       17.3253
_cell_length_b       4.71024
_cell_length_c       4.71024
_cell_angle_alpha    90
_cell_angle_beta     97.8127
_cell_angle_gamma    97.8127

_space_group_name_H-M_alt    "P 1"
_space_group_IT_number       1

loop_
  _space_group_symop_operation_xyz
  'x, y, z'

loop_
  _atom_site_type_symbol
  _atom_site_label
  _atom_site_symmetry_multiplicity
  _atom_site_fract_x
  _atom_site_fract_y
  _atom_site_fract_z
  _atom_site_occupancy
  Bi  Bi1       1.0  0.75400  0.87700  0.12700  1.0000
  Bi  Bi2       1.0  0.06420  0.03210  0.28200  1.0000
  Bi  Bi3       1.0  0.25400  0.62700  0.37700  1.0000
  Bi  Bi4       1.0  0.43600  0.21800  0.46800  1.0000
  Bi  Bi5       1.0  0.56400  0.78200  0.53200  1.0000
  Bi  Bi6       1.0  0.74600  0.37300  0.62300  1.0000
  Bi  Bi7       1.0  0.93600  0.96800  0.71800  1.0000
  Bi  Bi8       1.0  0.24600  0.12300  0.87300  1.0000
  Eu  Eu1       1.0  0.60300  0.30100  0.05130  1.0000
  Eu  Eu2       1.0  0.89700  0.44900  0.19900  1.0000
  Eu  Eu3       1.0  0.10300  0.55100  0.80100  1.0000
  Eu  Eu4       1.0  0.39700  0.69900  0.94900  1.0000
