data_image0
_chemical_formula_structural       Bi4N2
_chemical_formula_sum              "Bi4 N2"
_cell_length_a       7.00099
_cell_length_b       5.48461
_cell_length_c       3.43033
_cell_angle_alpha    90
_cell_angle_beta     90
_cell_angle_gamma    90

_space_group_name_H-M_alt    "P 1"
_space_group_IT_number       1

loop_
  _space_group_symop_operation_xyz
  'x, y, z'

loop_
  _atom_site_type_symbol
  _atom_site_label
  _atom_site_symmetry_multiplicity
  _atom_site_fract_x
  _atom_site_fract_y
  _atom_site_fract_z
  _atom_site_occupancy
  Bi  Bi1       1.0  0.16100  0.25900  0.00000  1.0000
  Bi  Bi2       1.0  0.83900  0.74100  0.00000  1.0000
  Bi  Bi3       1.0  0.66100  0.24100  0.50000  1.0000
  Bi  Bi4       1.0  0.33900  0.75900  0.50000  1.0000
  N   N1        1.0  0.50000  0.50000  0.00000  1.0000
  N   N2        1.0  0.00000  0.00000  0.50000  1.0000
