data_image0
_chemical_formula_structural       Bi16Hf8
_chemical_formula_sum              "Bi16 Hf8"
_cell_length_a       15.7035
_cell_length_b       10.2185
_cell_length_c       3.99639
_cell_angle_alpha    90
_cell_angle_beta     90
_cell_angle_gamma    90

_space_group_name_H-M_alt    "P 1"
_space_group_IT_number       1

loop_
  _space_group_symop_operation_xyz
  'x, y, z'

loop_
  _atom_site_type_symbol
  _atom_site_label
  _atom_site_symmetry_multiplicity
  _atom_site_fract_x
  _atom_site_fract_y
  _atom_site_fract_z
  _atom_site_occupancy
  Bi  Bi1       1.0  0.05660  0.12400  0.00000  1.0000
  Bi  Bi2       1.0  0.70000  0.26500  0.00000  1.0000
  Bi  Bi3       1.0  0.35100  0.34500  0.00000  1.0000
  Bi  Bi4       1.0  0.89300  0.48600  0.00000  1.0000
  Bi  Bi5       1.0  0.10700  0.51400  0.00000  1.0000
  Bi  Bi6       1.0  0.64900  0.65500  0.00000  1.0000
  Bi  Bi7       1.0  0.30000  0.73500  0.00000  1.0000
  Bi  Bi8       1.0  0.94300  0.87600  0.00000  1.0000
  Bi  Bi9       1.0  0.39300  0.01390  0.50000  1.0000
  Bi  Bi10      1.0  0.85100  0.15500  0.50000  1.0000
  Bi  Bi11      1.0  0.20000  0.23500  0.50000  1.0000
  Bi  Bi12      1.0  0.55700  0.37600  0.50000  1.0000
  Bi  Bi13      1.0  0.44300  0.62400  0.50000  1.0000
  Bi  Bi14      1.0  0.80000  0.76500  0.50000  1.0000
  Bi  Bi15      1.0  0.14900  0.84500  0.50000  1.0000
  Bi  Bi16      1.0  0.60700  0.98600  0.50000  1.0000
  Hf  Hf1       1.0  0.24600  0.02170  0.00000  1.0000
  Hf  Hf2       1.0  0.50600  0.16100  0.00000  1.0000
  Hf  Hf3       1.0  0.49400  0.83900  0.00000  1.0000
  Hf  Hf4       1.0  0.75400  0.97800  0.00000  1.0000
  Hf  Hf5       1.0  0.00554  0.33900  0.50000  1.0000
  Hf  Hf6       1.0  0.74600  0.47800  0.50000  1.0000
  Hf  Hf7       1.0  0.25400  0.52200  0.50000  1.0000
  Hf  Hf8       1.0  0.99400  0.66100  0.50000  1.0000
