data_image0
_chemical_formula_structural       Mo2NaO8Tm
_chemical_formula_sum              "Mo2 Na1 O8 Tm1"
_cell_length_a       5.1309
_cell_length_b       5.1309
_cell_length_c       6.65384
_cell_angle_alpha    112.678
_cell_angle_beta     112.678
_cell_angle_gamma    90

_space_group_name_H-M_alt    "P 1"
_space_group_IT_number       1

loop_
  _space_group_symop_operation_xyz
  'x, y, z'

loop_
  _atom_site_type_symbol
  _atom_site_label
  _atom_site_symmetry_multiplicity
  _atom_site_fract_x
  _atom_site_fract_y
  _atom_site_fract_z
  _atom_site_occupancy
  Mo  Mo1       1.0  0.50000  0.50000  0.00000  1.0000
  Mo  Mo2       1.0  0.25000  0.75000  0.50000  1.0000
  Na  Na1       1.0  0.00000  0.00000  0.00000  1.0000
  O   O1        1.0  0.73900  0.34200  0.18100  1.0000
  O   O2        1.0  0.44200  0.83900  0.18100  1.0000
  O   O3        1.0  0.33400  0.41700  0.33500  1.0000
  O   O4        1.0  0.00098  0.91800  0.33500  1.0000
  O   O5        1.0  0.08200  0.66600  0.66500  1.0000
  O   O6        1.0  0.58300  0.99900  0.66500  1.0000
  O   O7        1.0  0.16100  0.26100  0.81900  1.0000
  O   O8        1.0  0.65800  0.55800  0.81900  1.0000
  Tm  Tm1       1.0  0.75000  0.25000  0.50000  1.0000
