data_image0
_chemical_formula_structural       Al6F38Pb10
_chemical_formula_sum              "Al6 F38 Pb10"
_cell_length_a       7.1381
_cell_length_b       10.5325
_cell_length_c       10.5325
_cell_angle_alpha    96.5936
_cell_angle_beta     109.807
_cell_angle_gamma    70.1926

_space_group_name_H-M_alt    "P 1"
_space_group_IT_number       1

loop_
  _space_group_symop_operation_xyz
  'x, y, z'

loop_
  _atom_site_type_symbol
  _atom_site_label
  _atom_site_symmetry_multiplicity
  _atom_site_fract_x
  _atom_site_fract_y
  _atom_site_fract_z
  _atom_site_occupancy
  Al  Al1       1.0  0.24800  0.00000  0.00000  1.0000
  Al  Al2       1.0  0.75200  0.00000  0.00000  1.0000
  Al  Al3       1.0  0.84100  0.48000  0.16300  1.0000
  Al  Al4       1.0  0.32200  0.83700  0.48000  1.0000
  Al  Al5       1.0  0.67800  0.16300  0.52000  1.0000
  Al  Al6       1.0  0.15900  0.52000  0.83700  1.0000
  F   F1        1.0  0.00000  0.00000  0.00000  1.0000
  F   F2        1.0  0.50000  0.00000  0.00000  1.0000
  F   F3        1.0  0.27000  0.47100  0.01160  1.0000
  F   F4        1.0  0.37300  0.83000  0.06210  1.0000
  F   F5        1.0  0.85900  0.83000  0.06210  1.0000
  F   F6        1.0  0.06420  0.35200  0.13200  1.0000
  F   F7        1.0  0.71600  0.35200  0.13200  1.0000
  F   F8        1.0  0.31100  0.06210  0.17000  1.0000
  F   F9        1.0  0.79700  0.06210  0.17000  1.0000
  F   F10       1.0  0.62700  0.60500  0.21000  1.0000
  F   F11       1.0  0.97900  0.60500  0.21000  1.0000
  F   F12       1.0  0.42600  0.45200  0.30500  1.0000
  F   F13       1.0  0.95700  0.42400  0.33800  1.0000
  F   F14       1.0  0.06810  0.86800  0.35200  1.0000
  F   F15       1.0  0.41600  0.86800  0.35200  1.0000
  F   F16       1.0  0.41600  0.21000  0.39500  1.0000
  F   F17       1.0  0.76900  0.21000  0.39500  1.0000
  F   F18       1.0  0.38100  0.66200  0.42400  1.0000
  F   F19       1.0  0.87800  0.69500  0.45200  1.0000
  F   F20       1.0  0.74200  0.98800  0.47100  1.0000
  F   F21       1.0  0.25800  0.01160  0.52900  1.0000
  F   F22       1.0  0.12200  0.30500  0.54800  1.0000
  F   F23       1.0  0.61900  0.33800  0.57600  1.0000
  F   F24       1.0  0.23100  0.79000  0.60500  1.0000
  F   F25       1.0  0.58400  0.79000  0.60500  1.0000
  F   F26       1.0  0.58400  0.13200  0.64800  1.0000
  F   F27       1.0  0.93200  0.13200  0.64800  1.0000
  F   F28       1.0  0.04300  0.57600  0.66200  1.0000
  F   F29       1.0  0.57400  0.54800  0.69500  1.0000
  F   F30       1.0  0.02110  0.39500  0.79000  1.0000
  F   F31       1.0  0.37300  0.39500  0.79000  1.0000
  F   F32       1.0  0.20300  0.93800  0.83000  1.0000
  F   F33       1.0  0.68900  0.93800  0.83000  1.0000
  F   F34       1.0  0.28400  0.64800  0.86800  1.0000
  F   F35       1.0  0.93600  0.64800  0.86800  1.0000
  F   F36       1.0  0.14100  0.17000  0.93800  1.0000
  F   F37       1.0  0.62700  0.17000  0.93800  1.0000
  F   F38       1.0  0.73000  0.52900  0.98800  1.0000
  Pb  Pb1       1.0  0.24000  0.67700  0.15700  1.0000
  Pb  Pb2       1.0  0.44500  0.27000  0.16000  1.0000
  Pb  Pb3       1.0  0.71500  0.84000  0.27000  1.0000
  Pb  Pb4       1.0  0.08310  0.15700  0.32300  1.0000
  Pb  Pb5       1.0  0.25000  0.50000  0.50000  1.0000
  Pb  Pb6       1.0  0.75000  0.50000  0.50000  1.0000
  Pb  Pb7       1.0  0.91700  0.84300  0.67700  1.0000
  Pb  Pb8       1.0  0.28500  0.16000  0.73000  1.0000
  Pb  Pb9       1.0  0.55500  0.73000  0.84000  1.0000
  Pb  Pb10      1.0  0.76000  0.32300  0.84300  1.0000
