data_image0
_chemical_formula_structural       Ba4H8Np4O28P4
_chemical_formula_sum              "Ba4 H8 Np4 O28 P4"
_cell_length_a       6.77656
_cell_length_b       7.06224
_cell_length_c       13.389
_cell_angle_alpha    90
_cell_angle_beta     106.251
_cell_angle_gamma    90

_space_group_name_H-M_alt    "P 1"
_space_group_IT_number       1

loop_
  _space_group_symop_operation_xyz
  'x, y, z'

loop_
  _atom_site_type_symbol
  _atom_site_label
  _atom_site_symmetry_multiplicity
  _atom_site_fract_x
  _atom_site_fract_y
  _atom_site_fract_z
  _atom_site_occupancy
  Ba  Ba1       1.0  0.21700  0.43600  0.14600  1.0000
  Ba  Ba2       1.0  0.28300  0.93600  0.35400  1.0000
  Ba  Ba3       1.0  0.71700  0.06370  0.64500  1.0000
  Ba  Ba4       1.0  0.78300  0.56400  0.85400  1.0000
  H   H1        1.0  0.13300  0.05840  0.02190  1.0000
  H   H2        1.0  0.27000  0.95500  0.12000  1.0000
  H   H3        1.0  0.23000  0.45500  0.38000  1.0000
  H   H4        1.0  0.36700  0.55800  0.47800  1.0000
  H   H5        1.0  0.63300  0.44200  0.52200  1.0000
  H   H6        1.0  0.77000  0.54500  0.62000  1.0000
  H   H7        1.0  0.73000  0.04480  0.88000  1.0000
  H   H8        1.0  0.86700  0.94200  0.97800  1.0000
  Np  Np1       1.0  0.70700  0.76800  0.17900  1.0000
  Np  Np2       1.0  0.79300  0.26800  0.32100  1.0000
  Np  Np3       1.0  0.20700  0.73200  0.67900  1.0000
  Np  Np4       1.0  0.29300  0.23200  0.82100  1.0000
  O   O1        1.0  0.55700  0.73800  0.00027  1.0000
  O   O2        1.0  0.82500  0.34400  0.02550  1.0000
  O   O3        1.0  0.16900  0.05950  0.09780  1.0000
  O   O4        1.0  0.71800  0.10300  0.14500  1.0000
  O   O5        1.0  0.63700  0.43600  0.15900  1.0000
  O   O6        1.0  0.97500  0.73100  0.17100  1.0000
  O   O7        1.0  0.44000  0.79600  0.19600  1.0000
  O   O8        1.0  0.05990  0.29600  0.30400  1.0000
  O   O9        1.0  0.52500  0.23100  0.32900  1.0000
  O   O10       1.0  0.86300  0.93600  0.34100  1.0000
  O   O11       1.0  0.78200  0.60300  0.35500  1.0000
  O   O12       1.0  0.33100  0.55900  0.40200  1.0000
  O   O13       1.0  0.67500  0.84400  0.47500  1.0000
  O   O14       1.0  0.94300  0.23800  0.50000  1.0000
  O   O15       1.0  0.05650  0.76200  0.50000  1.0000
  O   O16       1.0  0.32500  0.15600  0.52500  1.0000
  O   O17       1.0  0.66900  0.44100  0.59800  1.0000
  O   O18       1.0  0.21800  0.39700  0.64500  1.0000
  O   O19       1.0  0.13700  0.06420  0.65900  1.0000
  O   O20       1.0  0.47500  0.76900  0.67100  1.0000
  O   O21       1.0  0.94000  0.70400  0.69600  1.0000
  O   O22       1.0  0.56000  0.20400  0.80400  1.0000
  O   O23       1.0  0.02460  0.26900  0.82900  1.0000
  O   O24       1.0  0.36300  0.56400  0.84100  1.0000
  O   O25       1.0  0.28200  0.89700  0.85500  1.0000
  O   O26       1.0  0.83100  0.94100  0.90200  1.0000
  O   O27       1.0  0.17500  0.65600  0.97500  1.0000
  O   O28       1.0  0.44300  0.26200  1.00000  1.0000
  P   P1        1.0  0.65900  0.28300  0.07540  1.0000
  P   P2        1.0  0.84100  0.78300  0.42500  1.0000
  P   P3        1.0  0.15900  0.21700  0.57500  1.0000
  P   P4        1.0  0.34100  0.71700  0.92500  1.0000
