data_image0
_chemical_formula_structural       Mo4Na8O32P4Tb4
_chemical_formula_sum              "Mo4 Na8 O32 P4 Tb4"
_cell_length_a       6.8797
_cell_length_b       11.2503
_cell_length_c       11.2503
_cell_angle_alpha    103.639
_cell_angle_beta     107.804
_cell_angle_gamma    107.804

_space_group_name_H-M_alt    "P 1"
_space_group_IT_number       1

loop_
  _space_group_symop_operation_xyz
  'x, y, z'

loop_
  _atom_site_type_symbol
  _atom_site_label
  _atom_site_symmetry_multiplicity
  _atom_site_fract_x
  _atom_site_fract_y
  _atom_site_fract_z
  _atom_site_occupancy
  Mo  Mo1       1.0  0.25000  0.93100  0.06860  1.0000
  Mo  Mo2       1.0  0.75000  0.56900  0.43100  1.0000
  Mo  Mo3       1.0  0.25000  0.43100  0.56900  1.0000
  Mo  Mo4       1.0  0.75000  0.06860  0.93100  1.0000
  Na  Na1       1.0  0.44100  0.30000  0.10900  1.0000
  Na  Na2       1.0  0.03170  0.39100  0.20000  1.0000
  Na  Na3       1.0  0.94100  0.10900  0.30000  1.0000
  Na  Na4       1.0  0.53200  0.20000  0.39100  1.0000
  Na  Na5       1.0  0.46800  0.80000  0.60900  1.0000
  Na  Na6       1.0  0.05930  0.89100  0.70000  1.0000
  Na  Na7       1.0  0.96800  0.60900  0.80000  1.0000
  Na  Na8       1.0  0.55900  0.70000  0.89100  1.0000
  O   O1        1.0  0.72900  0.42200  0.06190  1.0000
  O   O2        1.0  0.24600  0.43800  0.07820  1.0000
  O   O3        1.0  0.44200  0.85300  0.10500  1.0000
  O   O4        1.0  0.90800  0.13700  0.10700  1.0000
  O   O5        1.0  0.40800  0.10700  0.13700  1.0000
  O   O6        1.0  0.72100  0.65500  0.13900  1.0000
  O   O7        1.0  0.05850  0.89500  0.14700  1.0000
  O   O8        1.0  0.07280  0.63900  0.15500  1.0000
  O   O9        1.0  0.77900  0.86100  0.34500  1.0000
  O   O10       1.0  0.51700  0.60500  0.35300  1.0000
  O   O11       1.0  0.42700  0.84500  0.36100  1.0000
  O   O12       1.0  0.66400  0.39300  0.36300  1.0000
  O   O13       1.0  0.16400  0.36300  0.39300  1.0000
  O   O14       1.0  0.98300  0.64700  0.39500  1.0000
  O   O15       1.0  0.22900  0.06190  0.42200  1.0000
  O   O16       1.0  0.74600  0.07820  0.43800  1.0000
  O   O17       1.0  0.25400  0.92200  0.56200  1.0000
  O   O18       1.0  0.77100  0.93800  0.57800  1.0000
  O   O19       1.0  0.01650  0.35300  0.60500  1.0000
  O   O20       1.0  0.83600  0.63700  0.60700  1.0000
  O   O21       1.0  0.33600  0.60700  0.63700  1.0000
  O   O22       1.0  0.57300  0.15500  0.63900  1.0000
  O   O23       1.0  0.48300  0.39500  0.64700  1.0000
  O   O24       1.0  0.22100  0.13900  0.65500  1.0000
  O   O25       1.0  0.92700  0.36100  0.84500  1.0000
  O   O26       1.0  0.94200  0.10500  0.85300  1.0000
  O   O27       1.0  0.27900  0.34500  0.86100  1.0000
  O   O28       1.0  0.59200  0.89300  0.86300  1.0000
  O   O29       1.0  0.09150  0.86300  0.89300  1.0000
  O   O30       1.0  0.55800  0.14700  0.89500  1.0000
  O   O31       1.0  0.75400  0.56200  0.92200  1.0000
  O   O32       1.0  0.27100  0.57800  0.93800  1.0000
  P   P1        1.0  0.81800  0.56800  0.06760  1.0000
  P   P2        1.0  0.68200  0.93200  0.43200  1.0000
  P   P3        1.0  0.31800  0.06760  0.56800  1.0000
  P   P4        1.0  0.18200  0.43200  0.93200  1.0000
  Tb  Tb1       1.0  0.43000  0.68000  0.18000  1.0000
  Tb  Tb2       1.0  0.07030  0.82000  0.32000  1.0000
  Tb  Tb3       1.0  0.93000  0.18000  0.68000  1.0000
  Tb  Tb4       1.0  0.57000  0.32000  0.82000  1.0000
