data_image0
_chemical_formula_structural       Ag2Cd6F40Zr6
_chemical_formula_sum              "Ag2 Cd6 F40 Zr6"
_cell_length_a       10.4549
_cell_length_b       10.4549
_cell_length_c       8.26812
_cell_angle_alpha    90
_cell_angle_beta     90
_cell_angle_gamma    120

_space_group_name_H-M_alt    "P 1"
_space_group_IT_number       1

loop_
  _space_group_symop_operation_xyz
  'x, y, z'

loop_
  _atom_site_type_symbol
  _atom_site_label
  _atom_site_symmetry_multiplicity
  _atom_site_fract_x
  _atom_site_fract_y
  _atom_site_fract_z
  _atom_site_occupancy
  Ag  Ag1       1.0  0.00000  0.00000  0.25000  1.0000
  Ag  Ag2       1.0  0.00000  0.00000  0.75000  1.0000
  Cd  Cd1       1.0  0.72900  0.16300  0.25000  1.0000
  Cd  Cd2       1.0  0.43400  0.27100  0.25000  1.0000
  Cd  Cd3       1.0  0.83700  0.56600  0.25000  1.0000
  Cd  Cd4       1.0  0.16300  0.43400  0.75000  1.0000
  Cd  Cd5       1.0  0.56600  0.72900  0.75000  1.0000
  Cd  Cd6       1.0  0.27100  0.83700  0.75000  1.0000
  F   F1        1.0  0.00000  0.00000  0.00000  1.0000
  F   F2        1.0  0.57400  0.70900  0.00898  1.0000
  F   F3        1.0  0.13500  0.42600  0.00898  1.0000
  F   F4        1.0  0.29100  0.86500  0.00898  1.0000
  F   F5        1.0  0.23500  0.03920  0.25000  1.0000
  F   F6        1.0  0.47600  0.06480  0.25000  1.0000
  F   F7        1.0  0.96100  0.19500  0.25000  1.0000
  F   F8        1.0  0.22000  0.27400  0.25000  1.0000
  F   F9        1.0  0.66700  0.33300  0.25000  1.0000
  F   F10       1.0  0.93500  0.41100  0.25000  1.0000
  F   F11       1.0  0.58900  0.52400  0.25000  1.0000
  F   F12       1.0  0.36500  0.54600  0.25000  1.0000
  F   F13       1.0  0.18100  0.63500  0.25000  1.0000
  F   F14       1.0  0.80500  0.76500  0.25000  1.0000
  F   F15       1.0  0.05420  0.78000  0.25000  1.0000
  F   F16       1.0  0.45400  0.81900  0.25000  1.0000
  F   F17       1.0  0.72600  0.94600  0.25000  1.0000
  F   F18       1.0  0.13500  0.42600  0.49100  1.0000
  F   F19       1.0  0.29100  0.86500  0.49100  1.0000
  F   F20       1.0  0.57400  0.70900  0.49100  1.0000
  F   F21       1.0  0.00000  0.00000  0.50000  1.0000
  F   F22       1.0  0.42600  0.29100  0.50900  1.0000
  F   F23       1.0  0.70900  0.13500  0.50900  1.0000
  F   F24       1.0  0.86500  0.57400  0.50900  1.0000
  F   F25       1.0  0.27400  0.05420  0.75000  1.0000
  F   F26       1.0  0.54600  0.18100  0.75000  1.0000
  F   F27       1.0  0.94600  0.22000  0.75000  1.0000
  F   F28       1.0  0.19500  0.23500  0.75000  1.0000
  F   F29       1.0  0.81900  0.36500  0.75000  1.0000
  F   F30       1.0  0.63500  0.45400  0.75000  1.0000
  F   F31       1.0  0.41100  0.47600  0.75000  1.0000
  F   F32       1.0  0.06480  0.58900  0.75000  1.0000
  F   F33       1.0  0.33300  0.66700  0.75000  1.0000
  F   F34       1.0  0.78000  0.72600  0.75000  1.0000
  F   F35       1.0  0.03910  0.80500  0.75000  1.0000
  F   F36       1.0  0.52400  0.93500  0.75000  1.0000
  F   F37       1.0  0.76500  0.96100  0.75000  1.0000
  F   F38       1.0  0.70900  0.13500  0.99100  1.0000
  F   F39       1.0  0.86500  0.57400  0.99100  1.0000
  F   F40       1.0  0.42600  0.29100  0.99100  1.0000
  Zr  Zr1       1.0  0.13500  0.41300  0.25000  1.0000
  Zr  Zr2       1.0  0.58700  0.72200  0.25000  1.0000
  Zr  Zr3       1.0  0.27800  0.86500  0.25000  1.0000
  Zr  Zr4       1.0  0.72200  0.13500  0.75000  1.0000
  Zr  Zr5       1.0  0.41300  0.27800  0.75000  1.0000
  Zr  Zr6       1.0  0.86500  0.58700  0.75000  1.0000
