data_image0
_chemical_formula_structural       Ag4O4Sb4Te4
_chemical_formula_sum              "Ag4 O4 Sb4 Te4"
_cell_length_a       6.7397
_cell_length_b       7.45245
_cell_length_c       7.25369
_cell_angle_alpha    90
_cell_angle_beta     95.1747
_cell_angle_gamma    90

_space_group_name_H-M_alt    "P 1"
_space_group_IT_number       1

loop_
  _space_group_symop_operation_xyz
  'x, y, z'

loop_
  _atom_site_type_symbol
  _atom_site_label
  _atom_site_symmetry_multiplicity
  _atom_site_fract_x
  _atom_site_fract_y
  _atom_site_fract_z
  _atom_site_occupancy
  Ag  Ag1       1.0  0.97000  0.30600  0.00746  1.0000
  Ag  Ag2       1.0  0.03000  0.80600  0.49300  1.0000
  Ag  Ag3       1.0  0.97000  0.19400  0.50700  1.0000
  Ag  Ag4       1.0  0.03000  0.69400  0.99300  1.0000
  O   O1        1.0  0.55600  0.33100  0.03560  1.0000
  O   O2        1.0  0.44400  0.83100  0.46400  1.0000
  O   O3        1.0  0.55600  0.16900  0.53600  1.0000
  O   O4        1.0  0.44400  0.66900  0.96400  1.0000
  Sb  Sb1       1.0  0.56800  0.55500  0.20400  1.0000
  Sb  Sb2       1.0  0.43200  0.05520  0.29600  1.0000
  Sb  Sb3       1.0  0.56800  0.94500  0.70400  1.0000
  Sb  Sb4       1.0  0.43200  0.44500  0.79600  1.0000
  Te  Te1       1.0  0.82500  0.98200  0.18300  1.0000
  Te  Te2       1.0  0.17500  0.48200  0.31700  1.0000
  Te  Te3       1.0  0.82500  0.51800  0.68300  1.0000
  Te  Te4       1.0  0.17500  0.01800  0.81700  1.0000
