data_image0
_chemical_formula_structural       Ag2Cd6F40Hf6
_chemical_formula_sum              "Ag2 Cd6 F40 Hf6"
_cell_length_a       10.3946
_cell_length_b       10.3944
_cell_length_c       8.25237
_cell_angle_alpha    90
_cell_angle_beta     90
_cell_angle_gamma    120

_space_group_name_H-M_alt    "P 1"
_space_group_IT_number       1

loop_
  _space_group_symop_operation_xyz
  'x, y, z'

loop_
  _atom_site_type_symbol
  _atom_site_label
  _atom_site_symmetry_multiplicity
  _atom_site_fract_x
  _atom_site_fract_y
  _atom_site_fract_z
  _atom_site_occupancy
  Ag  Ag1       1.0  0.00000  0.00000  0.25000  1.0000
  Ag  Ag2       1.0  0.00000  0.00000  0.75000  1.0000
  Cd  Cd1       1.0  0.72900  0.16200  0.25000  1.0000
  Cd  Cd2       1.0  0.43300  0.27100  0.25000  1.0000
  Cd  Cd3       1.0  0.83800  0.56700  0.25000  1.0000
  Cd  Cd4       1.0  0.16200  0.43300  0.75000  1.0000
  Cd  Cd5       1.0  0.56700  0.72900  0.75000  1.0000
  Cd  Cd6       1.0  0.27100  0.83800  0.75000  1.0000
  F   F1        1.0  0.00000  0.00000  0.00000  1.0000
  F   F2        1.0  0.28600  0.86000  0.01180  1.0000
  F   F3        1.0  0.57400  0.71400  0.01180  1.0000
  F   F4        1.0  0.14000  0.42600  0.01180  1.0000
  F   F5        1.0  0.23600  0.03680  0.25000  1.0000
  F   F6        1.0  0.47500  0.06120  0.25000  1.0000
  F   F7        1.0  0.96300  0.19900  0.25000  1.0000
  F   F8        1.0  0.22000  0.27700  0.25000  1.0000
  F   F9        1.0  0.66700  0.33300  0.25000  1.0000
  F   F10       1.0  0.93900  0.41400  0.25000  1.0000
  F   F11       1.0  0.58600  0.52500  0.25000  1.0000
  F   F12       1.0  0.36500  0.54800  0.25000  1.0000
  F   F13       1.0  0.18300  0.63500  0.25000  1.0000
  F   F14       1.0  0.80100  0.76400  0.25000  1.0000
  F   F15       1.0  0.05620  0.78000  0.25000  1.0000
  F   F16       1.0  0.45200  0.81700  0.25000  1.0000
  F   F17       1.0  0.72300  0.94400  0.25000  1.0000
  F   F18       1.0  0.14000  0.42600  0.48800  1.0000
  F   F19       1.0  0.57400  0.71400  0.48800  1.0000
  F   F20       1.0  0.28600  0.86000  0.48800  1.0000
  F   F21       1.0  0.00000  0.00000  0.50000  1.0000
  F   F22       1.0  0.71400  0.14000  0.51200  1.0000
  F   F23       1.0  0.42600  0.28600  0.51200  1.0000
  F   F24       1.0  0.86000  0.57400  0.51200  1.0000
  F   F25       1.0  0.27700  0.05620  0.75000  1.0000
  F   F26       1.0  0.54800  0.18300  0.75000  1.0000
  F   F27       1.0  0.94400  0.22000  0.75000  1.0000
  F   F28       1.0  0.19900  0.23600  0.75000  1.0000
  F   F29       1.0  0.81700  0.36500  0.75000  1.0000
  F   F30       1.0  0.63500  0.45200  0.75000  1.0000
  F   F31       1.0  0.41400  0.47500  0.75000  1.0000
  F   F32       1.0  0.06120  0.58600  0.75000  1.0000
  F   F33       1.0  0.33300  0.66700  0.75000  1.0000
  F   F34       1.0  0.78000  0.72300  0.75000  1.0000
  F   F35       1.0  0.03680  0.80100  0.75000  1.0000
  F   F36       1.0  0.52500  0.93900  0.75000  1.0000
  F   F37       1.0  0.76400  0.96300  0.75000  1.0000
  F   F38       1.0  0.86000  0.57400  0.98800  1.0000
  F   F39       1.0  0.42600  0.28600  0.98800  1.0000
  F   F40       1.0  0.71400  0.14000  0.98800  1.0000
  Hf  Hf1       1.0  0.13600  0.41500  0.25000  1.0000
  Hf  Hf2       1.0  0.58500  0.72100  0.25000  1.0000
  Hf  Hf3       1.0  0.27900  0.86400  0.25000  1.0000
  Hf  Hf4       1.0  0.72100  0.13600  0.75000  1.0000
  Hf  Hf5       1.0  0.41500  0.27900  0.75000  1.0000
  Hf  Hf6       1.0  0.86400  0.58500  0.75000  1.0000
