data_image0
_chemical_formula_structural       Ag4C14Cs6N14S14Sr2
_chemical_formula_sum              "Ag4 C14 Cs6 N14 S14 Sr2"
_cell_length_a       12.7223
_cell_length_b       11.1116
_cell_length_c       11.1116
_cell_angle_alpha    90
_cell_angle_beta     115.893
_cell_angle_gamma    115.893

_space_group_name_H-M_alt    "P 1"
_space_group_IT_number       1

loop_
  _space_group_symop_operation_xyz
  'x, y, z'

loop_
  _atom_site_type_symbol
  _atom_site_label
  _atom_site_symmetry_multiplicity
  _atom_site_fract_x
  _atom_site_fract_y
  _atom_site_fract_z
  _atom_site_occupancy
  Ag  Ag1       1.0  0.81100  0.56200  0.24900  1.0000
  Ag  Ag2       1.0  0.18900  0.43800  0.43800  1.0000
  Ag  Ag3       1.0  0.81100  0.24900  0.56200  1.0000
  Ag  Ag4       1.0  0.18900  0.75100  0.75100  1.0000
  C   C1        1.0  0.29600  0.83400  0.08270  1.0000
  C   C2        1.0  0.70400  0.78700  0.16600  1.0000
  C   C3        1.0  0.98000  0.19400  0.19400  1.0000
  C   C4        1.0  0.29600  0.46200  0.21300  1.0000
  C   C5        1.0  0.02000  0.80600  0.21400  1.0000
  C   C6        1.0  0.58300  0.29200  0.29200  1.0000
  C   C7        1.0  0.29600  0.21300  0.46200  1.0000
  C   C8        1.0  0.70400  0.91700  0.53800  1.0000
  C   C9        1.0  0.41700  0.70800  0.70800  1.0000
  C   C10       1.0  0.98000  0.78600  0.78600  1.0000
  C   C11       1.0  0.70400  0.16600  0.78700  1.0000
  C   C12       1.0  0.02000  0.21400  0.80600  1.0000
  C   C13       1.0  0.29600  0.08270  0.83400  1.0000
  C   C14       1.0  0.70400  0.53800  0.91700  1.0000
  Cs  Cs1       1.0  0.00000  0.50000  0.00000  1.0000
  Cs  Cs2       1.0  0.59200  0.05790  0.05790  1.0000
  Cs  Cs3       1.0  0.40800  0.94200  0.46500  1.0000
  Cs  Cs4       1.0  0.00000  0.00000  0.50000  1.0000
  Cs  Cs5       1.0  0.59200  0.53500  0.53500  1.0000
  Cs  Cs6       1.0  0.40800  0.46500  0.94200  1.0000
  N   N1        1.0  0.71700  0.86000  0.09000  1.0000
  N   N2        1.0  0.99500  0.86800  0.12800  1.0000
  N   N3        1.0  0.00460  0.13200  0.13200  1.0000
  N   N4        1.0  0.28300  0.37300  0.14000  1.0000
  N   N5        1.0  0.28300  0.91000  0.14200  1.0000
  N   N6        1.0  0.46500  0.23300  0.23300  1.0000
  N   N7        1.0  0.28300  0.14000  0.37300  1.0000
  N   N8        1.0  0.71700  0.85800  0.62700  1.0000
  N   N9        1.0  0.53500  0.76700  0.76700  1.0000
  N   N10       1.0  0.71700  0.62700  0.85800  1.0000
  N   N11       1.0  0.71700  0.09000  0.86000  1.0000
  N   N12       1.0  0.99500  0.12800  0.86800  1.0000
  N   N13       1.0  0.00460  0.87200  0.87200  1.0000
  N   N14       1.0  0.28300  0.14200  0.91000  1.0000
  S   S1        1.0  0.68600  0.41500  0.00000  1.0000
  S   S2        1.0  0.31400  0.72900  0.00000  1.0000
  S   S3        1.0  0.68600  0.68600  0.27100  1.0000
  S   S4        1.0  0.94300  0.27700  0.27700  1.0000
  S   S5        1.0  0.31400  0.58500  0.31400  1.0000
  S   S6        1.0  0.05740  0.72300  0.33500  1.0000
  S   S7        1.0  0.74800  0.37400  0.37400  1.0000
  S   S8        1.0  0.68600  0.00000  0.41500  1.0000
  S   S9        1.0  0.31400  0.31400  0.58500  1.0000
  S   S10       1.0  0.25200  0.62600  0.62600  1.0000
  S   S11       1.0  0.94300  0.66500  0.66500  1.0000
  S   S12       1.0  0.68600  0.27100  0.68600  1.0000
  S   S13       1.0  0.05740  0.33500  0.72300  1.0000
  S   S14       1.0  0.31400  0.00000  0.72900  1.0000
  Sr  Sr1       1.0  0.19200  0.09590  0.09590  1.0000
  Sr  Sr2       1.0  0.80800  0.90400  0.90400  1.0000
