data_image0
_chemical_formula_structural       Co3Mn6O27Sr12
_chemical_formula_sum              "Co3 Mn6 O27 Sr12"
_cell_length_a       9.553
_cell_length_b       9.55851
_cell_length_c       7.82333
_cell_angle_alpha    90
_cell_angle_beta     89.9762
_cell_angle_gamma    120.019

_space_group_name_H-M_alt    "P 1"
_space_group_IT_number       1

loop_
  _space_group_symop_operation_xyz
  'x, y, z'

loop_
  _atom_site_type_symbol
  _atom_site_label
  _atom_site_symmetry_multiplicity
  _atom_site_fract_x
  _atom_site_fract_y
  _atom_site_fract_z
  _atom_site_occupancy
  Co  Co1       1.0  0.67200  0.33700  0.25800  1.0000
  Co  Co2       1.0  0.00000  0.99600  0.50000  1.0000
  Co  Co3       1.0  0.32800  0.66500  0.74200  1.0000
  Mn  Mn1       1.0  0.33400  0.66600  0.07420  1.0000
  Mn  Mn2       1.0  0.00056  0.00058  0.16500  1.0000
  Mn  Mn3       1.0  0.33400  0.66700  0.40600  1.0000
  Mn  Mn4       1.0  0.66600  0.33400  0.59400  1.0000
  Mn  Mn5       1.0  0.99900  0.00000  0.83500  1.0000
  Mn  Mn6       1.0  0.66600  0.33200  0.92600  1.0000
  O   O1        1.0  0.00000  0.84700  0.00000  1.0000
  O   O2        1.0  0.84700  1.00000  0.00069  1.0000
  O   O3        1.0  0.68000  0.18200  0.06280  1.0000
  O   O4        1.0  0.50200  0.31800  0.06390  1.0000
  O   O5        1.0  0.81700  0.49800  0.06410  1.0000
  O   O6        1.0  0.35000  0.83200  0.24100  1.0000
  O   O7        1.0  0.48200  0.65000  0.24200  1.0000
  O   O8        1.0  0.16800  0.51800  0.24200  1.0000
  O   O9        1.0  0.16800  0.00979  0.30100  1.0000
  O   O10       1.0  0.99300  0.15800  0.30200  1.0000
  O   O11       1.0  0.84300  0.83500  0.30500  1.0000
  O   O12       1.0  0.68300  0.18200  0.45500  1.0000
  O   O13       1.0  0.81900  0.50300  0.45500  1.0000
  O   O14       1.0  0.49800  0.31700  0.45700  1.0000
  O   O15       1.0  0.50200  0.82000  0.54300  1.0000
  O   O16       1.0  0.18100  0.68400  0.54500  1.0000
  O   O17       1.0  0.31700  0.49900  0.54500  1.0000
  O   O18       1.0  0.15700  0.99200  0.69500  1.0000
  O   O19       1.0  0.00746  0.16600  0.69800  1.0000
  O   O20       1.0  0.83200  0.84200  0.69900  1.0000
  O   O21       1.0  0.83200  0.35000  0.75800  1.0000
  O   O22       1.0  0.51800  0.16800  0.75800  1.0000
  O   O23       1.0  0.65000  0.48200  0.75900  1.0000
  O   O24       1.0  0.18300  0.68100  0.93600  1.0000
  O   O25       1.0  0.49800  0.81600  0.93600  1.0000
  O   O26       1.0  0.32000  0.50200  0.93700  1.0000
  O   O27       1.0  0.15300  0.15300  0.99900  1.0000
  Sr  Sr1       1.0  0.00000  0.32800  0.00000  1.0000
  Sr  Sr2       1.0  0.33100  0.00143  0.00166  1.0000
  Sr  Sr3       1.0  0.02620  0.69200  0.24900  1.0000
  Sr  Sr4       1.0  0.30800  0.33300  0.25000  1.0000
  Sr  Sr5       1.0  0.66700  0.97500  0.25000  1.0000
  Sr  Sr6       1.0  0.36100  0.00120  0.49900  1.0000
  Sr  Sr7       1.0  0.00000  0.35800  0.50000  1.0000
  Sr  Sr8       1.0  0.63900  0.64100  0.50100  1.0000
  Sr  Sr9       1.0  0.33300  0.30800  0.75000  1.0000
  Sr  Sr10      1.0  0.69200  0.02470  0.75000  1.0000
  Sr  Sr11      1.0  0.97400  0.66600  0.75100  1.0000
  Sr  Sr12      1.0  0.66900  0.67100  0.99800  1.0000
