data_image0
_chemical_formula_structural       Ca4Cr8O32P8
_chemical_formula_sum              "Ca4 Cr8 O32 P8"
_cell_length_a       4.98119
_cell_length_b       9.04488
_cell_length_c       14.9303
_cell_angle_alpha    89.7813
_cell_angle_beta     99.6026
_cell_angle_gamma    105.983

_space_group_name_H-M_alt    "P 1"
_space_group_IT_number       1

loop_
  _space_group_symop_operation_xyz
  'x, y, z'

loop_
  _atom_site_type_symbol
  _atom_site_label
  _atom_site_symmetry_multiplicity
  _atom_site_fract_x
  _atom_site_fract_y
  _atom_site_fract_z
  _atom_site_occupancy
  Ca  Ca1       1.0  0.66700  0.83600  0.13800  1.0000
  Ca  Ca2       1.0  0.19200  0.66400  0.36200  1.0000
  Ca  Ca3       1.0  0.80800  0.33600  0.63800  1.0000
  Ca  Ca4       1.0  0.33300  0.16400  0.86200  1.0000
  Cr  Cr1       1.0  0.50000  0.50000  0.00000  1.0000
  Cr  Cr2       1.0  0.88000  0.23200  0.03790  1.0000
  Cr  Cr3       1.0  0.96000  0.25000  0.25000  1.0000
  Cr  Cr4       1.0  0.11000  0.26800  0.46200  1.0000
  Cr  Cr5       1.0  0.50000  0.00000  0.50000  1.0000
  Cr  Cr6       1.0  0.89000  0.73200  0.53800  1.0000
  Cr  Cr7       1.0  0.04030  0.75000  0.75000  1.0000
  Cr  Cr8       1.0  0.12000  0.76800  0.96200  1.0000
  O   O1        1.0  0.37800  0.19100  0.03500  1.0000
  O   O2        1.0  0.24300  0.60800  0.05010  1.0000
  O   O3        1.0  0.24800  0.90800  0.07410  1.0000
  O   O4        1.0  0.79900  0.60800  0.10900  1.0000
  O   O5        1.0  0.01630  0.08900  0.13500  1.0000
  O   O6        1.0  0.02960  0.39300  0.14400  1.0000
  O   O7        1.0  0.53800  0.09770  0.19400  1.0000
  O   O8        1.0  0.27800  0.66200  0.21600  1.0000
  O   O9        1.0  0.90000  0.83800  0.28400  1.0000
  O   O10       1.0  0.74700  0.40200  0.30600  1.0000
  O   O11       1.0  0.99300  0.10700  0.35600  1.0000
  O   O12       1.0  0.29200  0.41100  0.36500  1.0000
  O   O13       1.0  0.58200  0.89200  0.39100  1.0000
  O   O14       1.0  0.76600  0.59200  0.42600  1.0000
  O   O15       1.0  0.08470  0.89200  0.45000  1.0000
  O   O16       1.0  0.65100  0.30900  0.46500  1.0000
  O   O17       1.0  0.34900  0.69100  0.53500  1.0000
  O   O18       1.0  0.91500  0.10800  0.55000  1.0000
  O   O19       1.0  0.23400  0.40800  0.57400  1.0000
  O   O20       1.0  0.41800  0.10800  0.60900  1.0000
  O   O21       1.0  0.70800  0.58900  0.63500  1.0000
  O   O22       1.0  0.00725  0.89300  0.64400  1.0000
  O   O23       1.0  0.25300  0.59800  0.69400  1.0000
  O   O24       1.0  0.09970  0.16200  0.71600  1.0000
  O   O25       1.0  0.72200  0.33800  0.78400  1.0000
  O   O26       1.0  0.46200  0.90200  0.80600  1.0000
  O   O27       1.0  0.97000  0.60700  0.85600  1.0000
  O   O28       1.0  0.98400  0.91100  0.86500  1.0000
  O   O29       1.0  0.20100  0.39200  0.89100  1.0000
  O   O30       1.0  0.75200  0.09230  0.92600  1.0000
  O   O31       1.0  0.75700  0.39200  0.95000  1.0000
  O   O32       1.0  0.62200  0.80900  0.96500  1.0000
  P   P1        1.0  0.30600  0.07660  0.11100  1.0000
  P   P2        1.0  0.08560  0.56900  0.13400  1.0000
  P   P3        1.0  0.88200  0.93100  0.36600  1.0000
  P   P4        1.0  0.61900  0.42300  0.38900  1.0000
  P   P5        1.0  0.38100  0.57700  0.61100  1.0000
  P   P6        1.0  0.11800  0.06910  0.63400  1.0000
  P   P7        1.0  0.91400  0.43100  0.86600  1.0000
  P   P8        1.0  0.69400  0.92300  0.88900  1.0000
