data_image0
_chemical_formula_structural       Bi4Sb2
_chemical_formula_sum              "Bi4 Sb2"
_cell_length_a       7.89183
_cell_length_b       6.63779
_cell_length_c       3.98586
_cell_angle_alpha    90
_cell_angle_beta     90
_cell_angle_gamma    90

_space_group_name_H-M_alt    "P 1"
_space_group_IT_number       1

loop_
  _space_group_symop_operation_xyz
  'x, y, z'

loop_
  _atom_site_type_symbol
  _atom_site_label
  _atom_site_symmetry_multiplicity
  _atom_site_fract_x
  _atom_site_fract_y
  _atom_site_fract_z
  _atom_site_occupancy
  Bi  Bi1       1.0  0.12900  0.32800  0.00000  1.0000
  Bi  Bi2       1.0  0.87100  0.67200  0.00000  1.0000
  Bi  Bi3       1.0  0.62900  0.17200  0.50000  1.0000
  Bi  Bi4       1.0  0.37100  0.82800  0.50000  1.0000
  Sb  Sb1       1.0  0.50000  0.50000  0.00000  1.0000
  Sb  Sb2       1.0  0.00000  0.00000  0.50000  1.0000
