data_image0
_chemical_formula_structural       Ce2K4N12O36
_chemical_formula_sum              "Ce2 K4 N12 O36"
_cell_length_a       12.4048
_cell_length_b       6.63211
_cell_length_c       8.15783
_cell_angle_alpha    90
_cell_angle_beta     91.7546
_cell_angle_gamma    90

_space_group_name_H-M_alt    "P 1"
_space_group_IT_number       1

loop_
  _space_group_symop_operation_xyz
  'x, y, z'

loop_
  _atom_site_type_symbol
  _atom_site_label
  _atom_site_symmetry_multiplicity
  _atom_site_fract_x
  _atom_site_fract_y
  _atom_site_fract_z
  _atom_site_occupancy
  Ce  Ce1       1.0  0.00000  0.00000  0.00000  1.0000
  Ce  Ce2       1.0  0.50000  0.50000  0.50000  1.0000
  K   K1        1.0  0.65700  0.22500  0.04730  1.0000
  K   K2        1.0  0.84300  0.72500  0.45300  1.0000
  K   K3        1.0  0.15700  0.27500  0.54700  1.0000
  K   K4        1.0  0.34300  0.77500  0.95300  1.0000
  N   N1        1.0  0.80700  0.71900  0.03630  1.0000
  N   N2        1.0  0.55200  0.75000  0.20500  1.0000
  N   N3        1.0  0.11700  0.70000  0.22900  1.0000
  N   N4        1.0  0.38300  0.20000  0.27100  1.0000
  N   N5        1.0  0.94800  0.25000  0.29500  1.0000
  N   N6        1.0  0.69300  0.21900  0.46400  1.0000
  N   N7        1.0  0.30700  0.78100  0.53600  1.0000
  N   N8        1.0  0.05220  0.75000  0.70500  1.0000
  N   N9        1.0  0.61700  0.80000  0.72900  1.0000
  N   N10       1.0  0.88300  0.30000  0.77100  1.0000
  N   N11       1.0  0.44800  0.25000  0.79500  1.0000
  N   N12       1.0  0.19300  0.28100  0.96400  1.0000
  O   O1        1.0  0.73500  0.59500  0.05960  1.0000
  O   O2        1.0  0.12600  0.30300  0.07600  1.0000
  O   O3        1.0  0.55800  0.86700  0.08840  1.0000
  O   O4        1.0  0.81700  0.87600  0.12700  1.0000
  O   O5        1.0  0.16600  0.84300  0.15500  1.0000
  O   O6        1.0  0.90100  0.28400  0.15700  1.0000
  O   O7        1.0  0.33300  0.08280  0.18100  1.0000
  O   O8        1.0  0.49600  0.58800  0.19000  1.0000
  O   O9        1.0  0.01620  0.68700  0.20200  1.0000
  O   O10       1.0  0.48400  0.18700  0.29800  1.0000
  O   O11       1.0  0.00446  0.08840  0.31000  1.0000
  O   O12       1.0  0.16700  0.58300  0.31900  1.0000
  O   O13       1.0  0.59900  0.78400  0.34300  1.0000
  O   O14       1.0  0.33400  0.34300  0.34500  1.0000
  O   O15       1.0  0.68300  0.37600  0.37300  1.0000
  O   O16       1.0  0.94200  0.36700  0.41200  1.0000
  O   O17       1.0  0.37400  0.80300  0.42400  1.0000
  O   O18       1.0  0.76500  0.09460  0.44000  1.0000
  O   O19       1.0  0.23500  0.90500  0.56000  1.0000
  O   O20       1.0  0.62600  0.19700  0.57600  1.0000
  O   O21       1.0  0.05830  0.63300  0.58800  1.0000
  O   O22       1.0  0.31700  0.62400  0.62700  1.0000
  O   O23       1.0  0.66600  0.65700  0.65500  1.0000
  O   O24       1.0  0.40100  0.21600  0.65700  1.0000
  O   O25       1.0  0.83300  0.41700  0.68100  1.0000
  O   O26       1.0  0.99600  0.91200  0.69000  1.0000
  O   O27       1.0  0.51600  0.81300  0.70200  1.0000
  O   O28       1.0  0.98400  0.31300  0.79800  1.0000
  O   O29       1.0  0.50400  0.41200  0.81000  1.0000
  O   O30       1.0  0.66700  0.91700  0.81900  1.0000
  O   O31       1.0  0.09930  0.71600  0.84300  1.0000
  O   O32       1.0  0.83400  0.15700  0.84500  1.0000
  O   O33       1.0  0.18300  0.12400  0.87300  1.0000
  O   O34       1.0  0.44200  0.13300  0.91200  1.0000
  O   O35       1.0  0.87400  0.69700  0.92400  1.0000
  O   O36       1.0  0.26500  0.40500  0.94000  1.0000
