data_image0
_chemical_formula_structural       Cl4F24N8Nb4S4Se8
_chemical_formula_sum              "Cl4 F24 N8 Nb4 S4 Se8"
_cell_length_a       10.0493
_cell_length_b       7.89699
_cell_length_c       11.7085
_cell_angle_alpha    90
_cell_angle_beta     108.336
_cell_angle_gamma    90

_space_group_name_H-M_alt    "P 1"
_space_group_IT_number       1

loop_
  _space_group_symop_operation_xyz
  'x, y, z'

loop_
  _atom_site_type_symbol
  _atom_site_label
  _atom_site_symmetry_multiplicity
  _atom_site_fract_x
  _atom_site_fract_y
  _atom_site_fract_z
  _atom_site_occupancy
  Cl  Cl1       1.0  0.63300  0.19700  0.16600  1.0000
  Cl  Cl2       1.0  0.86700  0.69700  0.33400  1.0000
  Cl  Cl3       1.0  0.13300  0.30300  0.66600  1.0000
  Cl  Cl4       1.0  0.36700  0.80300  0.83400  1.0000
  F   F1        1.0  0.26000  0.59300  0.04760  1.0000
  F   F2        1.0  0.54400  0.63900  0.09530  1.0000
  F   F3        1.0  0.38600  0.90500  0.10500  1.0000
  F   F4        1.0  0.94000  0.27200  0.18500  1.0000
  F   F5        1.0  0.22500  0.24300  0.24000  1.0000
  F   F6        1.0  0.44700  0.46400  0.25000  1.0000
  F   F7        1.0  0.05300  0.96400  0.25000  1.0000
  F   F8        1.0  0.27500  0.74300  0.26000  1.0000
  F   F9        1.0  0.56000  0.77200  0.31500  1.0000
  F   F10       1.0  0.11400  0.40500  0.39500  1.0000
  F   F11       1.0  0.95600  0.13900  0.40500  1.0000
  F   F12       1.0  0.24000  0.09310  0.45200  1.0000
  F   F13       1.0  0.76000  0.90700  0.54800  1.0000
  F   F14       1.0  0.04390  0.86100  0.59500  1.0000
  F   F15       1.0  0.88600  0.59500  0.60500  1.0000
  F   F16       1.0  0.44000  0.22800  0.68500  1.0000
  F   F17       1.0  0.72500  0.25700  0.74000  1.0000
  F   F18       1.0  0.94700  0.03610  0.75000  1.0000
  F   F19       1.0  0.55300  0.53600  0.75000  1.0000
  F   F20       1.0  0.77500  0.75700  0.76000  1.0000
  F   F21       1.0  0.05960  0.72800  0.81500  1.0000
  F   F22       1.0  0.61400  0.09490  0.89500  1.0000
  F   F23       1.0  0.45600  0.36100  0.90500  1.0000
  F   F24       1.0  0.74000  0.40700  0.95200  1.0000
  N   N1        1.0  0.12400  0.11500  0.00146  1.0000
  N   N2        1.0  0.98400  0.61100  0.11800  1.0000
  N   N3        1.0  0.51600  0.11100  0.38200  1.0000
  N   N4        1.0  0.37600  0.61500  0.49900  1.0000
  N   N5        1.0  0.62400  0.38500  0.50100  1.0000
  N   N6        1.0  0.48400  0.88900  0.61800  1.0000
  N   N7        1.0  0.01600  0.38900  0.88200  1.0000
  N   N8        1.0  0.87600  0.88500  0.99900  1.0000
  Nb  Nb1       1.0  0.40800  0.68500  0.18200  1.0000
  Nb  Nb2       1.0  0.09160  0.18500  0.31800  1.0000
  Nb  Nb3       1.0  0.90800  0.81500  0.68200  1.0000
  Nb  Nb4       1.0  0.59200  0.31500  0.81800  1.0000
  S   S1        1.0  0.00864  0.77400  0.04780  1.0000
  S   S2        1.0  0.49100  0.27400  0.45200  1.0000
  S   S3        1.0  0.50900  0.72600  0.54800  1.0000
  S   S4        1.0  0.99100  0.22600  0.95200  1.0000
  Se  Se1       1.0  0.71400  0.82500  0.02190  1.0000
  Se  Se2       1.0  0.82100  0.58800  0.14600  1.0000
  Se  Se3       1.0  0.67900  0.08800  0.35400  1.0000
  Se  Se4       1.0  0.78600  0.32500  0.47800  1.0000
  Se  Se5       1.0  0.21400  0.67500  0.52200  1.0000
  Se  Se6       1.0  0.32100  0.91200  0.64600  1.0000
  Se  Se7       1.0  0.17900  0.41200  0.85400  1.0000
  Se  Se8       1.0  0.28600  0.17500  0.97800  1.0000
