data_image0
_chemical_formula_structural       Ba8In16S32
_chemical_formula_sum              "Ba8 In16 S32"
_cell_length_a       12.8332
_cell_length_b       12.8332
_cell_length_c       12.9324
_cell_angle_alpha    105.444
_cell_angle_beta     105.444
_cell_angle_gamma    117.601

_space_group_name_H-M_alt    "P 1"
_space_group_IT_number       1

loop_
  _space_group_symop_operation_xyz
  'x, y, z'

loop_
  _atom_site_type_symbol
  _atom_site_label
  _atom_site_symmetry_multiplicity
  _atom_site_fract_x
  _atom_site_fract_y
  _atom_site_fract_z
  _atom_site_occupancy
  Ba  Ba1       1.0  0.87200  0.62200  0.24500  1.0000
  Ba  Ba2       1.0  0.87500  0.12500  0.25000  1.0000
  Ba  Ba3       1.0  0.37500  0.62500  0.25000  1.0000
  Ba  Ba4       1.0  0.37800  0.12800  0.25500  1.0000
  Ba  Ba5       1.0  0.62200  0.87200  0.74500  1.0000
  Ba  Ba6       1.0  0.62500  0.37500  0.75000  1.0000
  Ba  Ba7       1.0  0.12500  0.87500  0.75000  1.0000
  Ba  Ba8       1.0  0.12800  0.37800  0.75500  1.0000
  In  In1       1.0  0.46400  0.35700  0.00019  1.0000
  In  In2       1.0  0.03640  0.64300  0.00019  1.0000
  In  In3       1.0  0.11200  0.13900  0.00115  1.0000
  In  In4       1.0  0.38900  0.86300  0.00115  1.0000
  In  In5       1.0  0.13700  0.61100  0.49900  1.0000
  In  In6       1.0  0.86100  0.88800  0.49900  1.0000
  In  In7       1.0  0.64300  0.53600  0.50000  1.0000
  In  In8       1.0  0.35700  0.96400  0.50000  1.0000
  In  In9       1.0  0.64300  0.03640  0.50000  1.0000
  In  In10      1.0  0.35700  0.46400  0.50000  1.0000
  In  In11      1.0  0.13900  0.11200  0.50100  1.0000
  In  In12      1.0  0.86300  0.38900  0.50100  1.0000
  In  In13      1.0  0.61100  0.13700  0.99900  1.0000
  In  In14      1.0  0.88800  0.86100  0.99900  1.0000
  In  In15      1.0  0.96400  0.35700  0.00000  1.0000
  In  In16      1.0  0.53600  0.64300  0.00000  1.0000
  S   S1        1.0  0.15600  0.34600  0.00223  1.0000
  S   S2        1.0  0.34600  0.65600  0.00223  1.0000
  S   S3        1.0  0.31500  0.15200  0.00267  1.0000
  S   S4        1.0  0.18700  0.85100  0.00267  1.0000
  S   S5        1.0  0.08310  0.08280  0.16800  1.0000
  S   S6        1.0  0.58500  0.08550  0.16800  1.0000
  S   S7        1.0  0.08370  0.58400  0.16900  1.0000
  S   S8        1.0  0.58500  0.58500  0.16900  1.0000
  S   S9        1.0  0.41500  0.41500  0.33100  1.0000
  S   S10       1.0  0.41600  0.91600  0.33100  1.0000
  S   S11       1.0  0.91500  0.41500  0.33200  1.0000
  S   S12       1.0  0.91700  0.91700  0.33200  1.0000
  S   S13       1.0  0.84800  0.68500  0.49700  1.0000
  S   S14       1.0  0.14900  0.81300  0.49700  1.0000
  S   S15       1.0  0.34400  0.65400  0.49800  1.0000
  S   S16       1.0  0.65400  0.84400  0.49800  1.0000
  S   S17       1.0  0.34600  0.15600  0.50200  1.0000
  S   S18       1.0  0.65600  0.34600  0.50200  1.0000
  S   S19       1.0  0.85100  0.18700  0.50300  1.0000
  S   S20       1.0  0.15200  0.31500  0.50300  1.0000
  S   S21       1.0  0.08280  0.08310  0.66800  1.0000
  S   S22       1.0  0.08550  0.58500  0.66800  1.0000
  S   S23       1.0  0.58400  0.08370  0.66900  1.0000
  S   S24       1.0  0.58500  0.58500  0.66900  1.0000
  S   S25       1.0  0.41500  0.41500  0.83100  1.0000
  S   S26       1.0  0.91600  0.41600  0.83100  1.0000
  S   S27       1.0  0.41500  0.91500  0.83200  1.0000
  S   S28       1.0  0.91700  0.91700  0.83200  1.0000
  S   S29       1.0  0.81300  0.14900  0.99700  1.0000
  S   S30       1.0  0.68500  0.84800  0.99700  1.0000
  S   S31       1.0  0.65400  0.34400  0.99800  1.0000
  S   S32       1.0  0.84400  0.65400  0.99800  1.0000
