data_image0
_chemical_formula_structural       Al8K24P16
_chemical_formula_sum              "Al8 K24 P16"
_cell_length_a       8.92254
_cell_length_b       11.9043
_cell_length_c       15.2406
_cell_angle_alpha    72.5972
_cell_angle_beta     73.2907
_cell_angle_gamma    71.8603

_space_group_name_H-M_alt    "P 1"
_space_group_IT_number       1

loop_
  _space_group_symop_operation_xyz
  'x, y, z'

loop_
  _atom_site_type_symbol
  _atom_site_label
  _atom_site_symmetry_multiplicity
  _atom_site_fract_x
  _atom_site_fract_y
  _atom_site_fract_z
  _atom_site_occupancy
  Al  Al1       1.0  0.36100  0.73400  0.05450  1.0000
  Al  Al2       1.0  0.84900  0.22200  0.07360  1.0000
  Al  Al3       1.0  0.84600  0.61200  0.49000  1.0000
  Al  Al4       1.0  0.59400  0.85900  0.49200  1.0000
  Al  Al5       1.0  0.40600  0.14100  0.50800  1.0000
  Al  Al6       1.0  0.15400  0.38800  0.51000  1.0000
  Al  Al7       1.0  0.15100  0.77800  0.92600  1.0000
  Al  Al8       1.0  0.63900  0.26600  0.94600  1.0000
  K   K1        1.0  0.17700  0.38100  0.02320  1.0000
  K   K2        1.0  0.31600  0.08400  0.02350  1.0000
  K   K3        1.0  0.96800  0.90300  0.15100  1.0000
  K   K4        1.0  0.51400  0.42600  0.16100  1.0000
  K   K5        1.0  0.84100  0.58000  0.24200  1.0000
  K   K6        1.0  0.46700  0.91700  0.25500  1.0000
  K   K7        1.0  0.65600  0.08440  0.30600  1.0000
  K   K8        1.0  0.18300  0.60200  0.30800  1.0000
  K   K9        1.0  0.19000  0.23600  0.31900  1.0000
  K   K10       1.0  0.77500  0.25500  0.38100  1.0000
  K   K11       1.0  0.01550  0.89300  0.41500  1.0000
  K   K12       1.0  0.49100  0.62500  0.41600  1.0000
  K   K13       1.0  0.50900  0.37500  0.58400  1.0000
  K   K14       1.0  0.98500  0.10700  0.58500  1.0000
  K   K15       1.0  0.22500  0.74500  0.61900  1.0000
  K   K16       1.0  0.81000  0.76400  0.68100  1.0000
  K   K17       1.0  0.81700  0.39800  0.69200  1.0000
  K   K18       1.0  0.34400  0.91600  0.69400  1.0000
  K   K19       1.0  0.53300  0.08340  0.74500  1.0000
  K   K20       1.0  0.15900  0.42000  0.75800  1.0000
  K   K21       1.0  0.48600  0.57400  0.83900  1.0000
  K   K22       1.0  0.03190  0.09670  0.84900  1.0000
  K   K23       1.0  0.68400  0.91600  0.97700  1.0000
  K   K24       1.0  0.82300  0.61900  0.97700  1.0000
  P   P1        1.0  0.15900  0.63400  0.07110  1.0000
  P   P2        1.0  0.64000  0.12700  0.09040  1.0000
  P   P3        1.0  0.51800  0.70400  0.15600  1.0000
  P   P4        1.0  0.00210  0.17500  0.18100  1.0000
  P   P5        1.0  0.78200  0.78200  0.35800  1.0000
  P   P6        1.0  0.40500  0.33700  0.39500  1.0000
  P   P7        1.0  0.90600  0.41100  0.46000  1.0000
  P   P8        1.0  0.33000  0.98500  0.46200  1.0000
  P   P9        1.0  0.67000  0.01450  0.53800  1.0000
  P   P10       1.0  0.09410  0.58900  0.54000  1.0000
  P   P11       1.0  0.59500  0.66300  0.60500  1.0000
  P   P12       1.0  0.21800  0.21800  0.64200  1.0000
  P   P13       1.0  0.99800  0.82500  0.81900  1.0000
  P   P14       1.0  0.48200  0.29600  0.84400  1.0000
  P   P15       1.0  0.36000  0.87300  0.91000  1.0000
  P   P16       1.0  0.84100  0.36600  0.92900  1.0000
