data_image0
_chemical_formula_structural       Cs4O32Sb4V8
_chemical_formula_sum              "Cs4 O32 Sb4 V8"
_cell_length_a       5.64493
_cell_length_b       15.9053
_cell_length_c       8.3363
_cell_angle_alpha    90
_cell_angle_beta     90.5307
_cell_angle_gamma    90

_space_group_name_H-M_alt    "P 1"
_space_group_IT_number       1

loop_
  _space_group_symop_operation_xyz
  'x, y, z'

loop_
  _atom_site_type_symbol
  _atom_site_label
  _atom_site_symmetry_multiplicity
  _atom_site_fract_x
  _atom_site_fract_y
  _atom_site_fract_z
  _atom_site_occupancy
  Cs  Cs1       1.0  0.73500  0.21200  0.00752  1.0000
  Cs  Cs2       1.0  0.76500  0.71200  0.49200  1.0000
  Cs  Cs3       1.0  0.23500  0.28800  0.50800  1.0000
  Cs  Cs4       1.0  0.26500  0.78800  0.99200  1.0000
  O   O1        1.0  0.75400  0.51000  0.03390  1.0000
  O   O2        1.0  0.74300  0.88200  0.05750  1.0000
  O   O3        1.0  0.73600  0.68400  0.10200  1.0000
  O   O4        1.0  0.97700  0.36300  0.14600  1.0000
  O   O5        1.0  0.93600  0.03720  0.16300  1.0000
  O   O6        1.0  0.49100  0.37500  0.17200  1.0000
  O   O7        1.0  0.44900  0.00533  0.18100  1.0000
  O   O8        1.0  0.23800  0.66300  0.24800  1.0000
  O   O9        1.0  0.26200  0.16300  0.25200  1.0000
  O   O10       1.0  0.05120  0.50500  0.31900  1.0000
  O   O11       1.0  0.00871  0.87500  0.32800  1.0000
  O   O12       1.0  0.56400  0.53700  0.33700  1.0000
  O   O13       1.0  0.52300  0.86300  0.35400  1.0000
  O   O14       1.0  0.76400  0.18400  0.39800  1.0000
  O   O15       1.0  0.75700  0.38200  0.44300  1.0000
  O   O16       1.0  0.74600  0.00996  0.46600  1.0000
  O   O17       1.0  0.25400  0.99000  0.53400  1.0000
  O   O18       1.0  0.24300  0.61800  0.55700  1.0000
  O   O19       1.0  0.23600  0.81600  0.60200  1.0000
  O   O20       1.0  0.47700  0.13700  0.64600  1.0000
  O   O21       1.0  0.43600  0.46300  0.66300  1.0000
  O   O22       1.0  0.99100  0.12500  0.67200  1.0000
  O   O23       1.0  0.94900  0.49500  0.68100  1.0000
  O   O24       1.0  0.73800  0.83700  0.74800  1.0000
  O   O25       1.0  0.76200  0.33700  0.75200  1.0000
  O   O26       1.0  0.55100  0.99500  0.81900  1.0000
  O   O27       1.0  0.50900  0.62500  0.82800  1.0000
  O   O28       1.0  0.06360  0.96300  0.83700  1.0000
  O   O29       1.0  0.02340  0.63700  0.85400  1.0000
  O   O30       1.0  0.26400  0.31600  0.89800  1.0000
  O   O31       1.0  0.25700  0.11800  0.94300  1.0000
  O   O32       1.0  0.24600  0.49000  0.96600  1.0000
  Sb  Sb1       1.0  0.75900  0.44700  0.24100  1.0000
  Sb  Sb2       1.0  0.74100  0.94700  0.25900  1.0000
  Sb  Sb3       1.0  0.25900  0.05250  0.74100  1.0000
  Sb  Sb4       1.0  0.24100  0.55300  0.75900  1.0000
  V   V1        1.0  0.24400  0.38700  0.03890  1.0000
  V   V2        1.0  0.22700  0.07890  0.14200  1.0000
  V   V3        1.0  0.27300  0.57900  0.35800  1.0000
  V   V4        1.0  0.25600  0.88700  0.46100  1.0000
  V   V5        1.0  0.74400  0.11300  0.53900  1.0000
  V   V6        1.0  0.72700  0.42100  0.64200  1.0000
  V   V7        1.0  0.77300  0.92100  0.85800  1.0000
  V   V8        1.0  0.75600  0.61300  0.96100  1.0000
