data_image0
_chemical_formula_structural       Ba4Nd8O28Sc8
_chemical_formula_sum              "Ba4 Nd8 O28 Sc8"
_cell_length_a       5.79897
_cell_length_b       5.79897
_cell_length_c       20.2704
_cell_angle_alpha    90
_cell_angle_beta     90
_cell_angle_gamma    90

_space_group_name_H-M_alt    "P 1"
_space_group_IT_number       1

loop_
  _space_group_symop_operation_xyz
  'x, y, z'

loop_
  _atom_site_type_symbol
  _atom_site_label
  _atom_site_symmetry_multiplicity
  _atom_site_fract_x
  _atom_site_fract_y
  _atom_site_fract_z
  _atom_site_occupancy
  Ba  Ba1       1.0  0.26000  0.26000  0.00000  1.0000
  Ba  Ba2       1.0  0.74000  0.74000  0.00000  1.0000
  Ba  Ba3       1.0  0.76000  0.24000  0.50000  1.0000
  Ba  Ba4       1.0  0.24000  0.76000  0.50000  1.0000
  Nd  Nd1       1.0  0.27500  0.27500  0.18400  1.0000
  Nd  Nd2       1.0  0.72500  0.72500  0.18400  1.0000
  Nd  Nd3       1.0  0.77500  0.22500  0.31600  1.0000
  Nd  Nd4       1.0  0.22500  0.77500  0.31600  1.0000
  Nd  Nd5       1.0  0.77500  0.22500  0.68400  1.0000
  Nd  Nd6       1.0  0.22500  0.77500  0.68400  1.0000
  Nd  Nd7       1.0  0.27500  0.27500  0.81600  1.0000
  Nd  Nd8       1.0  0.72500  0.72500  0.81600  1.0000
  O   O1        1.0  0.78600  0.21400  0.00000  1.0000
  O   O2        1.0  0.21400  0.78600  0.00000  1.0000
  O   O3        1.0  0.50000  0.50000  0.09390  1.0000
  O   O4        1.0  0.50000  0.00000  0.11400  1.0000
  O   O5        1.0  0.00000  0.50000  0.11400  1.0000
  O   O6        1.0  0.00000  0.00000  0.13000  1.0000
  O   O7        1.0  0.68600  0.31400  0.21000  1.0000
  O   O8        1.0  0.31400  0.68600  0.21000  1.0000
  O   O9        1.0  0.18600  0.18600  0.29000  1.0000
  O   O10       1.0  0.81400  0.81400  0.29000  1.0000
  O   O11       1.0  0.50000  0.50000  0.37000  1.0000
  O   O12       1.0  0.50000  0.00000  0.38600  1.0000
  O   O13       1.0  0.00000  0.50000  0.38600  1.0000
  O   O14       1.0  0.00000  0.00000  0.40600  1.0000
  O   O15       1.0  0.28600  0.28600  0.50000  1.0000
  O   O16       1.0  0.71400  0.71400  0.50000  1.0000
  O   O17       1.0  0.00000  0.00000  0.59400  1.0000
  O   O18       1.0  0.50000  0.00000  0.61400  1.0000
  O   O19       1.0  0.00000  0.50000  0.61400  1.0000
  O   O20       1.0  0.50000  0.50000  0.63000  1.0000
  O   O21       1.0  0.18600  0.18600  0.71000  1.0000
  O   O22       1.0  0.81400  0.81400  0.71000  1.0000
  O   O23       1.0  0.68600  0.31400  0.79000  1.0000
  O   O24       1.0  0.31400  0.68600  0.79000  1.0000
  O   O25       1.0  0.00000  0.00000  0.87000  1.0000
  O   O26       1.0  0.50000  0.00000  0.88600  1.0000
  O   O27       1.0  0.00000  0.50000  0.88600  1.0000
  O   O28       1.0  0.50000  0.50000  0.90600  1.0000
  Sc  Sc1       1.0  0.75800  0.24200  0.10200  1.0000
  Sc  Sc2       1.0  0.24200  0.75800  0.10200  1.0000
  Sc  Sc3       1.0  0.25800  0.25800  0.39800  1.0000
  Sc  Sc4       1.0  0.74200  0.74200  0.39800  1.0000
  Sc  Sc5       1.0  0.25800  0.25800  0.60200  1.0000
  Sc  Sc6       1.0  0.74200  0.74200  0.60200  1.0000
  Sc  Sc7       1.0  0.75800  0.24200  0.89800  1.0000
  Sc  Sc8       1.0  0.24200  0.75800  0.89800  1.0000
