data_image0
_chemical_formula_structural       Cs12I16N4O12Zn4
_chemical_formula_sum              "Cs12 I16 N4 O12 Zn4"
_cell_length_a       10.0746
_cell_length_b       11.5945
_cell_length_c       14.2176
_cell_angle_alpha    90
_cell_angle_beta     90
_cell_angle_gamma    90

_space_group_name_H-M_alt    "P 1"
_space_group_IT_number       1

loop_
  _space_group_symop_operation_xyz
  'x, y, z'

loop_
  _atom_site_type_symbol
  _atom_site_label
  _atom_site_symmetry_multiplicity
  _atom_site_fract_x
  _atom_site_fract_y
  _atom_site_fract_z
  _atom_site_occupancy
  Cs  Cs1       1.0  0.42500  0.75000  0.05270  1.0000
  Cs  Cs2       1.0  0.90100  0.51100  0.18000  1.0000
  Cs  Cs3       1.0  0.90100  0.98900  0.18000  1.0000
  Cs  Cs4       1.0  0.40100  0.51100  0.32000  1.0000
  Cs  Cs5       1.0  0.40100  0.98900  0.32000  1.0000
  Cs  Cs6       1.0  0.92500  0.75000  0.44700  1.0000
  Cs  Cs7       1.0  0.07530  0.25000  0.55300  1.0000
  Cs  Cs8       1.0  0.59900  0.01140  0.68000  1.0000
  Cs  Cs9       1.0  0.59900  0.48900  0.68000  1.0000
  Cs  Cs10      1.0  0.09900  0.01140  0.82000  1.0000
  Cs  Cs11      1.0  0.09900  0.48900  0.82000  1.0000
  Cs  Cs12      1.0  0.57500  0.25000  0.94700  1.0000
  I   I1        1.0  0.04380  0.75000  0.00276  1.0000
  I   I2        1.0  0.30300  0.05980  0.05570  1.0000
  I   I3        1.0  0.30300  0.44000  0.05570  1.0000
  I   I4        1.0  0.62500  0.25000  0.22000  1.0000
  I   I5        1.0  0.12500  0.25000  0.28000  1.0000
  I   I6        1.0  0.80300  0.05980  0.44400  1.0000
  I   I7        1.0  0.80300  0.44000  0.44400  1.0000
  I   I8        1.0  0.54400  0.75000  0.49700  1.0000
  I   I9        1.0  0.45600  0.25000  0.50300  1.0000
  I   I10       1.0  0.19700  0.56000  0.55600  1.0000
  I   I11       1.0  0.19700  0.94000  0.55600  1.0000
  I   I12       1.0  0.87500  0.75000  0.72000  1.0000
  I   I13       1.0  0.37500  0.75000  0.78000  1.0000
  I   I14       1.0  0.69700  0.56000  0.94400  1.0000
  I   I15       1.0  0.69700  0.94000  0.94400  1.0000
  I   I16       1.0  0.95600  0.25000  0.99700  1.0000
  N   N1        1.0  0.67700  0.75000  0.22800  1.0000
  N   N2        1.0  0.17700  0.75000  0.27200  1.0000
  N   N3        1.0  0.82300  0.25000  0.72800  1.0000
  N   N4        1.0  0.32300  0.25000  0.77200  1.0000
  O   O1        1.0  0.61800  0.65500  0.21400  1.0000
  O   O2        1.0  0.61800  0.84500  0.21400  1.0000
  O   O3        1.0  0.29700  0.75000  0.24400  1.0000
  O   O4        1.0  0.79700  0.75000  0.25600  1.0000
  O   O5        1.0  0.11800  0.65500  0.28600  1.0000
  O   O6        1.0  0.11800  0.84500  0.28600  1.0000
  O   O7        1.0  0.88200  0.15500  0.71400  1.0000
  O   O8        1.0  0.88200  0.34500  0.71400  1.0000
  O   O9        1.0  0.20300  0.25000  0.74400  1.0000
  O   O10       1.0  0.70300  0.25000  0.75600  1.0000
  O   O11       1.0  0.38200  0.15500  0.78600  1.0000
  O   O12       1.0  0.38200  0.34500  0.78600  1.0000
  Zn  Zn1       1.0  0.17600  0.25000  0.09920  1.0000
  Zn  Zn2       1.0  0.67600  0.25000  0.40100  1.0000
  Zn  Zn3       1.0  0.32400  0.75000  0.59900  1.0000
  Zn  Zn4       1.0  0.82400  0.75000  0.90100  1.0000
