data_image0
_chemical_formula_structural       Ba4Gd8O28Sc8
_chemical_formula_sum              "Ba4 Gd8 O28 Sc8"
_cell_length_a       5.76795
_cell_length_b       5.76795
_cell_length_c       19.8481
_cell_angle_alpha    90
_cell_angle_beta     90
_cell_angle_gamma    90

_space_group_name_H-M_alt    "P 1"
_space_group_IT_number       1

loop_
  _space_group_symop_operation_xyz
  'x, y, z'

loop_
  _atom_site_type_symbol
  _atom_site_label
  _atom_site_symmetry_multiplicity
  _atom_site_fract_x
  _atom_site_fract_y
  _atom_site_fract_z
  _atom_site_occupancy
  Ba  Ba1       1.0  0.26100  0.26100  0.00000  1.0000
  Ba  Ba2       1.0  0.73900  0.73900  0.00000  1.0000
  Ba  Ba3       1.0  0.76100  0.23900  0.50000  1.0000
  Ba  Ba4       1.0  0.23900  0.76100  0.50000  1.0000
  Gd  Gd1       1.0  0.28100  0.28100  0.18600  1.0000
  Gd  Gd2       1.0  0.71900  0.71900  0.18600  1.0000
  Gd  Gd3       1.0  0.78100  0.21900  0.31400  1.0000
  Gd  Gd4       1.0  0.21900  0.78100  0.31400  1.0000
  Gd  Gd5       1.0  0.78100  0.21900  0.68600  1.0000
  Gd  Gd6       1.0  0.21900  0.78100  0.68600  1.0000
  Gd  Gd7       1.0  0.28100  0.28100  0.81400  1.0000
  Gd  Gd8       1.0  0.71900  0.71900  0.81400  1.0000
  O   O1        1.0  0.78700  0.21300  0.00000  1.0000
  O   O2        1.0  0.21300  0.78700  0.00000  1.0000
  O   O3        1.0  0.50000  0.50000  0.09500  1.0000
  O   O4        1.0  0.50000  0.00000  0.11800  1.0000
  O   O5        1.0  0.00000  0.50000  0.11800  1.0000
  O   O6        1.0  0.00000  0.00000  0.13500  1.0000
  O   O7        1.0  0.67800  0.32200  0.21300  1.0000
  O   O8        1.0  0.32200  0.67800  0.21300  1.0000
  O   O9        1.0  0.17800  0.17800  0.28700  1.0000
  O   O10       1.0  0.82200  0.82200  0.28700  1.0000
  O   O11       1.0  0.50000  0.50000  0.36500  1.0000
  O   O12       1.0  0.50000  0.00000  0.38200  1.0000
  O   O13       1.0  0.00000  0.50000  0.38200  1.0000
  O   O14       1.0  0.00000  0.00000  0.40500  1.0000
  O   O15       1.0  0.28700  0.28700  0.50000  1.0000
  O   O16       1.0  0.71300  0.71300  0.50000  1.0000
  O   O17       1.0  0.00000  0.00000  0.59500  1.0000
  O   O18       1.0  0.50000  0.00000  0.61800  1.0000
  O   O19       1.0  0.00000  0.50000  0.61800  1.0000
  O   O20       1.0  0.50000  0.50000  0.63500  1.0000
  O   O21       1.0  0.17800  0.17800  0.71300  1.0000
  O   O22       1.0  0.82200  0.82200  0.71300  1.0000
  O   O23       1.0  0.67800  0.32200  0.78700  1.0000
  O   O24       1.0  0.32200  0.67800  0.78700  1.0000
  O   O25       1.0  0.00000  0.00000  0.86500  1.0000
  O   O26       1.0  0.50000  0.00000  0.88200  1.0000
  O   O27       1.0  0.00000  0.50000  0.88200  1.0000
  O   O28       1.0  0.50000  0.50000  0.90500  1.0000
  Sc  Sc1       1.0  0.76000  0.24000  0.10500  1.0000
  Sc  Sc2       1.0  0.24000  0.76000  0.10500  1.0000
  Sc  Sc3       1.0  0.26000  0.26000  0.39500  1.0000
  Sc  Sc4       1.0  0.74000  0.74000  0.39500  1.0000
  Sc  Sc5       1.0  0.26000  0.26000  0.60500  1.0000
  Sc  Sc6       1.0  0.74000  0.74000  0.60500  1.0000
  Sc  Sc7       1.0  0.76000  0.24000  0.89500  1.0000
  Sc  Sc8       1.0  0.24000  0.76000  0.89500  1.0000
