data_image0
_chemical_formula_structural       B4F4H16N4O16P4
_chemical_formula_sum              "B4 F4 H16 N4 O16 P4"
_cell_length_a       7.50015
_cell_length_b       7.50015
_cell_length_c       7.50015
_cell_angle_alpha    90
_cell_angle_beta     90
_cell_angle_gamma    90

_space_group_name_H-M_alt    "P 1"
_space_group_IT_number       1

loop_
  _space_group_symop_operation_xyz
  'x, y, z'

loop_
  _atom_site_type_symbol
  _atom_site_label
  _atom_site_symmetry_multiplicity
  _atom_site_fract_x
  _atom_site_fract_y
  _atom_site_fract_z
  _atom_site_occupancy
  B   B1        1.0  0.62600  0.87400  0.12600  1.0000
  B   B2        1.0  0.37400  0.37400  0.37400  1.0000
  B   B3        1.0  0.87400  0.12600  0.62600  1.0000
  B   B4        1.0  0.12600  0.62600  0.87400  1.0000
  F   F1        1.0  0.73500  0.76500  0.23500  1.0000
  F   F2        1.0  0.26500  0.26500  0.26500  1.0000
  F   F3        1.0  0.76500  0.23500  0.73500  1.0000
  F   F4        1.0  0.23500  0.73500  0.76500  1.0000
  H   H1        1.0  0.94500  0.44500  0.05490  1.0000
  H   H2        1.0  0.73400  0.39000  0.09780  1.0000
  H   H3        1.0  0.90200  0.23400  0.11000  1.0000
  H   H4        1.0  0.11000  0.90200  0.23400  1.0000
  H   H5        1.0  0.89000  0.40200  0.26600  1.0000
  H   H6        1.0  0.09780  0.73400  0.39000  1.0000
  H   H7        1.0  0.26600  0.89000  0.40200  1.0000
  H   H8        1.0  0.05490  0.94500  0.44500  1.0000
  H   H9        1.0  0.55500  0.55500  0.55500  1.0000
  H   H10       1.0  0.76600  0.61000  0.59800  1.0000
  H   H11       1.0  0.59800  0.76600  0.61000  1.0000
  H   H12       1.0  0.39000  0.09780  0.73400  1.0000
  H   H13       1.0  0.61000  0.59800  0.76600  1.0000
  H   H14       1.0  0.40200  0.26600  0.89000  1.0000
  H   H15       1.0  0.23400  0.11000  0.90200  1.0000
  H   H16       1.0  0.44500  0.05490  0.94500  1.0000
  N   N1        1.0  0.86600  0.36600  0.13400  1.0000
  N   N2        1.0  0.13400  0.86600  0.36600  1.0000
  N   N3        1.0  0.63400  0.63400  0.63400  1.0000
  N   N4        1.0  0.36600  0.13400  0.86600  1.0000
  O   O1        1.0  0.01710  0.01710  0.01710  1.0000
  O   O2        1.0  0.19900  0.60000  0.05160  1.0000
  O   O3        1.0  0.44800  0.80100  0.10000  1.0000
  O   O4        1.0  0.60000  0.05160  0.19900  1.0000
  O   O5        1.0  0.40000  0.55200  0.30100  1.0000
  O   O6        1.0  0.55200  0.30100  0.40000  1.0000
  O   O7        1.0  0.80100  0.10000  0.44800  1.0000
  O   O8        1.0  0.98300  0.51700  0.48300  1.0000
  O   O9        1.0  0.48300  0.98300  0.51700  1.0000
  O   O10       1.0  0.30100  0.40000  0.55200  1.0000
  O   O11       1.0  0.05160  0.19900  0.60000  1.0000
  O   O12       1.0  0.90000  0.94800  0.69900  1.0000
  O   O13       1.0  0.10000  0.44800  0.80100  1.0000
  O   O14       1.0  0.94800  0.69900  0.90000  1.0000
  O   O15       1.0  0.69900  0.90000  0.94800  1.0000
  O   O16       1.0  0.51700  0.48300  0.98300  1.0000
  P   P1        1.0  0.40100  0.59900  0.09900  1.0000
  P   P2        1.0  0.59900  0.09900  0.40100  1.0000
  P   P3        1.0  0.09900  0.40100  0.59900  1.0000
  P   P4        1.0  0.90100  0.90100  0.90100  1.0000
