data_image0
_chemical_formula_structural       Ag12Eu8Ni12O48
_chemical_formula_sum              "Ag12 Eu8 Ni12 O48"
_cell_length_a       11.0075
_cell_length_b       11.0075
_cell_length_c       11.0075
_cell_angle_alpha    109.471
_cell_angle_beta     109.471
_cell_angle_gamma    109.471

_space_group_name_H-M_alt    "P 1"
_space_group_IT_number       1

loop_
  _space_group_symop_operation_xyz
  'x, y, z'

loop_
  _atom_site_type_symbol
  _atom_site_label
  _atom_site_symmetry_multiplicity
  _atom_site_fract_x
  _atom_site_fract_y
  _atom_site_fract_z
  _atom_site_occupancy
  Ag  Ag1       1.0  0.37500  0.25000  0.12500  1.0000
  Ag  Ag2       1.0  0.25000  0.87500  0.12500  1.0000
  Ag  Ag3       1.0  0.87500  0.12500  0.25000  1.0000
  Ag  Ag4       1.0  0.37500  0.62500  0.25000  1.0000
  Ag  Ag5       1.0  0.75000  0.62500  0.37500  1.0000
  Ag  Ag6       1.0  0.12500  0.75000  0.37500  1.0000
  Ag  Ag7       1.0  0.87500  0.25000  0.62500  1.0000
  Ag  Ag8       1.0  0.25000  0.37500  0.62500  1.0000
  Ag  Ag9       1.0  0.62500  0.37500  0.75000  1.0000
  Ag  Ag10      1.0  0.12500  0.87500  0.75000  1.0000
  Ag  Ag11      1.0  0.62500  0.75000  0.87500  1.0000
  Ag  Ag12      1.0  0.75000  0.12500  0.87500  1.0000
  Eu  Eu1       1.0  0.00000  0.00000  0.00000  1.0000
  Eu  Eu2       1.0  0.50000  0.00000  0.00000  1.0000
  Eu  Eu3       1.0  0.00000  0.50000  0.00000  1.0000
  Eu  Eu4       1.0  0.50000  0.50000  0.00000  1.0000
  Eu  Eu5       1.0  0.00000  0.00000  0.50000  1.0000
  Eu  Eu6       1.0  0.50000  0.00000  0.50000  1.0000
  Eu  Eu7       1.0  0.00000  0.50000  0.50000  1.0000
  Eu  Eu8       1.0  0.50000  0.50000  0.50000  1.0000
  Ni  Ni1       1.0  0.75000  0.37500  0.12500  1.0000
  Ni  Ni2       1.0  0.87500  0.75000  0.12500  1.0000
  Ni  Ni3       1.0  0.12500  0.37500  0.25000  1.0000
  Ni  Ni4       1.0  0.62500  0.87500  0.25000  1.0000
  Ni  Ni5       1.0  0.25000  0.12500  0.37500  1.0000
  Ni  Ni6       1.0  0.62500  0.25000  0.37500  1.0000
  Ni  Ni7       1.0  0.37500  0.75000  0.62500  1.0000
  Ni  Ni8       1.0  0.75000  0.87500  0.62500  1.0000
  Ni  Ni9       1.0  0.37500  0.12500  0.75000  1.0000
  Ni  Ni10      1.0  0.87500  0.62500  0.75000  1.0000
  Ni  Ni11      1.0  0.12500  0.25000  0.87500  1.0000
  Ni  Ni12      1.0  0.25000  0.62500  0.87500  1.0000
  O   O1        1.0  0.30100  0.39900  0.03610  1.0000
  O   O2        1.0  0.23500  0.63700  0.03610  1.0000
  O   O3        1.0  0.73500  0.19900  0.09870  1.0000
  O   O4        1.0  0.86300  0.89900  0.09870  1.0000
  O   O5        1.0  0.63700  0.90100  0.10100  1.0000
  O   O6        1.0  0.96400  0.19900  0.10100  1.0000
  O   O7        1.0  0.03610  0.73500  0.13700  1.0000
  O   O8        1.0  0.60100  0.40100  0.13700  1.0000
  O   O9        1.0  0.23500  0.09870  0.19900  1.0000
  O   O10       1.0  0.46400  0.10100  0.19900  1.0000
  O   O11       1.0  0.13700  0.53600  0.23500  1.0000
  O   O12       1.0  0.59900  0.69900  0.23500  1.0000
  O   O13       1.0  0.46400  0.86300  0.26500  1.0000
  O   O14       1.0  0.30100  0.40100  0.26500  1.0000
  O   O15       1.0  0.89900  0.53600  0.30100  1.0000
  O   O16       1.0  0.90100  0.76500  0.30100  1.0000
  O   O17       1.0  0.26500  0.96400  0.36300  1.0000
  O   O18       1.0  0.59900  0.39900  0.36300  1.0000
  O   O19       1.0  0.80100  0.03610  0.39900  1.0000
  O   O20       1.0  0.09870  0.36300  0.39900  1.0000
  O   O21       1.0  0.10100  0.13700  0.40100  1.0000
  O   O22       1.0  0.80100  0.26500  0.40100  1.0000
  O   O23       1.0  0.36300  0.76500  0.46400  1.0000
  O   O24       1.0  0.60100  0.69900  0.46400  1.0000
  O   O25       1.0  0.63700  0.23500  0.53600  1.0000
  O   O26       1.0  0.39900  0.30100  0.53600  1.0000
  O   O27       1.0  0.19900  0.73500  0.59900  1.0000
  O   O28       1.0  0.89900  0.86300  0.59900  1.0000
  O   O29       1.0  0.19900  0.96400  0.60100  1.0000
  O   O30       1.0  0.90100  0.63700  0.60100  1.0000
  O   O31       1.0  0.73500  0.03610  0.63700  1.0000
  O   O32       1.0  0.40100  0.60100  0.63700  1.0000
  O   O33       1.0  0.09870  0.23500  0.69900  1.0000
  O   O34       1.0  0.10100  0.46400  0.69900  1.0000
  O   O35       1.0  0.53600  0.13700  0.73500  1.0000
  O   O36       1.0  0.69900  0.59900  0.73500  1.0000
  O   O37       1.0  0.86300  0.46400  0.76500  1.0000
  O   O38       1.0  0.40100  0.30100  0.76500  1.0000
  O   O39       1.0  0.53600  0.89900  0.80100  1.0000
  O   O40       1.0  0.76500  0.90100  0.80100  1.0000
  O   O41       1.0  0.96400  0.26500  0.86300  1.0000
  O   O42       1.0  0.39900  0.59900  0.86300  1.0000
  O   O43       1.0  0.36300  0.09870  0.89900  1.0000
  O   O44       1.0  0.03610  0.80100  0.89900  1.0000
  O   O45       1.0  0.13700  0.10100  0.90100  1.0000
  O   O46       1.0  0.26500  0.80100  0.90100  1.0000
  O   O47       1.0  0.76500  0.36300  0.96400  1.0000
  O   O48       1.0  0.69900  0.60100  0.96400  1.0000
