data_image0
_chemical_formula_structural       Ba4O28Sc8Sm8
_chemical_formula_sum              "Ba4 O28 Sc8 Sm8"
_cell_length_a       5.78687
_cell_length_b       5.78687
_cell_length_c       20.0393
_cell_angle_alpha    90
_cell_angle_beta     90
_cell_angle_gamma    90

_space_group_name_H-M_alt    "P 1"
_space_group_IT_number       1

loop_
  _space_group_symop_operation_xyz
  'x, y, z'

loop_
  _atom_site_type_symbol
  _atom_site_label
  _atom_site_symmetry_multiplicity
  _atom_site_fract_x
  _atom_site_fract_y
  _atom_site_fract_z
  _atom_site_occupancy
  Ba  Ba1       1.0  0.26100  0.26100  0.00000  1.0000
  Ba  Ba2       1.0  0.73900  0.73900  0.00000  1.0000
  Ba  Ba3       1.0  0.76100  0.23900  0.50000  1.0000
  Ba  Ba4       1.0  0.23900  0.76100  0.50000  1.0000
  O   O1        1.0  0.78700  0.21300  0.00000  1.0000
  O   O2        1.0  0.21300  0.78700  0.00000  1.0000
  O   O3        1.0  0.50000  0.50000  0.09420  1.0000
  O   O4        1.0  0.50000  0.00000  0.11600  1.0000
  O   O5        1.0  0.00000  0.50000  0.11600  1.0000
  O   O6        1.0  0.00000  0.00000  0.13300  1.0000
  O   O7        1.0  0.68200  0.31800  0.21100  1.0000
  O   O8        1.0  0.31800  0.68200  0.21100  1.0000
  O   O9        1.0  0.18200  0.18200  0.28900  1.0000
  O   O10       1.0  0.81800  0.81800  0.28900  1.0000
  O   O11       1.0  0.50000  0.50000  0.36700  1.0000
  O   O12       1.0  0.50000  0.00000  0.38400  1.0000
  O   O13       1.0  0.00000  0.50000  0.38400  1.0000
  O   O14       1.0  0.00000  0.00000  0.40600  1.0000
  O   O15       1.0  0.28700  0.28700  0.50000  1.0000
  O   O16       1.0  0.71300  0.71300  0.50000  1.0000
  O   O17       1.0  0.00000  0.00000  0.59400  1.0000
  O   O18       1.0  0.50000  0.00000  0.61600  1.0000
  O   O19       1.0  0.00000  0.50000  0.61600  1.0000
  O   O20       1.0  0.50000  0.50000  0.63300  1.0000
  O   O21       1.0  0.18200  0.18200  0.71100  1.0000
  O   O22       1.0  0.81800  0.81800  0.71100  1.0000
  O   O23       1.0  0.68200  0.31800  0.78900  1.0000
  O   O24       1.0  0.31800  0.68200  0.78900  1.0000
  O   O25       1.0  0.00000  0.00000  0.86700  1.0000
  O   O26       1.0  0.50000  0.00000  0.88400  1.0000
  O   O27       1.0  0.00000  0.50000  0.88400  1.0000
  O   O28       1.0  0.50000  0.50000  0.90600  1.0000
  Sc  Sc1       1.0  0.75900  0.24100  0.10300  1.0000
  Sc  Sc2       1.0  0.24100  0.75900  0.10300  1.0000
  Sc  Sc3       1.0  0.25900  0.25900  0.39700  1.0000
  Sc  Sc4       1.0  0.74100  0.74100  0.39700  1.0000
  Sc  Sc5       1.0  0.25900  0.25900  0.60300  1.0000
  Sc  Sc6       1.0  0.74100  0.74100  0.60300  1.0000
  Sc  Sc7       1.0  0.75900  0.24100  0.89700  1.0000
  Sc  Sc8       1.0  0.24100  0.75900  0.89700  1.0000
  Sm  Sm1       1.0  0.27800  0.27800  0.18500  1.0000
  Sm  Sm2       1.0  0.72200  0.72200  0.18500  1.0000
  Sm  Sm3       1.0  0.77800  0.22200  0.31500  1.0000
  Sm  Sm4       1.0  0.22200  0.77800  0.31500  1.0000
  Sm  Sm5       1.0  0.77800  0.22200  0.68500  1.0000
  Sm  Sm6       1.0  0.22200  0.77800  0.68500  1.0000
  Sm  Sm7       1.0  0.27800  0.27800  0.81500  1.0000
  Sm  Sm8       1.0  0.72200  0.72200  0.81500  1.0000
