data_image0
_chemical_formula_structural       Ba4O28Pr8Sc8
_chemical_formula_sum              "Ba4 O28 Pr8 Sc8"
_cell_length_a       5.80603
_cell_length_b       5.80603
_cell_length_c       20.4132
_cell_angle_alpha    90
_cell_angle_beta     90
_cell_angle_gamma    90

_space_group_name_H-M_alt    "P 1"
_space_group_IT_number       1

loop_
  _space_group_symop_operation_xyz
  'x, y, z'

loop_
  _atom_site_type_symbol
  _atom_site_label
  _atom_site_symmetry_multiplicity
  _atom_site_fract_x
  _atom_site_fract_y
  _atom_site_fract_z
  _atom_site_occupancy
  Ba  Ba1       1.0  0.25900  0.25900  0.00000  1.0000
  Ba  Ba2       1.0  0.74100  0.74100  0.00000  1.0000
  Ba  Ba3       1.0  0.75900  0.24100  0.50000  1.0000
  Ba  Ba4       1.0  0.24100  0.75900  0.50000  1.0000
  O   O1        1.0  0.78500  0.21500  0.00000  1.0000
  O   O2        1.0  0.21500  0.78500  0.00000  1.0000
  O   O3        1.0  0.50000  0.50000  0.09380  1.0000
  O   O4        1.0  0.50000  0.00000  0.11200  1.0000
  O   O5        1.0  0.00000  0.50000  0.11200  1.0000
  O   O6        1.0  0.00000  0.00000  0.12800  1.0000
  O   O7        1.0  0.68900  0.31100  0.20900  1.0000
  O   O8        1.0  0.31100  0.68900  0.20900  1.0000
  O   O9        1.0  0.18900  0.18900  0.29100  1.0000
  O   O10       1.0  0.81100  0.81100  0.29100  1.0000
  O   O11       1.0  0.50000  0.50000  0.37200  1.0000
  O   O12       1.0  0.50000  0.00000  0.38800  1.0000
  O   O13       1.0  0.00000  0.50000  0.38800  1.0000
  O   O14       1.0  0.00000  0.00000  0.40600  1.0000
  O   O15       1.0  0.28500  0.28500  0.50000  1.0000
  O   O16       1.0  0.71500  0.71500  0.50000  1.0000
  O   O17       1.0  0.00000  0.00000  0.59400  1.0000
  O   O18       1.0  0.50000  0.00000  0.61200  1.0000
  O   O19       1.0  0.00000  0.50000  0.61200  1.0000
  O   O20       1.0  0.50000  0.50000  0.62800  1.0000
  O   O21       1.0  0.18900  0.18900  0.70900  1.0000
  O   O22       1.0  0.81100  0.81100  0.70900  1.0000
  O   O23       1.0  0.68900  0.31100  0.79100  1.0000
  O   O24       1.0  0.31100  0.68900  0.79100  1.0000
  O   O25       1.0  0.00000  0.00000  0.87200  1.0000
  O   O26       1.0  0.50000  0.00000  0.88800  1.0000
  O   O27       1.0  0.00000  0.50000  0.88800  1.0000
  O   O28       1.0  0.50000  0.50000  0.90600  1.0000
  Pr  Pr1       1.0  0.27300  0.27300  0.18400  1.0000
  Pr  Pr2       1.0  0.72700  0.72700  0.18400  1.0000
  Pr  Pr3       1.0  0.77300  0.22700  0.31600  1.0000
  Pr  Pr4       1.0  0.22700  0.77300  0.31600  1.0000
  Pr  Pr5       1.0  0.77300  0.22700  0.68400  1.0000
  Pr  Pr6       1.0  0.22700  0.77300  0.68400  1.0000
  Pr  Pr7       1.0  0.27300  0.27300  0.81600  1.0000
  Pr  Pr8       1.0  0.72700  0.72700  0.81600  1.0000
  Sc  Sc1       1.0  0.75700  0.24300  0.10100  1.0000
  Sc  Sc2       1.0  0.24300  0.75700  0.10100  1.0000
  Sc  Sc3       1.0  0.25700  0.25700  0.39900  1.0000
  Sc  Sc4       1.0  0.74300  0.74300  0.39900  1.0000
  Sc  Sc5       1.0  0.25700  0.25700  0.60100  1.0000
  Sc  Sc6       1.0  0.74300  0.74300  0.60100  1.0000
  Sc  Sc7       1.0  0.75700  0.24300  0.89900  1.0000
  Sc  Sc8       1.0  0.24300  0.75700  0.89900  1.0000
