data_image0
_chemical_formula_structural       Ag8As12Rb4Se24
_chemical_formula_sum              "Ag8 As12 Rb4 Se24"
_cell_length_a       10.0587
_cell_length_b       7.68465
_cell_length_c       17.4714
_cell_angle_alpha    90
_cell_angle_beta     90.5045
_cell_angle_gamma    90

_space_group_name_H-M_alt    "P 1"
_space_group_IT_number       1

loop_
  _space_group_symop_operation_xyz
  'x, y, z'

loop_
  _atom_site_type_symbol
  _atom_site_label
  _atom_site_symmetry_multiplicity
  _atom_site_fract_x
  _atom_site_fract_y
  _atom_site_fract_z
  _atom_site_occupancy
  Ag  Ag1       1.0  0.34900  0.01310  0.00000  1.0000
  Ag  Ag2       1.0  0.65100  0.98700  0.00000  1.0000
  Ag  Ag3       1.0  0.53200  0.46300  0.08130  1.0000
  Ag  Ag4       1.0  0.96800  0.96300  0.41900  1.0000
  Ag  Ag5       1.0  0.15100  0.51300  0.50000  1.0000
  Ag  Ag6       1.0  0.84900  0.48700  0.50000  1.0000
  Ag  Ag7       1.0  0.03200  0.03740  0.58100  1.0000
  Ag  Ag8       1.0  0.46800  0.53700  0.91900  1.0000
  As  As1       1.0  0.86800  0.38500  0.08080  1.0000
  As  As2       1.0  0.19400  0.35100  0.14700  1.0000
  As  As3       1.0  0.57100  0.87200  0.22400  1.0000
  As  As4       1.0  0.92900  0.37200  0.27600  1.0000
  As  As5       1.0  0.30600  0.85100  0.35300  1.0000
  As  As6       1.0  0.63200  0.88500  0.41900  1.0000
  As  As7       1.0  0.36800  0.11500  0.58100  1.0000
  As  As8       1.0  0.69400  0.14900  0.64700  1.0000
  As  As9       1.0  0.07080  0.62800  0.72400  1.0000
  As  As10      1.0  0.42900  0.12800  0.77600  1.0000
  As  As11      1.0  0.80600  0.64900  0.85300  1.0000
  As  As12      1.0  0.13200  0.61500  0.91900  1.0000
  Rb  Rb1       1.0  0.00715  0.82500  0.16800  1.0000
  Rb  Rb2       1.0  0.49300  0.32500  0.33200  1.0000
  Rb  Rb3       1.0  0.50700  0.67500  0.66800  1.0000
  Rb  Rb4       1.0  0.99300  0.17500  0.83200  1.0000
  Se  Se1       1.0  0.28400  0.69000  0.02010  1.0000
  Se  Se2       1.0  0.06220  0.20300  0.04720  1.0000
  Se  Se3       1.0  0.65800  0.75200  0.10800  1.0000
  Se  Se4       1.0  0.39800  0.19800  0.13000  1.0000
  Se  Se5       1.0  0.77700  0.21900  0.18800  1.0000
  Se  Se6       1.0  0.36900  0.69500  0.23400  1.0000
  Se  Se7       1.0  0.13100  0.19500  0.26600  1.0000
  Se  Se8       1.0  0.72300  0.71900  0.31200  1.0000
  Se  Se9       1.0  0.10200  0.69800  0.37000  1.0000
  Se  Se10      1.0  0.84200  0.25200  0.39200  1.0000
  Se  Se11      1.0  0.43800  0.70300  0.45300  1.0000
  Se  Se12      1.0  0.21600  0.19000  0.48000  1.0000
  Se  Se13      1.0  0.78400  0.81000  0.52000  1.0000
  Se  Se14      1.0  0.56200  0.29700  0.54700  1.0000
  Se  Se15      1.0  0.15800  0.74800  0.60800  1.0000
  Se  Se16      1.0  0.89800  0.30200  0.63000  1.0000
  Se  Se17      1.0  0.27700  0.28100  0.68800  1.0000
  Se  Se18      1.0  0.86900  0.80500  0.73400  1.0000
  Se  Se19      1.0  0.63100  0.30500  0.76600  1.0000
  Se  Se20      1.0  0.22300  0.78100  0.81200  1.0000
  Se  Se21      1.0  0.60200  0.80200  0.87000  1.0000
  Se  Se22      1.0  0.34200  0.24800  0.89200  1.0000
  Se  Se23      1.0  0.93800  0.79700  0.95300  1.0000
  Se  Se24      1.0  0.71600  0.31000  0.98000  1.0000
