data_image0
_chemical_formula_structural       Mo8Nd4O32Rb4
_chemical_formula_sum              "Mo8 Nd4 O32 Rb4"
_cell_length_a       5.15687
_cell_length_b       18.4726
_cell_length_c       8.17858
_cell_angle_alpha    90
_cell_angle_beta     90
_cell_angle_gamma    90

_space_group_name_H-M_alt    "P 1"
_space_group_IT_number       1

loop_
  _space_group_symop_operation_xyz
  'x, y, z'

loop_
  _atom_site_type_symbol
  _atom_site_label
  _atom_site_symmetry_multiplicity
  _atom_site_fract_x
  _atom_site_fract_y
  _atom_site_fract_z
  _atom_site_occupancy
  Mo  Mo1       1.0  0.01980  0.39700  0.01920  1.0000
  Mo  Mo2       1.0  0.48000  0.89700  0.01920  1.0000
  Mo  Mo3       1.0  0.98000  0.39700  0.48100  1.0000
  Mo  Mo4       1.0  0.52000  0.89700  0.48100  1.0000
  Mo  Mo5       1.0  0.48000  0.10300  0.51900  1.0000
  Mo  Mo6       1.0  0.01980  0.60300  0.51900  1.0000
  Mo  Mo7       1.0  0.52000  0.10300  0.98100  1.0000
  Mo  Mo8       1.0  0.98000  0.60300  0.98100  1.0000
  Nd  Nd1       1.0  0.00000  0.00815  0.25000  1.0000
  Nd  Nd2       1.0  0.50000  0.50800  0.25000  1.0000
  Nd  Nd3       1.0  0.50000  0.49200  0.75000  1.0000
  Nd  Nd4       1.0  0.00000  0.99200  0.75000  1.0000
  O   O1        1.0  0.25400  0.03610  0.00256  1.0000
  O   O2        1.0  0.24600  0.53600  0.00256  1.0000
  O   O3        1.0  0.89100  0.31000  0.02970  1.0000
  O   O4        1.0  0.60900  0.81000  0.02970  1.0000
  O   O5        1.0  0.72500  0.10400  0.15700  1.0000
  O   O6        1.0  0.77500  0.60400  0.15700  1.0000
  O   O7        1.0  0.23900  0.40600  0.19000  1.0000
  O   O8        1.0  0.26100  0.90600  0.19000  1.0000
  O   O9        1.0  0.76100  0.40600  0.31000  1.0000
  O   O10       1.0  0.73900  0.90600  0.31000  1.0000
  O   O11       1.0  0.27500  0.10400  0.34300  1.0000
  O   O12       1.0  0.22500  0.60400  0.34300  1.0000
  O   O13       1.0  0.10900  0.31000  0.47000  1.0000
  O   O14       1.0  0.39100  0.81000  0.47000  1.0000
  O   O15       1.0  0.74600  0.03610  0.49700  1.0000
  O   O16       1.0  0.75400  0.53600  0.49700  1.0000
  O   O17       1.0  0.24600  0.46400  0.50300  1.0000
  O   O18       1.0  0.25400  0.96400  0.50300  1.0000
  O   O19       1.0  0.60900  0.19000  0.53000  1.0000
  O   O20       1.0  0.89100  0.69000  0.53000  1.0000
  O   O21       1.0  0.77500  0.39600  0.65700  1.0000
  O   O22       1.0  0.72500  0.89600  0.65700  1.0000
  O   O23       1.0  0.26100  0.09400  0.69000  1.0000
  O   O24       1.0  0.23900  0.59400  0.69000  1.0000
  O   O25       1.0  0.73900  0.09400  0.81000  1.0000
  O   O26       1.0  0.76100  0.59400  0.81000  1.0000
  O   O27       1.0  0.22500  0.39600  0.84300  1.0000
  O   O28       1.0  0.27500  0.89600  0.84300  1.0000
  O   O29       1.0  0.39100  0.19000  0.97000  1.0000
  O   O30       1.0  0.10900  0.69000  0.97000  1.0000
  O   O31       1.0  0.75400  0.46400  0.99700  1.0000
  O   O32       1.0  0.74600  0.96400  0.99700  1.0000
  Rb  Rb1       1.0  0.50000  0.26800  0.25000  1.0000
  Rb  Rb2       1.0  0.00000  0.76800  0.25000  1.0000
  Rb  Rb3       1.0  0.00000  0.23200  0.75000  1.0000
  Rb  Rb4       1.0  0.50000  0.73200  0.75000  1.0000
