data_image0
_chemical_formula_structural       Cs8Cu8P8Se24
_chemical_formula_sum              "Cs8 Cu8 P8 Se24"
_cell_length_a       10.0739
_cell_length_b       13.2469
_cell_length_c       10.8366
_cell_angle_alpha    90
_cell_angle_beta     102.854
_cell_angle_gamma    90

_space_group_name_H-M_alt    "P 1"
_space_group_IT_number       1

loop_
  _space_group_symop_operation_xyz
  'x, y, z'

loop_
  _atom_site_type_symbol
  _atom_site_label
  _atom_site_symmetry_multiplicity
  _atom_site_fract_x
  _atom_site_fract_y
  _atom_site_fract_z
  _atom_site_occupancy
  Cs  Cs1       1.0  0.61200  0.32000  0.11800  1.0000
  Cs  Cs2       1.0  0.13300  0.15400  0.16000  1.0000
  Cs  Cs3       1.0  0.86700  0.65400  0.34000  1.0000
  Cs  Cs4       1.0  0.38800  0.82000  0.38200  1.0000
  Cs  Cs5       1.0  0.61200  0.18000  0.61800  1.0000
  Cs  Cs6       1.0  0.13300  0.34600  0.66000  1.0000
  Cs  Cs7       1.0  0.86700  0.84600  0.84000  1.0000
  Cs  Cs8       1.0  0.38800  0.68000  0.88200  1.0000
  Cu  Cu1       1.0  0.02100  0.40200  0.03880  1.0000
  Cu  Cu2       1.0  0.45500  0.95200  0.09620  1.0000
  Cu  Cu3       1.0  0.54500  0.45200  0.40400  1.0000
  Cu  Cu4       1.0  0.97900  0.90200  0.46100  1.0000
  Cu  Cu5       1.0  0.02100  0.09820  0.53900  1.0000
  Cu  Cu6       1.0  0.45500  0.54800  0.59600  1.0000
  Cu  Cu7       1.0  0.54500  0.04770  0.90400  1.0000
  Cu  Cu8       1.0  0.97900  0.59800  0.96100  1.0000
  P   P1        1.0  0.78400  0.95900  0.16600  1.0000
  P   P2        1.0  0.28100  0.53800  0.16700  1.0000
  P   P3        1.0  0.71900  0.03810  0.33300  1.0000
  P   P4        1.0  0.21600  0.45900  0.33400  1.0000
  P   P5        1.0  0.78400  0.54100  0.66600  1.0000
  P   P6        1.0  0.28100  0.96200  0.66700  1.0000
  P   P7        1.0  0.71900  0.46200  0.83300  1.0000
  P   P8        1.0  0.21600  0.04100  0.83400  1.0000
  Se  Se1       1.0  0.24900  0.42500  0.01320  1.0000
  Se  Se2       1.0  0.77400  0.07520  0.01630  1.0000
  Se  Se3       1.0  0.63700  0.83400  0.11200  1.0000
  Se  Se4       1.0  0.15200  0.67500  0.12000  1.0000
  Se  Se5       1.0  0.49600  0.58000  0.24300  1.0000
  Se  Se6       1.0  0.99500  0.90700  0.24300  1.0000
  Se  Se7       1.0  0.00506  0.40700  0.25700  1.0000
  Se  Se8       1.0  0.50400  0.07990  0.25700  1.0000
  Se  Se9       1.0  0.84800  0.17500  0.38000  1.0000
  Se  Se10      1.0  0.36300  0.33400  0.38800  1.0000
  Se  Se11      1.0  0.22600  0.57500  0.48400  1.0000
  Se  Se12      1.0  0.75100  0.92500  0.48700  1.0000
  Se  Se13      1.0  0.24900  0.07530  0.51300  1.0000
  Se  Se14      1.0  0.77400  0.42500  0.51600  1.0000
  Se  Se15      1.0  0.63700  0.66600  0.61200  1.0000
  Se  Se16      1.0  0.15200  0.82500  0.62000  1.0000
  Se  Se17      1.0  0.49600  0.92000  0.74300  1.0000
  Se  Se18      1.0  0.99500  0.59300  0.74300  1.0000
  Se  Se19      1.0  0.00506  0.09280  0.75700  1.0000
  Se  Se20      1.0  0.50400  0.42000  0.75700  1.0000
  Se  Se21      1.0  0.84800  0.32500  0.88000  1.0000
  Se  Se22      1.0  0.36300  0.16600  0.88800  1.0000
  Se  Se23      1.0  0.22600  0.92500  0.98400  1.0000
  Se  Se24      1.0  0.75100  0.57500  0.98700  1.0000
