data_image0
_chemical_formula_structural       Ba8In20P20
_chemical_formula_sum              "Ba8 In20 P20"
_cell_length_a       17.5355
_cell_length_b       4.21881
_cell_length_c       17.7089
_cell_angle_alpha    90
_cell_angle_beta     90
_cell_angle_gamma    90

_space_group_name_H-M_alt    "P 1"
_space_group_IT_number       1

loop_
  _space_group_symop_operation_xyz
  'x, y, z'

loop_
  _atom_site_type_symbol
  _atom_site_label
  _atom_site_symmetry_multiplicity
  _atom_site_fract_x
  _atom_site_fract_y
  _atom_site_fract_z
  _atom_site_occupancy
  Ba  Ba1       1.0  0.48100  0.75000  0.12100  1.0000
  Ba  Ba2       1.0  0.04210  0.25000  0.12900  1.0000
  Ba  Ba3       1.0  0.54200  0.25000  0.37100  1.0000
  Ba  Ba4       1.0  0.98100  0.75000  0.37900  1.0000
  Ba  Ba5       1.0  0.01950  0.25000  0.62100  1.0000
  Ba  Ba6       1.0  0.45800  0.75000  0.62900  1.0000
  Ba  Ba7       1.0  0.95800  0.75000  0.87100  1.0000
  Ba  Ba8       1.0  0.51900  0.25000  0.87900  1.0000
  In  In1       1.0  0.83000  0.25000  0.02800  1.0000
  In  In2       1.0  0.67200  0.25000  0.05880  1.0000
  In  In3       1.0  0.28900  0.25000  0.12600  1.0000
  In  In4       1.0  0.84300  0.75000  0.19000  1.0000
  In  In5       1.0  0.68700  0.75000  0.22300  1.0000
  In  In6       1.0  0.18700  0.75000  0.27700  1.0000
  In  In7       1.0  0.34300  0.75000  0.31000  1.0000
  In  In8       1.0  0.78900  0.25000  0.37400  1.0000
  In  In9       1.0  0.17200  0.25000  0.44100  1.0000
  In  In10      1.0  0.33000  0.25000  0.47200  1.0000
  In  In11      1.0  0.67000  0.75000  0.52800  1.0000
  In  In12      1.0  0.82800  0.75000  0.55900  1.0000
  In  In13      1.0  0.21100  0.75000  0.62600  1.0000
  In  In14      1.0  0.65700  0.25000  0.69000  1.0000
  In  In15      1.0  0.81300  0.25000  0.72300  1.0000
  In  In16      1.0  0.31300  0.25000  0.77700  1.0000
  In  In17      1.0  0.15700  0.25000  0.81000  1.0000
  In  In18      1.0  0.71100  0.75000  0.87400  1.0000
  In  In19      1.0  0.32800  0.75000  0.94100  1.0000
  In  In20      1.0  0.17000  0.75000  0.97200  1.0000
  P   P1        1.0  0.38500  0.25000  0.01170  1.0000
  P   P2        1.0  0.91700  0.75000  0.05940  1.0000
  P   P3        1.0  0.19700  0.75000  0.12500  1.0000
  P   P4        1.0  0.60400  0.25000  0.19100  1.0000
  P   P5        1.0  0.39200  0.25000  0.23500  1.0000
  P   P6        1.0  0.89200  0.25000  0.26500  1.0000
  P   P7        1.0  0.10400  0.25000  0.30900  1.0000
  P   P8        1.0  0.69700  0.75000  0.37500  1.0000
  P   P9        1.0  0.41700  0.75000  0.44100  1.0000
  P   P10       1.0  0.88500  0.25000  0.48800  1.0000
  P   P11       1.0  0.11500  0.75000  0.51200  1.0000
  P   P12       1.0  0.58300  0.25000  0.55900  1.0000
  P   P13       1.0  0.30300  0.25000  0.62500  1.0000
  P   P14       1.0  0.89600  0.75000  0.69100  1.0000
  P   P15       1.0  0.10800  0.75000  0.73500  1.0000
  P   P16       1.0  0.60800  0.75000  0.76500  1.0000
  P   P17       1.0  0.39600  0.75000  0.80900  1.0000
  P   P18       1.0  0.80300  0.25000  0.87500  1.0000
  P   P19       1.0  0.08330  0.25000  0.94100  1.0000
  P   P20       1.0  0.61500  0.75000  0.98800  1.0000
