data_image0
_chemical_formula_structural       Al4C4F20O12Sr8
_chemical_formula_sum              "Al4 C4 F20 O12 Sr8"
_cell_length_a       5.40159
_cell_length_b       8.52507
_cell_length_c       13.0301
_cell_angle_alpha    90
_cell_angle_beta     98.576
_cell_angle_gamma    90

_space_group_name_H-M_alt    "P 1"
_space_group_IT_number       1

loop_
  _space_group_symop_operation_xyz
  'x, y, z'

loop_
  _atom_site_type_symbol
  _atom_site_label
  _atom_site_symmetry_multiplicity
  _atom_site_fract_x
  _atom_site_fract_y
  _atom_site_fract_z
  _atom_site_occupancy
  Al  Al1       1.0  0.36500  0.37200  0.16900  1.0000
  Al  Al2       1.0  0.13500  0.87200  0.33100  1.0000
  Al  Al3       1.0  0.86500  0.12800  0.66900  1.0000
  Al  Al4       1.0  0.63500  0.62800  0.83100  1.0000
  C   C1        1.0  0.31800  0.87500  0.14000  1.0000
  C   C2        1.0  0.18200  0.37500  0.36000  1.0000
  C   C3        1.0  0.81800  0.62500  0.64000  1.0000
  C   C4        1.0  0.68200  0.12500  0.86000  1.0000
  F   F1        1.0  0.58700  0.37200  0.06950  1.0000
  F   F2        1.0  0.17800  0.51100  0.08580  1.0000
  F   F3        1.0  0.20300  0.21800  0.08860  1.0000
  F   F4        1.0  0.54900  0.53200  0.22700  1.0000
  F   F5        1.0  0.56300  0.22300  0.23500  1.0000
  F   F6        1.0  0.93700  0.72300  0.26500  1.0000
  F   F7        1.0  0.95100  0.03210  0.27300  1.0000
  F   F8        1.0  0.29700  0.71800  0.41100  1.0000
  F   F9        1.0  0.32200  0.01110  0.41400  1.0000
  F   F10       1.0  0.91300  0.87200  0.43000  1.0000
  F   F11       1.0  0.08660  0.12800  0.57000  1.0000
  F   F12       1.0  0.67800  0.98900  0.58600  1.0000
  F   F13       1.0  0.70300  0.28200  0.58900  1.0000
  F   F14       1.0  0.04910  0.96800  0.72700  1.0000
  F   F15       1.0  0.06300  0.27700  0.73500  1.0000
  F   F16       1.0  0.43700  0.77700  0.76500  1.0000
  F   F17       1.0  0.45100  0.46800  0.77300  1.0000
  F   F18       1.0  0.79700  0.78200  0.91100  1.0000
  F   F19       1.0  0.82200  0.48900  0.91400  1.0000
  F   F20       1.0  0.41300  0.62800  0.93000  1.0000
  O   O1        1.0  0.50100  0.87900  0.08620  1.0000
  O   O2        1.0  0.09120  0.87500  0.09110  1.0000
  O   O3        1.0  0.36800  0.87100  0.24000  1.0000
  O   O4        1.0  0.13200  0.37100  0.26000  1.0000
  O   O5        1.0  0.40900  0.37500  0.40900  1.0000
  O   O6        1.0  0.99900  0.37900  0.41400  1.0000
  O   O7        1.0  0.00149  0.62100  0.58600  1.0000
  O   O8        1.0  0.59100  0.62500  0.59100  1.0000
  O   O9        1.0  0.86800  0.62900  0.74000  1.0000
  O   O10       1.0  0.63200  0.12900  0.76000  1.0000
  O   O11       1.0  0.90900  0.12500  0.90900  1.0000
  O   O12       1.0  0.49900  0.12100  0.91400  1.0000
  Sr  Sr1       1.0  0.78200  0.64000  0.08820  1.0000
  Sr  Sr2       1.0  0.79000  0.11000  0.09710  1.0000
  Sr  Sr3       1.0  0.71000  0.61000  0.40300  1.0000
  Sr  Sr4       1.0  0.71800  0.14000  0.41200  1.0000
  Sr  Sr5       1.0  0.28200  0.86000  0.58800  1.0000
  Sr  Sr6       1.0  0.29000  0.39000  0.59700  1.0000
  Sr  Sr7       1.0  0.21000  0.89000  0.90300  1.0000
  Sr  Sr8       1.0  0.21800  0.36000  0.91200  1.0000
