data_image0
_chemical_formula_structural       O32P8Rb4V4
_chemical_formula_sum              "O32 P8 Rb4 V4"
_cell_length_a       4.66434
_cell_length_b       8.8878
_cell_length_c       15.9974
_cell_angle_alpha    90
_cell_angle_beta     94.4557
_cell_angle_gamma    90

_space_group_name_H-M_alt    "P 1"
_space_group_IT_number       1

loop_
  _space_group_symop_operation_xyz
  'x, y, z'

loop_
  _atom_site_type_symbol
  _atom_site_label
  _atom_site_symmetry_multiplicity
  _atom_site_fract_x
  _atom_site_fract_y
  _atom_site_fract_z
  _atom_site_occupancy
  O   O1        1.0  0.14600  0.35200  0.01130  1.0000
  O   O2        1.0  0.83600  0.16300  0.08150  1.0000
  O   O3        1.0  0.42500  0.96100  0.08800  1.0000
  O   O4        1.0  0.33600  0.23000  0.14900  1.0000
  O   O5        1.0  0.94900  0.41800  0.14900  1.0000
  O   O6        1.0  0.89500  0.93000  0.19200  1.0000
  O   O7        1.0  0.60200  0.49600  0.24600  1.0000
  O   O8        1.0  0.20500  0.72100  0.24800  1.0000
  O   O9        1.0  0.79500  0.22100  0.25200  1.0000
  O   O10       1.0  0.39800  0.99600  0.25400  1.0000
  O   O11       1.0  0.10500  0.43000  0.30800  1.0000
  O   O12       1.0  0.05110  0.91800  0.35100  1.0000
  O   O13       1.0  0.66400  0.73000  0.35100  1.0000
  O   O14       1.0  0.57500  0.46100  0.41200  1.0000
  O   O15       1.0  0.16400  0.66300  0.41800  1.0000
  O   O16       1.0  0.85400  0.85200  0.48900  1.0000
  O   O17       1.0  0.14600  0.14800  0.51100  1.0000
  O   O18       1.0  0.83600  0.33700  0.58200  1.0000
  O   O19       1.0  0.42500  0.53900  0.58800  1.0000
  O   O20       1.0  0.33600  0.27000  0.64900  1.0000
  O   O21       1.0  0.94900  0.08180  0.64900  1.0000
  O   O22       1.0  0.89500  0.57000  0.69200  1.0000
  O   O23       1.0  0.60200  0.00433  0.74600  1.0000
  O   O24       1.0  0.20500  0.77900  0.74800  1.0000
  O   O25       1.0  0.79500  0.27900  0.75200  1.0000
  O   O26       1.0  0.39800  0.50400  0.75400  1.0000
  O   O27       1.0  0.10500  0.07020  0.80800  1.0000
  O   O28       1.0  0.05110  0.58200  0.85100  1.0000
  O   O29       1.0  0.66400  0.77000  0.85100  1.0000
  O   O30       1.0  0.57500  0.03920  0.91200  1.0000
  O   O31       1.0  0.16400  0.83700  0.91800  1.0000
  O   O32       1.0  0.85400  0.64800  0.98900  1.0000
  P   P1        1.0  0.07410  0.28300  0.09160  1.0000
  P   P2        1.0  0.85800  0.38700  0.24300  1.0000
  P   P3        1.0  0.14200  0.88700  0.25700  1.0000
  P   P4        1.0  0.92600  0.78300  0.40800  1.0000
  P   P5        1.0  0.07410  0.21700  0.59200  1.0000
  P   P6        1.0  0.85800  0.11300  0.74300  1.0000
  P   P7        1.0  0.14200  0.61300  0.75700  1.0000
  P   P8        1.0  0.92600  0.71700  0.90800  1.0000
  Rb  Rb1       1.0  0.40000  0.64500  0.08910  1.0000
  Rb  Rb2       1.0  0.60000  0.14500  0.41100  1.0000
  Rb  Rb3       1.0  0.40000  0.85500  0.58900  1.0000
  Rb  Rb4       1.0  0.60000  0.35500  0.91100  1.0000
  V   V1        1.0  0.59300  0.06600  0.15800  1.0000
  V   V2        1.0  0.40700  0.56600  0.34200  1.0000
  V   V3        1.0  0.59300  0.43400  0.65800  1.0000
  V   V4        1.0  0.40700  0.93400  0.84200  1.0000
