data_image0
_chemical_formula_structural       H12O24Rb4Se8
_chemical_formula_sum              "H12 O24 Rb4 Se8"
_cell_length_a       5.84693
_cell_length_b       17.6456
_cell_length_c       6.12784
_cell_angle_alpha    90
_cell_angle_beta     90
_cell_angle_gamma    90

_space_group_name_H-M_alt    "P 1"
_space_group_IT_number       1

loop_
  _space_group_symop_operation_xyz
  'x, y, z'

loop_
  _atom_site_type_symbol
  _atom_site_label
  _atom_site_symmetry_multiplicity
  _atom_site_fract_x
  _atom_site_fract_y
  _atom_site_fract_z
  _atom_site_occupancy
  H   H1        1.0  0.78300  0.03180  0.01150  1.0000
  H   H2        1.0  0.01860  0.73400  0.03720  1.0000
  H   H3        1.0  0.38900  0.88600  0.21600  1.0000
  H   H4        1.0  0.61100  0.38600  0.28400  1.0000
  H   H5        1.0  0.98100  0.23400  0.46300  1.0000
  H   H6        1.0  0.21700  0.53200  0.48800  1.0000
  H   H7        1.0  0.71700  0.96800  0.51200  1.0000
  H   H8        1.0  0.48100  0.26600  0.53700  1.0000
  H   H9        1.0  0.11100  0.11400  0.71600  1.0000
  H   H10       1.0  0.88900  0.61400  0.78400  1.0000
  H   H11       1.0  0.51900  0.76600  0.96300  1.0000
  H   H12       1.0  0.28300  0.46800  0.98800  1.0000
  O   O1        1.0  0.19700  0.41800  0.01610  1.0000
  O   O2        1.0  0.92900  0.96300  0.07380  1.0000
  O   O3        1.0  0.50500  0.92700  0.15400  1.0000
  O   O4        1.0  0.50100  0.72700  0.18000  1.0000
  O   O5        1.0  0.03790  0.70400  0.18300  1.0000
  O   O6        1.0  0.78500  0.33800  0.18600  1.0000
  O   O7        1.0  0.21500  0.83800  0.31400  1.0000
  O   O8        1.0  0.96200  0.20400  0.31700  1.0000
  O   O9        1.0  0.49900  0.22700  0.32000  1.0000
  O   O10       1.0  0.49500  0.42700  0.34600  1.0000
  O   O11       1.0  0.07110  0.46300  0.42600  1.0000
  O   O12       1.0  0.80300  0.91800  0.48400  1.0000
  O   O13       1.0  0.30300  0.58200  0.51600  1.0000
  O   O14       1.0  0.57100  0.03710  0.57400  1.0000
  O   O15       1.0  0.99500  0.07320  0.65400  1.0000
  O   O16       1.0  0.99900  0.27300  0.68000  1.0000
  O   O17       1.0  0.46200  0.29600  0.68300  1.0000
  O   O18       1.0  0.71500  0.66200  0.68600  1.0000
  O   O19       1.0  0.28500  0.16200  0.81400  1.0000
  O   O20       1.0  0.53800  0.79600  0.81700  1.0000
  O   O21       1.0  0.00091  0.77300  0.82000  1.0000
  O   O22       1.0  0.00462  0.57300  0.84600  1.0000
  O   O23       1.0  0.42900  0.53700  0.92600  1.0000
  O   O24       1.0  0.69700  0.08220  0.98400  1.0000
  Rb  Rb1       1.0  0.25900  0.07950  0.22800  1.0000
  Rb  Rb2       1.0  0.74100  0.57900  0.27200  1.0000
  Rb  Rb3       1.0  0.24100  0.92100  0.72800  1.0000
  Rb  Rb4       1.0  0.75900  0.42100  0.77200  1.0000
  Se  Se1       1.0  0.73100  0.24300  0.16000  1.0000
  Se  Se2       1.0  0.78900  0.89300  0.20200  1.0000
  Se  Se3       1.0  0.21100  0.39300  0.29800  1.0000
  Se  Se4       1.0  0.26900  0.74300  0.34000  1.0000
  Se  Se5       1.0  0.76900  0.75700  0.66000  1.0000
  Se  Se6       1.0  0.71100  0.10700  0.70200  1.0000
  Se  Se7       1.0  0.28900  0.60700  0.79800  1.0000
  Se  Se8       1.0  0.23100  0.25700  0.84000  1.0000
