data_image0
_chemical_formula_structural       F36Rb4Th8
_chemical_formula_sum              "F36 Rb4 Th8"
_cell_length_a       8.80392
_cell_length_b       11.5841
_cell_length_c       7.08766
_cell_angle_alpha    90
_cell_angle_beta     90
_cell_angle_gamma    90

_space_group_name_H-M_alt    "P 1"
_space_group_IT_number       1

loop_
  _space_group_symop_operation_xyz
  'x, y, z'

loop_
  _atom_site_type_symbol
  _atom_site_label
  _atom_site_symmetry_multiplicity
  _atom_site_fract_x
  _atom_site_fract_y
  _atom_site_fract_z
  _atom_site_occupancy
  F   F1        1.0  0.28700  0.09780  0.03130  1.0000
  F   F2        1.0  0.28700  0.40200  0.03130  1.0000
  F   F3        1.0  0.99300  0.60200  0.07320  1.0000
  F   F4        1.0  0.99300  0.89800  0.07320  1.0000
  F   F5        1.0  0.27900  0.60900  0.14800  1.0000
  F   F6        1.0  0.27900  0.89100  0.14800  1.0000
  F   F7        1.0  0.82300  0.25000  0.16500  1.0000
  F   F8        1.0  0.56200  0.07930  0.19000  1.0000
  F   F9        1.0  0.56200  0.42100  0.19000  1.0000
  F   F10       1.0  0.06230  0.07930  0.31000  1.0000
  F   F11       1.0  0.06230  0.42100  0.31000  1.0000
  F   F12       1.0  0.32300  0.25000  0.33500  1.0000
  F   F13       1.0  0.77900  0.60900  0.35200  1.0000
  F   F14       1.0  0.77900  0.89100  0.35200  1.0000
  F   F15       1.0  0.49300  0.60200  0.42700  1.0000
  F   F16       1.0  0.49300  0.89800  0.42700  1.0000
  F   F17       1.0  0.78700  0.09780  0.46900  1.0000
  F   F18       1.0  0.78700  0.40200  0.46900  1.0000
  F   F19       1.0  0.21300  0.59800  0.53100  1.0000
  F   F20       1.0  0.21300  0.90200  0.53100  1.0000
  F   F21       1.0  0.50700  0.10200  0.57300  1.0000
  F   F22       1.0  0.50700  0.39800  0.57300  1.0000
  F   F23       1.0  0.22100  0.10900  0.64800  1.0000
  F   F24       1.0  0.22100  0.39100  0.64800  1.0000
  F   F25       1.0  0.67700  0.75000  0.66500  1.0000
  F   F26       1.0  0.93800  0.57900  0.69000  1.0000
  F   F27       1.0  0.93800  0.92100  0.69000  1.0000
  F   F28       1.0  0.43800  0.57900  0.81000  1.0000
  F   F29       1.0  0.43800  0.92100  0.81000  1.0000
  F   F30       1.0  0.17700  0.75000  0.83500  1.0000
  F   F31       1.0  0.72100  0.10900  0.85200  1.0000
  F   F32       1.0  0.72100  0.39100  0.85200  1.0000
  F   F33       1.0  0.00710  0.10200  0.92700  1.0000
  F   F34       1.0  0.00710  0.39800  0.92700  1.0000
  F   F35       1.0  0.71300  0.59800  0.96900  1.0000
  F   F36       1.0  0.71300  0.90200  0.96900  1.0000
  Rb  Rb1       1.0  0.53100  0.75000  0.13300  1.0000
  Rb  Rb2       1.0  0.03080  0.75000  0.36700  1.0000
  Rb  Rb3       1.0  0.96900  0.25000  0.63300  1.0000
  Rb  Rb4       1.0  0.46900  0.25000  0.86700  1.0000
  Th  Th1       1.0  0.82500  0.05030  0.15200  1.0000
  Th  Th2       1.0  0.82500  0.45000  0.15200  1.0000
  Th  Th3       1.0  0.32500  0.05030  0.34800  1.0000
  Th  Th4       1.0  0.32500  0.45000  0.34800  1.0000
  Th  Th5       1.0  0.67500  0.55000  0.65200  1.0000
  Th  Th6       1.0  0.67500  0.95000  0.65200  1.0000
  Th  Th7       1.0  0.17500  0.55000  0.84800  1.0000
  Th  Th8       1.0  0.17500  0.95000  0.84800  1.0000
