data_image0
_chemical_formula_structural       C16I8O16Rh8
_chemical_formula_sum              "C16 I8 O16 Rh8"
_cell_length_a       9.33556
_cell_length_b       9.56313
_cell_length_c       11.1877
_cell_angle_alpha    90
_cell_angle_beta     95.3298
_cell_angle_gamma    90

_space_group_name_H-M_alt    "P 1"
_space_group_IT_number       1

loop_
  _space_group_symop_operation_xyz
  'x, y, z'

loop_
  _atom_site_type_symbol
  _atom_site_label
  _atom_site_symmetry_multiplicity
  _atom_site_fract_x
  _atom_site_fract_y
  _atom_site_fract_z
  _atom_site_occupancy
  C   C1        1.0  0.72900  0.85600  0.00405  1.0000
  C   C2        1.0  0.35200  0.56800  0.08000  1.0000
  C   C3        1.0  0.50200  0.19100  0.14600  1.0000
  C   C4        1.0  0.56800  0.62300  0.24200  1.0000
  C   C5        1.0  0.93200  0.12300  0.25800  1.0000
  C   C6        1.0  0.99800  0.69100  0.35400  1.0000
  C   C7        1.0  0.14800  0.06760  0.42000  1.0000
  C   C8        1.0  0.77100  0.35600  0.49600  1.0000
  C   C9        1.0  0.22900  0.64400  0.50400  1.0000
  C   C10       1.0  0.85200  0.93200  0.58000  1.0000
  C   C11       1.0  0.00216  0.30900  0.64600  1.0000
  C   C12       1.0  0.06790  0.87700  0.74200  1.0000
  C   C13       1.0  0.43200  0.37700  0.75800  1.0000
  C   C14       1.0  0.49800  0.80900  0.85400  1.0000
  C   C15       1.0  0.64800  0.43200  0.92000  1.0000
  C   C16       1.0  0.27100  0.14400  0.99600  1.0000
  I   I1        1.0  0.15900  0.85300  0.10500  1.0000
  I   I2        1.0  0.01730  0.42800  0.17100  1.0000
  I   I3        1.0  0.48300  0.92800  0.32900  1.0000
  I   I4        1.0  0.34100  0.35300  0.39500  1.0000
  I   I5        1.0  0.65900  0.64700  0.60500  1.0000
  I   I6        1.0  0.51700  0.07210  0.67100  1.0000
  I   I7        1.0  0.98300  0.57200  0.82900  1.0000
  I   I8        1.0  0.84100  0.14700  0.89500  1.0000
  O   O1        1.0  0.33200  0.47700  0.01160  1.0000
  O   O2        1.0  0.78400  0.79800  0.08740  1.0000
  O   O3        1.0  0.59100  0.27600  0.15200  1.0000
  O   O4        1.0  0.82500  0.06750  0.22600  1.0000
  O   O5        1.0  0.67500  0.56800  0.27400  1.0000
  O   O6        1.0  0.90900  0.77600  0.34800  1.0000
  O   O7        1.0  0.71600  0.29800  0.41300  1.0000
  O   O8        1.0  0.16800  0.97700  0.48800  1.0000
  O   O9        1.0  0.83200  0.02300  0.51200  1.0000
  O   O10       1.0  0.28400  0.70200  0.58700  1.0000
  O   O11       1.0  0.09070  0.22400  0.65200  1.0000
  O   O12       1.0  0.32500  0.43200  0.72600  1.0000
  O   O13       1.0  0.17500  0.93200  0.77400  1.0000
  O   O14       1.0  0.40900  0.72400  0.84800  1.0000
  O   O15       1.0  0.21600  0.20200  0.91300  1.0000
  O   O16       1.0  0.66800  0.52300  0.98800  1.0000
  Rh  Rh1       1.0  0.35700  0.05750  0.13300  1.0000
  Rh  Rh2       1.0  0.39600  0.71100  0.18900  1.0000
  Rh  Rh3       1.0  0.10400  0.21100  0.31100  1.0000
  Rh  Rh4       1.0  0.14300  0.55700  0.36700  1.0000
  Rh  Rh5       1.0  0.85700  0.44300  0.63300  1.0000
  Rh  Rh6       1.0  0.89600  0.78900  0.68900  1.0000
  Rh  Rh7       1.0  0.60400  0.28900  0.81100  1.0000
  Rh  Rh8       1.0  0.64300  0.94300  0.86700  1.0000
