data_image0
_chemical_formula_structural       Ca4K8O28P8
_chemical_formula_sum              "Ca4 K8 O28 P8"
_cell_length_a       9.75725
_cell_length_b       5.63965
_cell_length_c       12.8863
_cell_angle_alpha    90
_cell_angle_beta     104.253
_cell_angle_gamma    90

_space_group_name_H-M_alt    "P 1"
_space_group_IT_number       1

loop_
  _space_group_symop_operation_xyz
  'x, y, z'

loop_
  _atom_site_type_symbol
  _atom_site_label
  _atom_site_symmetry_multiplicity
  _atom_site_fract_x
  _atom_site_fract_y
  _atom_site_fract_z
  _atom_site_occupancy
  Ca  Ca1       1.0  0.75100  0.26200  0.01940  1.0000
  Ca  Ca2       1.0  0.74900  0.76200  0.48100  1.0000
  Ca  Ca3       1.0  0.25100  0.23800  0.51900  1.0000
  Ca  Ca4       1.0  0.24900  0.73800  0.98100  1.0000
  K   K1        1.0  0.12800  0.23700  0.14100  1.0000
  K   K2        1.0  0.64400  0.72800  0.17900  1.0000
  K   K3        1.0  0.85600  0.22800  0.32100  1.0000
  K   K4        1.0  0.37200  0.73700  0.35900  1.0000
  K   K5        1.0  0.62800  0.26300  0.64100  1.0000
  K   K6        1.0  0.14400  0.77200  0.67900  1.0000
  K   K7        1.0  0.35600  0.27200  0.82100  1.0000
  K   K8        1.0  0.87200  0.76300  0.85900  1.0000
  O   O1        1.0  0.35600  0.39200  0.04840  1.0000
  O   O2        1.0  0.06820  0.73600  0.06620  1.0000
  O   O3        1.0  0.39100  0.96400  0.11200  1.0000
  O   O4        1.0  0.86900  0.95600  0.12200  1.0000
  O   O5        1.0  0.60500  0.23800  0.13500  1.0000
  O   O6        1.0  0.89800  0.50800  0.15100  1.0000
  O   O7        1.0  0.42000  0.30200  0.24200  1.0000
  O   O8        1.0  0.08030  0.80200  0.25800  1.0000
  O   O9        1.0  0.60200  0.00812  0.34900  1.0000
  O   O10       1.0  0.89500  0.73800  0.36500  1.0000
  O   O11       1.0  0.63100  0.45600  0.37800  1.0000
  O   O12       1.0  0.10900  0.46400  0.38800  1.0000
  O   O13       1.0  0.43200  0.23600  0.43400  1.0000
  O   O14       1.0  0.14400  0.89200  0.45200  1.0000
  O   O15       1.0  0.85600  0.10800  0.54800  1.0000
  O   O16       1.0  0.56800  0.76400  0.56600  1.0000
  O   O17       1.0  0.89100  0.53600  0.61200  1.0000
  O   O18       1.0  0.36900  0.54400  0.62200  1.0000
  O   O19       1.0  0.10500  0.26200  0.63500  1.0000
  O   O20       1.0  0.39800  0.99200  0.65100  1.0000
  O   O21       1.0  0.92000  0.19800  0.74200  1.0000
  O   O22       1.0  0.58000  0.69800  0.75800  1.0000
  O   O23       1.0  0.10200  0.49200  0.84900  1.0000
  O   O24       1.0  0.39500  0.76200  0.86500  1.0000
  O   O25       1.0  0.13100  0.04410  0.87800  1.0000
  O   O26       1.0  0.60900  0.03640  0.88800  1.0000
  O   O27       1.0  0.93200  0.26400  0.93400  1.0000
  O   O28       1.0  0.64400  0.60800  0.95200  1.0000
  P   P1        1.0  0.44700  0.21800  0.12600  1.0000
  P   P2        1.0  0.96900  0.74400  0.14100  1.0000
  P   P3        1.0  0.53100  0.24400  0.35900  1.0000
  P   P4        1.0  0.05350  0.71800  0.37400  1.0000
  P   P5        1.0  0.94700  0.28200  0.62600  1.0000
  P   P6        1.0  0.46900  0.75600  0.64100  1.0000
  P   P7        1.0  0.03060  0.25600  0.85900  1.0000
  P   P8        1.0  0.55300  0.78200  0.87400  1.0000
