data_image0
_chemical_formula_structural       Hf4Si2
_chemical_formula_sum              "Hf4 Si2"
_cell_length_a       5.19391
_cell_length_b       5.32009
_cell_length_c       5.32009
_cell_angle_alpha    103.785
_cell_angle_beta     60.7815
_cell_angle_gamma    119.218

_space_group_name_H-M_alt    "P 1"
_space_group_IT_number       1

loop_
  _space_group_symop_operation_xyz
  'x, y, z'

loop_
  _atom_site_type_symbol
  _atom_site_label
  _atom_site_symmetry_multiplicity
  _atom_site_fract_x
  _atom_site_fract_y
  _atom_site_fract_z
  _atom_site_occupancy
  Hf  Hf1       1.0  0.65700  0.50000  0.18600  1.0000
  Hf  Hf2       1.0  0.15700  0.81400  0.50000  1.0000
  Hf  Hf3       1.0  0.84300  0.18600  0.50000  1.0000
  Hf  Hf4       1.0  0.34300  0.50000  0.81400  1.0000
  Si  Si1       1.0  0.25000  0.00000  0.00000  1.0000
  Si  Si2       1.0  0.75000  0.00000  0.00000  1.0000
