data_image0
_chemical_formula_structural       In8Na24P16
_chemical_formula_sum              "In8 Na24 P16"
_cell_length_a       9.42269
_cell_length_b       7.33955
_cell_length_c       15.3535
_cell_angle_alpha    90
_cell_angle_beta     92.6691
_cell_angle_gamma    90

_space_group_name_H-M_alt    "P 1"
_space_group_IT_number       1

loop_
  _space_group_symop_operation_xyz
  'x, y, z'

loop_
  _atom_site_type_symbol
  _atom_site_label
  _atom_site_symmetry_multiplicity
  _atom_site_fract_x
  _atom_site_fract_y
  _atom_site_fract_z
  _atom_site_occupancy
  In  In1       1.0  0.12600  0.64200  0.04100  1.0000
  In  In2       1.0  0.63700  0.15500  0.21000  1.0000
  In  In3       1.0  0.36300  0.65500  0.29000  1.0000
  In  In4       1.0  0.87400  0.14200  0.45900  1.0000
  In  In5       1.0  0.12600  0.85800  0.54100  1.0000
  In  In6       1.0  0.63700  0.34500  0.71000  1.0000
  In  In7       1.0  0.36300  0.84500  0.79000  1.0000
  In  In8       1.0  0.87400  0.35800  0.95900  1.0000
  Na  Na1       1.0  0.61700  0.84700  0.04630  1.0000
  Na  Na2       1.0  0.43900  0.48900  0.10400  1.0000
  Na  Na3       1.0  0.93400  0.02300  0.10600  1.0000
  Na  Na4       1.0  0.32000  0.99700  0.13600  1.0000
  Na  Na5       1.0  0.81200  0.53500  0.15100  1.0000
  Na  Na6       1.0  0.12400  0.34800  0.20300  1.0000
  Na  Na7       1.0  0.87600  0.84800  0.29700  1.0000
  Na  Na8       1.0  0.18800  0.03480  0.34900  1.0000
  Na  Na9       1.0  0.68000  0.49700  0.36400  1.0000
  Na  Na10      1.0  0.06560  0.52300  0.39400  1.0000
  Na  Na11      1.0  0.56100  0.98900  0.39600  1.0000
  Na  Na12      1.0  0.38300  0.34700  0.45400  1.0000
  Na  Na13      1.0  0.61700  0.65300  0.54600  1.0000
  Na  Na14      1.0  0.43900  0.01060  0.60400  1.0000
  Na  Na15      1.0  0.93400  0.47700  0.60600  1.0000
  Na  Na16      1.0  0.32000  0.50300  0.63600  1.0000
  Na  Na17      1.0  0.81200  0.96500  0.65100  1.0000
  Na  Na18      1.0  0.12400  0.15200  0.70300  1.0000
  Na  Na19      1.0  0.87600  0.65200  0.79700  1.0000
  Na  Na20      1.0  0.18800  0.46500  0.84900  1.0000
  Na  Na21      1.0  0.68000  0.00349  0.86400  1.0000
  Na  Na22      1.0  0.06560  0.97700  0.89400  1.0000
  Na  Na23      1.0  0.56100  0.51100  0.89600  1.0000
  Na  Na24      1.0  0.38300  0.15300  0.95400  1.0000
  P   P1        1.0  0.12700  0.28100  0.02340  1.0000
  P   P2        1.0  0.65200  0.23800  0.04150  1.0000
  P   P3        1.0  0.12400  0.74200  0.20600  1.0000
  P   P4        1.0  0.59300  0.79300  0.22600  1.0000
  P   P5        1.0  0.40700  0.29300  0.27400  1.0000
  P   P6        1.0  0.87600  0.24200  0.29400  1.0000
  P   P7        1.0  0.34800  0.73800  0.45900  1.0000
  P   P8        1.0  0.87300  0.78100  0.47700  1.0000
  P   P9        1.0  0.12700  0.21900  0.52300  1.0000
  P   P10       1.0  0.65200  0.26200  0.54100  1.0000
  P   P11       1.0  0.12400  0.75800  0.70600  1.0000
  P   P12       1.0  0.59300  0.70700  0.72600  1.0000
  P   P13       1.0  0.40700  0.20700  0.77400  1.0000
  P   P14       1.0  0.87600  0.25800  0.79400  1.0000
  P   P15       1.0  0.34800  0.76200  0.95900  1.0000
  P   P16       1.0  0.87300  0.71900  0.97700  1.0000
