data_image0
_chemical_formula_structural       As16K24Nb4Tl4
_chemical_formula_sum              "As16 K24 Nb4 Tl4"
_cell_length_a       18.9964
_cell_length_b       10.5247
_cell_length_c       7.83333
_cell_angle_alpha    90
_cell_angle_beta     90
_cell_angle_gamma    90

_space_group_name_H-M_alt    "P 1"
_space_group_IT_number       1

loop_
  _space_group_symop_operation_xyz
  'x, y, z'

loop_
  _atom_site_type_symbol
  _atom_site_label
  _atom_site_symmetry_multiplicity
  _atom_site_fract_x
  _atom_site_fract_y
  _atom_site_fract_z
  _atom_site_occupancy
  As  As1       1.0  0.29500  0.75000  0.20400  1.0000
  As  As2       1.0  0.10200  0.55500  0.21200  1.0000
  As  As3       1.0  0.10200  0.94500  0.21200  1.0000
  As  As4       1.0  0.83000  0.25000  0.21300  1.0000
  As  As5       1.0  0.33000  0.25000  0.28700  1.0000
  As  As6       1.0  0.60200  0.55500  0.28800  1.0000
  As  As7       1.0  0.60200  0.94500  0.28800  1.0000
  As  As8       1.0  0.79500  0.75000  0.29600  1.0000
  As  As9       1.0  0.20500  0.25000  0.70400  1.0000
  As  As10      1.0  0.39800  0.05520  0.71200  1.0000
  As  As11      1.0  0.39800  0.44500  0.71200  1.0000
  As  As12      1.0  0.67000  0.75000  0.71300  1.0000
  As  As13      1.0  0.17000  0.75000  0.78700  1.0000
  As  As14      1.0  0.89800  0.05520  0.78800  1.0000
  As  As15      1.0  0.89800  0.44500  0.78800  1.0000
  As  As16      1.0  0.70500  0.25000  0.79600  1.0000
  K   K1        1.0  0.74300  0.54600  0.00709  1.0000
  K   K2        1.0  0.74300  0.95400  0.00709  1.0000
  K   K3        1.0  0.00251  0.25000  0.05460  1.0000
  K   K4        1.0  0.65200  0.25000  0.18000  1.0000
  K   K5        1.0  0.42100  0.52000  0.22100  1.0000
  K   K6        1.0  0.42100  0.98000  0.22100  1.0000
  K   K7        1.0  0.92100  0.52000  0.27900  1.0000
  K   K8        1.0  0.92100  0.98000  0.27900  1.0000
  K   K9        1.0  0.15200  0.25000  0.32000  1.0000
  K   K10       1.0  0.50300  0.25000  0.44500  1.0000
  K   K11       1.0  0.24300  0.54600  0.49300  1.0000
  K   K12       1.0  0.24300  0.95400  0.49300  1.0000
  K   K13       1.0  0.75700  0.04620  0.50700  1.0000
  K   K14       1.0  0.75700  0.45400  0.50700  1.0000
  K   K15       1.0  0.49700  0.75000  0.55500  1.0000
  K   K16       1.0  0.84800  0.75000  0.68000  1.0000
  K   K17       1.0  0.07900  0.01960  0.72100  1.0000
  K   K18       1.0  0.07900  0.48000  0.72100  1.0000
  K   K19       1.0  0.57900  0.01960  0.77900  1.0000
  K   K20       1.0  0.57900  0.48000  0.77900  1.0000
  K   K21       1.0  0.34800  0.75000  0.82000  1.0000
  K   K22       1.0  0.99700  0.75000  0.94500  1.0000
  K   K23       1.0  0.25700  0.04620  0.99300  1.0000
  K   K24       1.0  0.25700  0.45400  0.99300  1.0000
  Nb  Nb1       1.0  0.16900  0.75000  0.10400  1.0000
  Nb  Nb2       1.0  0.66900  0.75000  0.39600  1.0000
  Nb  Nb3       1.0  0.33100  0.25000  0.60400  1.0000
  Nb  Nb4       1.0  0.83100  0.25000  0.89600  1.0000
  Tl  Tl1       1.0  0.55100  0.75000  0.05770  1.0000
  Tl  Tl2       1.0  0.05120  0.75000  0.44200  1.0000
  Tl  Tl3       1.0  0.94900  0.25000  0.55800  1.0000
  Tl  Tl4       1.0  0.44900  0.25000  0.94200  1.0000
