data_image0
_chemical_formula_structural       C12Cu8H8N12O4Rb4
_chemical_formula_sum              "C12 Cu8 H8 N12 O4 Rb4"
_cell_length_a       11.8608
_cell_length_b       8.32757
_cell_length_c       7.33399
_cell_angle_alpha    90
_cell_angle_beta     96.3526
_cell_angle_gamma    90

_space_group_name_H-M_alt    "P 1"
_space_group_IT_number       1

loop_
  _space_group_symop_operation_xyz
  'x, y, z'

loop_
  _atom_site_type_symbol
  _atom_site_label
  _atom_site_symmetry_multiplicity
  _atom_site_fract_x
  _atom_site_fract_y
  _atom_site_fract_z
  _atom_site_occupancy
  C   C1        1.0  0.72700  0.77400  0.05740  1.0000
  C   C2        1.0  0.53300  0.52200  0.22900  1.0000
  C   C3        1.0  0.04050  0.91100  0.23000  1.0000
  C   C4        1.0  0.96000  0.41100  0.27000  1.0000
  C   C5        1.0  0.46700  0.02160  0.27100  1.0000
  C   C6        1.0  0.27300  0.27400  0.44300  1.0000
  C   C7        1.0  0.72700  0.72600  0.55700  1.0000
  C   C8        1.0  0.53300  0.97800  0.72900  1.0000
  C   C9        1.0  0.04050  0.58900  0.73000  1.0000
  C   C10       1.0  0.96000  0.08910  0.77000  1.0000
  C   C11       1.0  0.46700  0.47800  0.77100  1.0000
  C   C12       1.0  0.27300  0.22600  0.94300  1.0000
  Cu  Cu1       1.0  0.06410  0.10600  0.11900  1.0000
  Cu  Cu2       1.0  0.60300  0.71600  0.18200  1.0000
  Cu  Cu3       1.0  0.39700  0.21600  0.31800  1.0000
  Cu  Cu4       1.0  0.93600  0.60600  0.38100  1.0000
  Cu  Cu5       1.0  0.06410  0.39400  0.61900  1.0000
  Cu  Cu6       1.0  0.60300  0.78400  0.68200  1.0000
  Cu  Cu7       1.0  0.39700  0.28400  0.81800  1.0000
  Cu  Cu8       1.0  0.93600  0.89400  0.88100  1.0000
  H   H1        1.0  0.36700  0.85900  0.02270  1.0000
  H   H2        1.0  0.60900  0.28000  0.10700  1.0000
  H   H3        1.0  0.39100  0.78000  0.39300  1.0000
  H   H4        1.0  0.63300  0.35900  0.47700  1.0000
  H   H5        1.0  0.36700  0.64100  0.52300  1.0000
  H   H6        1.0  0.60900  0.22000  0.60700  1.0000
  H   H7        1.0  0.39100  0.72000  0.89300  1.0000
  H   H8        1.0  0.63300  0.14100  0.97700  1.0000
  N   N1        1.0  0.19400  0.18200  0.01100  1.0000
  N   N2        1.0  0.97800  0.29500  0.18500  1.0000
  N   N3        1.0  0.51600  0.90200  0.24400  1.0000
  N   N4        1.0  0.48400  0.40200  0.25600  1.0000
  N   N5        1.0  0.02200  0.79500  0.31500  1.0000
  N   N6        1.0  0.80600  0.68200  0.48900  1.0000
  N   N7        1.0  0.19400  0.31800  0.51100  1.0000
  N   N8        1.0  0.97800  0.20500  0.68500  1.0000
  N   N9        1.0  0.51600  0.59800  0.74400  1.0000
  N   N10       1.0  0.48400  0.09800  0.75600  1.0000
  N   N11       1.0  0.02200  0.70500  0.81500  1.0000
  N   N12       1.0  0.80600  0.81800  0.98900  1.0000
  O   O1        1.0  0.67200  0.22200  0.05890  1.0000
  O   O2        1.0  0.32800  0.72200  0.44100  1.0000
  O   O3        1.0  0.67200  0.27800  0.55900  1.0000
  O   O4        1.0  0.32800  0.77800  0.94100  1.0000
  Rb  Rb1       1.0  0.19900  0.55900  0.14100  1.0000
  Rb  Rb2       1.0  0.80100  0.05870  0.35900  1.0000
  Rb  Rb3       1.0  0.19900  0.94100  0.64100  1.0000
  Rb  Rb4       1.0  0.80100  0.44100  0.85900  1.0000
