data_image0
_chemical_formula_structural       Cl8N16S8Se16
_chemical_formula_sum              "Cl8 N16 S8 Se16"
_cell_length_a       8.58611
_cell_length_b       7.91009
_cell_length_c       15.3488
_cell_angle_alpha    90
_cell_angle_beta     90
_cell_angle_gamma    90

_space_group_name_H-M_alt    "P 1"
_space_group_IT_number       1

loop_
  _space_group_symop_operation_xyz
  'x, y, z'

loop_
  _atom_site_type_symbol
  _atom_site_label
  _atom_site_symmetry_multiplicity
  _atom_site_fract_x
  _atom_site_fract_y
  _atom_site_fract_z
  _atom_site_occupancy
  Cl  Cl1       1.0  0.40400  0.21600  0.08690  1.0000
  Cl  Cl2       1.0  0.09570  0.71600  0.08690  1.0000
  Cl  Cl3       1.0  0.90400  0.21600  0.41300  1.0000
  Cl  Cl4       1.0  0.59600  0.71600  0.41300  1.0000
  Cl  Cl5       1.0  0.40400  0.28400  0.58700  1.0000
  Cl  Cl6       1.0  0.09570  0.78400  0.58700  1.0000
  Cl  Cl7       1.0  0.90400  0.28400  0.91300  1.0000
  Cl  Cl8       1.0  0.59600  0.78400  0.91300  1.0000
  N   N1        1.0  0.72400  0.45600  0.15200  1.0000
  N   N2        1.0  0.77600  0.95600  0.15200  1.0000
  N   N3        1.0  0.04340  0.10300  0.18900  1.0000
  N   N4        1.0  0.45700  0.60300  0.18900  1.0000
  N   N5        1.0  0.54300  0.10300  0.31100  1.0000
  N   N6        1.0  0.95700  0.60300  0.31100  1.0000
  N   N7        1.0  0.22400  0.45600  0.34800  1.0000
  N   N8        1.0  0.27600  0.95600  0.34800  1.0000
  N   N9        1.0  0.72400  0.04380  0.65200  1.0000
  N   N10       1.0  0.77600  0.54400  0.65200  1.0000
  N   N11       1.0  0.04340  0.39700  0.68900  1.0000
  N   N12       1.0  0.45700  0.89700  0.68900  1.0000
  N   N13       1.0  0.54300  0.39700  0.81100  1.0000
  N   N14       1.0  0.95700  0.89700  0.81100  1.0000
  N   N15       1.0  0.22400  0.04380  0.84800  1.0000
  N   N16       1.0  0.27600  0.54400  0.84800  1.0000
  S   S1        1.0  0.59100  0.48500  0.22100  1.0000
  S   S2        1.0  0.90900  0.98500  0.22100  1.0000
  S   S3        1.0  0.09140  0.48500  0.27900  1.0000
  S   S4        1.0  0.40900  0.98500  0.27900  1.0000
  S   S5        1.0  0.59100  0.01550  0.72100  1.0000
  S   S6        1.0  0.90900  0.51500  0.72100  1.0000
  S   S7        1.0  0.09140  0.01550  0.77900  1.0000
  S   S8        1.0  0.40900  0.51500  0.77900  1.0000
  Se  Se1       1.0  0.79500  0.05360  0.04530  1.0000
  Se  Se2       1.0  0.70500  0.55400  0.04530  1.0000
  Se  Se3       1.0  0.03950  0.18500  0.07890  1.0000
  Se  Se4       1.0  0.46000  0.68500  0.07890  1.0000
  Se  Se5       1.0  0.54000  0.18500  0.42100  1.0000
  Se  Se6       1.0  0.96000  0.68500  0.42100  1.0000
  Se  Se7       1.0  0.29500  0.05360  0.45500  1.0000
  Se  Se8       1.0  0.20500  0.55400  0.45500  1.0000
  Se  Se9       1.0  0.79500  0.44600  0.54500  1.0000
  Se  Se10      1.0  0.70500  0.94600  0.54500  1.0000
  Se  Se11      1.0  0.03950  0.31500  0.57900  1.0000
  Se  Se12      1.0  0.46000  0.81500  0.57900  1.0000
  Se  Se13      1.0  0.54000  0.31500  0.92100  1.0000
  Se  Se14      1.0  0.96000  0.81500  0.92100  1.0000
  Se  Se15      1.0  0.29500  0.44600  0.95500  1.0000
  Se  Se16      1.0  0.20500  0.94600  0.95500  1.0000
