data_image0
_chemical_formula_structural       H16O24P4Sc4
_chemical_formula_sum              "H16 O24 P4 Sc4"
_cell_length_a       5.40488
_cell_length_b       10.0521
_cell_length_c       8.7343
_cell_angle_alpha    90
_cell_angle_beta     91.8411
_cell_angle_gamma    90

_space_group_name_H-M_alt    "P 1"
_space_group_IT_number       1

loop_
  _space_group_symop_operation_xyz
  'x, y, z'

loop_
  _atom_site_type_symbol
  _atom_site_label
  _atom_site_symmetry_multiplicity
  _atom_site_fract_x
  _atom_site_fract_y
  _atom_site_fract_z
  _atom_site_occupancy
  H   H1        1.0  0.67800  0.66000  0.02440  1.0000
  H   H2        1.0  0.60600  0.32400  0.02470  1.0000
  H   H3        1.0  0.58100  0.96000  0.18900  1.0000
  H   H4        1.0  0.34200  0.04920  0.23200  1.0000
  H   H5        1.0  0.15800  0.54900  0.26800  1.0000
  H   H6        1.0  0.91900  0.46000  0.31100  1.0000
  H   H7        1.0  0.89400  0.82400  0.47500  1.0000
  H   H8        1.0  0.82200  0.16000  0.47600  1.0000
  H   H9        1.0  0.17800  0.84000  0.52400  1.0000
  H   H10       1.0  0.10600  0.17600  0.52500  1.0000
  H   H11       1.0  0.08090  0.54000  0.68900  1.0000
  H   H12       1.0  0.84200  0.45100  0.73200  1.0000
  H   H13       1.0  0.65800  0.95100  0.76800  1.0000
  H   H14       1.0  0.41900  0.03950  0.81100  1.0000
  H   H15       1.0  0.39400  0.67600  0.97500  1.0000
  H   H16       1.0  0.32200  0.34000  0.97600  1.0000
  O   O1        1.0  0.87100  0.22200  0.02740  1.0000
  O   O2        1.0  0.44500  0.35800  0.06030  1.0000
  O   O3        1.0  0.87200  0.99700  0.16200  1.0000
  O   O4        1.0  0.79100  0.70200  0.20700  1.0000
  O   O5        1.0  0.40100  0.95600  0.21200  1.0000
  O   O6        1.0  0.33500  0.67600  0.24800  1.0000
  O   O7        1.0  0.16500  0.17600  0.25200  1.0000
  O   O8        1.0  0.09910  0.45600  0.28800  1.0000
  O   O9        1.0  0.70900  0.20200  0.29300  1.0000
  O   O10       1.0  0.62800  0.49700  0.33800  1.0000
  O   O11       1.0  0.05520  0.85800  0.44000  1.0000
  O   O12       1.0  0.62900  0.72200  0.47300  1.0000
  O   O13       1.0  0.37100  0.27800  0.52700  1.0000
  O   O14       1.0  0.94500  0.14200  0.56000  1.0000
  O   O15       1.0  0.37200  0.50300  0.66200  1.0000
  O   O16       1.0  0.29100  0.79800  0.70700  1.0000
  O   O17       1.0  0.90100  0.54400  0.71200  1.0000
  O   O18       1.0  0.83500  0.82400  0.74800  1.0000
  O   O19       1.0  0.66500  0.32400  0.75200  1.0000
  O   O20       1.0  0.59900  0.04360  0.78800  1.0000
  O   O21       1.0  0.20900  0.29800  0.79300  1.0000
  O   O22       1.0  0.12800  0.00270  0.83800  1.0000
  O   O23       1.0  0.55500  0.64200  0.94000  1.0000
  O   O24       1.0  0.12900  0.77800  0.97300  1.0000
  P   P1        1.0  0.90400  0.15000  0.18200  1.0000
  P   P2        1.0  0.59600  0.65000  0.31800  1.0000
  P   P3        1.0  0.40400  0.35000  0.68200  1.0000
  P   P4        1.0  0.09620  0.85000  0.81800  1.0000
  Sc  Sc1       1.0  0.09260  0.82900  0.19900  1.0000
  Sc  Sc2       1.0  0.40700  0.32900  0.30100  1.0000
  Sc  Sc3       1.0  0.59300  0.67100  0.69900  1.0000
  Sc  Sc4       1.0  0.90700  0.17100  0.80100  1.0000
