data_image0
_chemical_formula_structural       As16In8Na24
_chemical_formula_sum              "As16 In8 Na24"
_cell_length_a       9.69305
_cell_length_b       7.50051
_cell_length_c       15.7376
_cell_angle_alpha    90
_cell_angle_beta     92.8764
_cell_angle_gamma    90

_space_group_name_H-M_alt    "P 1"
_space_group_IT_number       1

loop_
  _space_group_symop_operation_xyz
  'x, y, z'

loop_
  _atom_site_type_symbol
  _atom_site_label
  _atom_site_symmetry_multiplicity
  _atom_site_fract_x
  _atom_site_fract_y
  _atom_site_fract_z
  _atom_site_occupancy
  As  As1       1.0  0.13000  0.27600  0.02360  1.0000
  As  As2       1.0  0.65000  0.23800  0.03920  1.0000
  As  As3       1.0  0.12000  0.74400  0.20800  1.0000
  As  As4       1.0  0.59400  0.78600  0.22600  1.0000
  As  As5       1.0  0.40600  0.28600  0.27400  1.0000
  As  As6       1.0  0.88000  0.24400  0.29200  1.0000
  As  As7       1.0  0.35000  0.73800  0.46100  1.0000
  As  As8       1.0  0.87000  0.77600  0.47600  1.0000
  As  As9       1.0  0.13000  0.22400  0.52400  1.0000
  As  As10      1.0  0.65000  0.26200  0.53900  1.0000
  As  As11      1.0  0.12000  0.75600  0.70800  1.0000
  As  As12      1.0  0.59400  0.71400  0.72600  1.0000
  As  As13      1.0  0.40600  0.21400  0.77400  1.0000
  As  As14      1.0  0.88000  0.25600  0.79200  1.0000
  As  As15      1.0  0.35000  0.76200  0.96100  1.0000
  As  As16      1.0  0.87000  0.72400  0.97600  1.0000
  In  In1       1.0  0.12500  0.64100  0.04170  1.0000
  In  In2       1.0  0.63900  0.15300  0.20900  1.0000
  In  In3       1.0  0.36100  0.65300  0.29100  1.0000
  In  In4       1.0  0.87500  0.14100  0.45800  1.0000
  In  In5       1.0  0.12500  0.85900  0.54200  1.0000
  In  In6       1.0  0.63900  0.34700  0.70900  1.0000
  In  In7       1.0  0.36100  0.84700  0.79100  1.0000
  In  In8       1.0  0.87500  0.35900  0.95800  1.0000
  Na  Na1       1.0  0.61700  0.84700  0.04660  1.0000
  Na  Na2       1.0  0.43900  0.48900  0.10500  1.0000
  Na  Na3       1.0  0.93300  0.02580  0.10600  1.0000
  Na  Na4       1.0  0.32100  0.99300  0.13800  1.0000
  Na  Na5       1.0  0.81300  0.53200  0.14900  1.0000
  Na  Na6       1.0  0.12700  0.34800  0.20300  1.0000
  Na  Na7       1.0  0.87300  0.84800  0.29700  1.0000
  Na  Na8       1.0  0.18700  0.03220  0.35100  1.0000
  Na  Na9       1.0  0.67900  0.49300  0.36200  1.0000
  Na  Na10      1.0  0.06710  0.52600  0.39400  1.0000
  Na  Na11      1.0  0.56100  0.98900  0.39500  1.0000
  Na  Na12      1.0  0.38300  0.34700  0.45300  1.0000
  Na  Na13      1.0  0.61700  0.65300  0.54700  1.0000
  Na  Na14      1.0  0.43900  0.01120  0.60500  1.0000
  Na  Na15      1.0  0.93300  0.47400  0.60600  1.0000
  Na  Na16      1.0  0.32100  0.50700  0.63800  1.0000
  Na  Na17      1.0  0.81300  0.96800  0.64900  1.0000
  Na  Na18      1.0  0.12700  0.15200  0.70300  1.0000
  Na  Na19      1.0  0.87300  0.65200  0.79700  1.0000
  Na  Na20      1.0  0.18700  0.46800  0.85100  1.0000
  Na  Na21      1.0  0.67900  0.00750  0.86200  1.0000
  Na  Na22      1.0  0.06710  0.97400  0.89400  1.0000
  Na  Na23      1.0  0.56100  0.51100  0.89500  1.0000
  Na  Na24      1.0  0.38300  0.15300  0.95300  1.0000
