data_image0
_chemical_formula_structural       B14I2Ni6O26
_chemical_formula_sum              "B14 I2 Ni6 O26"
_cell_length_a       8.49042
_cell_length_b       8.49042
_cell_length_c       8.49042
_cell_angle_alpha    120
_cell_angle_beta     90
_cell_angle_gamma    120

_space_group_name_H-M_alt    "P 1"
_space_group_IT_number       1

loop_
  _space_group_symop_operation_xyz
  'x, y, z'

loop_
  _atom_site_type_symbol
  _atom_site_label
  _atom_site_symmetry_multiplicity
  _atom_site_fract_x
  _atom_site_fract_y
  _atom_site_fract_z
  _atom_site_occupancy
  B   B1        1.0  0.92000  0.16000  0.08020  1.0000
  B   B2        1.0  0.24100  0.16000  0.08020  1.0000
  B   B3        1.0  0.92000  0.84000  0.08020  1.0000
  B   B4        1.0  0.25000  0.00000  0.25000  1.0000
  B   B5        1.0  0.75000  0.00000  0.25000  1.0000
  B   B6        1.0  0.25000  0.50000  0.25000  1.0000
  B   B7        1.0  0.42000  0.84000  0.25900  1.0000
  B   B8        1.0  0.42000  0.16000  0.58000  1.0000
  B   B9        1.0  0.42000  0.84000  0.58000  1.0000
  B   B10       1.0  0.74100  0.16000  0.58000  1.0000
  B   B11       1.0  0.75000  0.00000  0.75000  1.0000
  B   B12       1.0  0.25000  0.00000  0.75000  1.0000
  B   B13       1.0  0.75000  0.50000  0.75000  1.0000
  B   B14       1.0  0.92000  0.84000  0.75900  1.0000
  I   I1        1.0  0.75000  0.50000  0.25000  1.0000
  I   I2        1.0  0.25000  0.50000  0.75000  1.0000
  Ni  Ni1       1.0  0.50000  0.00000  0.00000  1.0000
  Ni  Ni2       1.0  0.00000  0.50000  0.00000  1.0000
  Ni  Ni3       1.0  0.50000  0.50000  0.00000  1.0000
  Ni  Ni4       1.0  0.00000  0.00000  0.50000  1.0000
  Ni  Ni5       1.0  0.00000  0.50000  0.50000  1.0000
  Ni  Ni6       1.0  0.50000  0.50000  0.50000  1.0000
  O   O1        1.0  0.00000  0.00000  0.00000  1.0000
  O   O2        1.0  0.29600  0.36000  0.09880  1.0000
  O   O3        1.0  0.73900  0.03480  0.09880  1.0000
  O   O4        1.0  0.06390  0.80300  0.09880  1.0000
  O   O5        1.0  0.23900  0.64000  0.20400  1.0000
  O   O6        1.0  0.40100  0.96500  0.20400  1.0000
  O   O7        1.0  0.56400  0.80300  0.20400  1.0000
  O   O8        1.0  0.29600  0.19700  0.26100  1.0000
  O   O9        1.0  0.06390  0.36000  0.26100  1.0000
  O   O10       1.0  0.90100  0.96500  0.26100  1.0000
  O   O11       1.0  0.23900  0.03480  0.43600  1.0000
  O   O12       1.0  0.40100  0.64000  0.43600  1.0000
  O   O13       1.0  0.79600  0.19700  0.43600  1.0000
  O   O14       1.0  0.50000  0.00000  0.50000  1.0000
  O   O15       1.0  0.56400  0.36000  0.59900  1.0000
  O   O16       1.0  0.79600  0.03480  0.59900  1.0000
  O   O17       1.0  0.23900  0.80300  0.59900  1.0000
  O   O18       1.0  0.90100  0.64000  0.70400  1.0000
  O   O19       1.0  0.06390  0.96500  0.70400  1.0000
  O   O20       1.0  0.73900  0.80300  0.70400  1.0000
  O   O21       1.0  0.40100  0.19700  0.76100  1.0000
  O   O22       1.0  0.56400  0.96500  0.76100  1.0000
  O   O23       1.0  0.79600  0.36000  0.76100  1.0000
  O   O24       1.0  0.29600  0.03480  0.93600  1.0000
  O   O25       1.0  0.73900  0.64000  0.93600  1.0000
  O   O26       1.0  0.90100  0.19700  0.93600  1.0000
