data_image0
_chemical_formula_structural       In8Na24Sb16
_chemical_formula_sum              "In8 Na24 Sb16"
_cell_length_a       10.3295
_cell_length_b       7.92261
_cell_length_c       16.6754
_cell_angle_alpha    90
_cell_angle_beta     92.8504
_cell_angle_gamma    90

_space_group_name_H-M_alt    "P 1"
_space_group_IT_number       1

loop_
  _space_group_symop_operation_xyz
  'x, y, z'

loop_
  _atom_site_type_symbol
  _atom_site_label
  _atom_site_symmetry_multiplicity
  _atom_site_fract_x
  _atom_site_fract_y
  _atom_site_fract_z
  _atom_site_occupancy
  In  In1       1.0  0.12500  0.63800  0.04240  1.0000
  In  In2       1.0  0.64100  0.14800  0.20800  1.0000
  In  In3       1.0  0.35900  0.64800  0.29200  1.0000
  In  In4       1.0  0.87500  0.13800  0.45800  1.0000
  In  In5       1.0  0.12500  0.86200  0.54200  1.0000
  In  In6       1.0  0.64100  0.35200  0.70800  1.0000
  In  In7       1.0  0.35900  0.85200  0.79200  1.0000
  In  In8       1.0  0.87500  0.36200  0.95800  1.0000
  Na  Na1       1.0  0.61600  0.84700  0.04730  1.0000
  Na  Na2       1.0  0.43800  0.49000  0.10600  1.0000
  Na  Na3       1.0  0.92900  0.03050  0.10900  1.0000
  Na  Na4       1.0  0.32300  0.98900  0.13700  1.0000
  Na  Na5       1.0  0.81300  0.53000  0.14700  1.0000
  Na  Na6       1.0  0.12900  0.34600  0.20200  1.0000
  Na  Na7       1.0  0.87100  0.84600  0.29800  1.0000
  Na  Na8       1.0  0.18700  0.03000  0.35300  1.0000
  Na  Na9       1.0  0.67700  0.48900  0.36300  1.0000
  Na  Na10      1.0  0.07100  0.53100  0.39100  1.0000
  Na  Na11      1.0  0.56200  0.99000  0.39400  1.0000
  Na  Na12      1.0  0.38400  0.34700  0.45300  1.0000
  Na  Na13      1.0  0.61600  0.65300  0.54700  1.0000
  Na  Na14      1.0  0.43800  0.00986  0.60600  1.0000
  Na  Na15      1.0  0.92900  0.46900  0.60900  1.0000
  Na  Na16      1.0  0.32300  0.51100  0.63700  1.0000
  Na  Na17      1.0  0.81300  0.97000  0.64700  1.0000
  Na  Na18      1.0  0.12900  0.15400  0.70200  1.0000
  Na  Na19      1.0  0.87100  0.65400  0.79800  1.0000
  Na  Na20      1.0  0.18700  0.47000  0.85300  1.0000
  Na  Na21      1.0  0.67700  0.01140  0.86300  1.0000
  Na  Na22      1.0  0.07100  0.96900  0.89100  1.0000
  Na  Na23      1.0  0.56200  0.51000  0.89400  1.0000
  Na  Na24      1.0  0.38400  0.15300  0.95300  1.0000
  Sb  Sb1       1.0  0.12900  0.26800  0.02260  1.0000
  Sb  Sb2       1.0  0.64800  0.23900  0.03750  1.0000
  Sb  Sb3       1.0  0.11800  0.74400  0.20900  1.0000
  Sb  Sb4       1.0  0.59400  0.77900  0.22600  1.0000
  Sb  Sb5       1.0  0.40600  0.27900  0.27400  1.0000
  Sb  Sb6       1.0  0.88200  0.24400  0.29100  1.0000
  Sb  Sb7       1.0  0.35200  0.73900  0.46300  1.0000
  Sb  Sb8       1.0  0.87100  0.76800  0.47700  1.0000
  Sb  Sb9       1.0  0.12900  0.23200  0.52300  1.0000
  Sb  Sb10      1.0  0.64800  0.26100  0.53700  1.0000
  Sb  Sb11      1.0  0.11800  0.75600  0.70900  1.0000
  Sb  Sb12      1.0  0.59400  0.72100  0.72600  1.0000
  Sb  Sb13      1.0  0.40600  0.22100  0.77400  1.0000
  Sb  Sb14      1.0  0.88200  0.25600  0.79100  1.0000
  Sb  Sb15      1.0  0.35200  0.76100  0.96300  1.0000
  Sb  Sb16      1.0  0.87100  0.73200  0.97700  1.0000
