data_image0
_chemical_formula_structural       I8K4O32V4
_chemical_formula_sum              "I8 K4 O32 V4"
_cell_length_a       9.26995
_cell_length_b       5.17965
_cell_length_c       15.4428
_cell_angle_alpha    90
_cell_angle_beta     105.326
_cell_angle_gamma    90

_space_group_name_H-M_alt    "P 1"
_space_group_IT_number       1

loop_
  _space_group_symop_operation_xyz
  'x, y, z'

loop_
  _atom_site_type_symbol
  _atom_site_label
  _atom_site_symmetry_multiplicity
  _atom_site_fract_x
  _atom_site_fract_y
  _atom_site_fract_z
  _atom_site_occupancy
  I   I1        1.0  0.63200  0.80900  0.06930  1.0000
  I   I2        1.0  0.95300  0.27700  0.17700  1.0000
  I   I3        1.0  0.54700  0.77700  0.32300  1.0000
  I   I4        1.0  0.86800  0.30900  0.43100  1.0000
  I   I5        1.0  0.13200  0.69100  0.56900  1.0000
  I   I6        1.0  0.45300  0.22300  0.67700  1.0000
  I   I7        1.0  0.04680  0.72300  0.82300  1.0000
  I   I8        1.0  0.36800  0.19100  0.93100  1.0000
  K   K1        1.0  0.17900  0.78200  0.09380  1.0000
  K   K2        1.0  0.32100  0.28200  0.40600  1.0000
  K   K3        1.0  0.67900  0.71800  0.59400  1.0000
  K   K4        1.0  0.82100  0.21800  0.90600  1.0000
  O   O1        1.0  0.63600  0.12800  0.01700  1.0000
  O   O2        1.0  0.01000  0.26300  0.07430  1.0000
  O   O3        1.0  0.35400  0.32300  0.08930  1.0000
  O   O4        1.0  0.83300  0.80000  0.12300  1.0000
  O   O5        1.0  0.56000  0.93700  0.16600  1.0000
  O   O6        1.0  0.63700  0.43900  0.18000  1.0000
  O   O7        1.0  0.08070  0.55000  0.22600  1.0000
  O   O8        1.0  0.08910  0.03590  0.24300  1.0000
  O   O9        1.0  0.41100  0.53600  0.25700  1.0000
  O   O10       1.0  0.41900  0.05010  0.27400  1.0000
  O   O11       1.0  0.86300  0.93900  0.32000  1.0000
  O   O12       1.0  0.94000  0.43700  0.33400  1.0000
  O   O13       1.0  0.66700  0.30000  0.37700  1.0000
  O   O14       1.0  0.14600  0.82300  0.41100  1.0000
  O   O15       1.0  0.49000  0.76300  0.42600  1.0000
  O   O16       1.0  0.86400  0.62800  0.48300  1.0000
  O   O17       1.0  0.13600  0.37200  0.51700  1.0000
  O   O18       1.0  0.51000  0.23700  0.57400  1.0000
  O   O19       1.0  0.85400  0.17700  0.58900  1.0000
  O   O20       1.0  0.33300  0.70000  0.62300  1.0000
  O   O21       1.0  0.05990  0.56300  0.66600  1.0000
  O   O22       1.0  0.13700  0.06110  0.68000  1.0000
  O   O23       1.0  0.58100  0.95000  0.72600  1.0000
  O   O24       1.0  0.58900  0.46400  0.74300  1.0000
  O   O25       1.0  0.91100  0.96400  0.75700  1.0000
  O   O26       1.0  0.91900  0.45000  0.77400  1.0000
  O   O27       1.0  0.36300  0.56100  0.82000  1.0000
  O   O28       1.0  0.44000  0.06310  0.83400  1.0000
  O   O29       1.0  0.16700  0.20000  0.87700  1.0000
  O   O30       1.0  0.64600  0.67700  0.91100  1.0000
  O   O31       1.0  0.99000  0.73700  0.92600  1.0000
  O   O32       1.0  0.36400  0.87200  0.98300  1.0000
  V   V1        1.0  0.48400  0.27800  0.18600  1.0000
  V   V2        1.0  0.01630  0.77800  0.31400  1.0000
  V   V3        1.0  0.98400  0.22200  0.68600  1.0000
  V   V4        1.0  0.51600  0.72200  0.81400  1.0000
