data_image0
_chemical_formula_structural       H16O8P4Rb8Se12
_chemical_formula_sum              "H16 O8 P4 Rb8 Se12"
_cell_length_a       9.79938
_cell_length_b       12.4902
_cell_length_c       7.51704
_cell_angle_alpha    90
_cell_angle_beta     90
_cell_angle_gamma    90

_space_group_name_H-M_alt    "P 1"
_space_group_IT_number       1

loop_
  _space_group_symop_operation_xyz
  'x, y, z'

loop_
  _atom_site_type_symbol
  _atom_site_label
  _atom_site_symmetry_multiplicity
  _atom_site_fract_x
  _atom_site_fract_y
  _atom_site_fract_z
  _atom_site_occupancy
  H   H1        1.0  0.53400  0.26400  0.18100  1.0000
  H   H2        1.0  0.46600  0.73600  0.18100  1.0000
  H   H3        1.0  0.15200  0.19100  0.19700  1.0000
  H   H4        1.0  0.84800  0.80900  0.19700  1.0000
  H   H5        1.0  0.65200  0.30900  0.30300  1.0000
  H   H6        1.0  0.34800  0.69100  0.30300  1.0000
  H   H7        1.0  0.03440  0.23600  0.31900  1.0000
  H   H8        1.0  0.96600  0.76400  0.31900  1.0000
  H   H9        1.0  0.03440  0.23600  0.68100  1.0000
  H   H10       1.0  0.96600  0.76400  0.68100  1.0000
  H   H11       1.0  0.65200  0.30900  0.69700  1.0000
  H   H12       1.0  0.34800  0.69100  0.69700  1.0000
  H   H13       1.0  0.15200  0.19100  0.80300  1.0000
  H   H14       1.0  0.84800  0.80900  0.80300  1.0000
  H   H15       1.0  0.53400  0.26400  0.81900  1.0000
  H   H16       1.0  0.46600  0.73600  0.81900  1.0000
  O   O1        1.0  0.56400  0.32800  0.24700  1.0000
  O   O2        1.0  0.43600  0.67200  0.24700  1.0000
  O   O3        1.0  0.06430  0.17200  0.25300  1.0000
  O   O4        1.0  0.93600  0.82800  0.25300  1.0000
  O   O5        1.0  0.06430  0.17200  0.74700  1.0000
  O   O6        1.0  0.93600  0.82800  0.74700  1.0000
  O   O7        1.0  0.56400  0.32800  0.75300  1.0000
  O   O8        1.0  0.43600  0.67200  0.75300  1.0000
  P   P1        1.0  0.38300  0.00670  0.00000  1.0000
  P   P2        1.0  0.61700  0.99300  0.00000  1.0000
  P   P3        1.0  0.88300  0.49300  0.50000  1.0000
  P   P4        1.0  0.11700  0.50700  0.50000  1.0000
  Rb  Rb1       1.0  0.00000  0.00000  0.00000  1.0000
  Rb  Rb2       1.0  0.88800  0.33200  0.00000  1.0000
  Rb  Rb3       1.0  0.50000  0.50000  0.00000  1.0000
  Rb  Rb4       1.0  0.11200  0.66800  0.00000  1.0000
  Rb  Rb5       1.0  0.00000  0.00000  0.50000  1.0000
  Rb  Rb6       1.0  0.38800  0.16800  0.50000  1.0000
  Rb  Rb7       1.0  0.50000  0.50000  0.50000  1.0000
  Rb  Rb8       1.0  0.61200  0.83200  0.50000  1.0000
  Se  Se1       1.0  0.34700  0.18300  0.00000  1.0000
  Se  Se2       1.0  0.65300  0.81700  0.00000  1.0000
  Se  Se3       1.0  0.69000  0.06910  0.24500  1.0000
  Se  Se4       1.0  0.31000  0.93100  0.24500  1.0000
  Se  Se5       1.0  0.19000  0.43100  0.25500  1.0000
  Se  Se6       1.0  0.81000  0.56900  0.25500  1.0000
  Se  Se7       1.0  0.84700  0.31700  0.50000  1.0000
  Se  Se8       1.0  0.15300  0.68300  0.50000  1.0000
  Se  Se9       1.0  0.19000  0.43100  0.74500  1.0000
  Se  Se10      1.0  0.81000  0.56900  0.74500  1.0000
  Se  Se11      1.0  0.69000  0.06910  0.75500  1.0000
  Se  Se12      1.0  0.31000  0.93100  0.75500  1.0000
