data_image0
_chemical_formula_structural       Au4Br16H16Na4O8
_chemical_formula_sum              "Au4 Br16 H16 Na4 O8"
_cell_length_a       13.1882
_cell_length_b       7.24329
_cell_length_c       9.4106
_cell_angle_alpha    90
_cell_angle_beta     90
_cell_angle_gamma    90

_space_group_name_H-M_alt    "P 1"
_space_group_IT_number       1

loop_
  _space_group_symop_operation_xyz
  'x, y, z'

loop_
  _atom_site_type_symbol
  _atom_site_label
  _atom_site_symmetry_multiplicity
  _atom_site_fract_x
  _atom_site_fract_y
  _atom_site_fract_z
  _atom_site_occupancy
  Au  Au1       1.0  0.43800  0.25000  0.00776  1.0000
  Au  Au2       1.0  0.93800  0.25000  0.49200  1.0000
  Au  Au3       1.0  0.06210  0.75000  0.50800  1.0000
  Au  Au4       1.0  0.56200  0.75000  0.99200  1.0000
  Br  Br1       1.0  0.41000  0.75000  0.14500  1.0000
  Br  Br2       1.0  0.28700  0.25000  0.16600  1.0000
  Br  Br3       1.0  0.67300  0.75000  0.20400  1.0000
  Br  Br4       1.0  0.55000  0.25000  0.21800  1.0000
  Br  Br5       1.0  0.05010  0.25000  0.28200  1.0000
  Br  Br6       1.0  0.17300  0.75000  0.29600  1.0000
  Br  Br7       1.0  0.78700  0.25000  0.33400  1.0000
  Br  Br8       1.0  0.91000  0.75000  0.35500  1.0000
  Br  Br9       1.0  0.09010  0.25000  0.64500  1.0000
  Br  Br10      1.0  0.21300  0.75000  0.66600  1.0000
  Br  Br11      1.0  0.82700  0.25000  0.70400  1.0000
  Br  Br12      1.0  0.95000  0.75000  0.71800  1.0000
  Br  Br13      1.0  0.45000  0.75000  0.78200  1.0000
  Br  Br14      1.0  0.32700  0.25000  0.79600  1.0000
  Br  Br15      1.0  0.71300  0.75000  0.83400  1.0000
  Br  Br16      1.0  0.59000  0.25000  0.85500  1.0000
  H   H1        1.0  0.17500  0.04210  0.01710  1.0000
  H   H2        1.0  0.17500  0.45800  0.01710  1.0000
  H   H3        1.0  0.85900  0.02380  0.13300  1.0000
  H   H4        1.0  0.85900  0.47600  0.13300  1.0000
  H   H5        1.0  0.35900  0.02380  0.36700  1.0000
  H   H6        1.0  0.35900  0.47600  0.36700  1.0000
  H   H7        1.0  0.67500  0.04210  0.48300  1.0000
  H   H8        1.0  0.67500  0.45800  0.48300  1.0000
  H   H9        1.0  0.32500  0.54200  0.51700  1.0000
  H   H10       1.0  0.32500  0.95800  0.51700  1.0000
  H   H11       1.0  0.64100  0.52400  0.63300  1.0000
  H   H12       1.0  0.64100  0.97600  0.63300  1.0000
  H   H13       1.0  0.14100  0.52400  0.86700  1.0000
  H   H14       1.0  0.14100  0.97600  0.86700  1.0000
  H   H15       1.0  0.82500  0.54200  0.98300  1.0000
  H   H16       1.0  0.82500  0.95800  0.98300  1.0000
  Na  Na1       1.0  0.01200  0.75000  0.05120  1.0000
  Na  Na2       1.0  0.51200  0.75000  0.44900  1.0000
  Na  Na3       1.0  0.48800  0.25000  0.55100  1.0000
  Na  Na4       1.0  0.98800  0.25000  0.94900  1.0000
  O   O1        1.0  0.88400  0.50100  0.03700  1.0000
  O   O2        1.0  0.88400  0.99900  0.03700  1.0000
  O   O3        1.0  0.38400  0.50100  0.46300  1.0000
  O   O4        1.0  0.38400  0.99900  0.46300  1.0000
  O   O5        1.0  0.61600  0.00073  0.53700  1.0000
  O   O6        1.0  0.61600  0.49900  0.53700  1.0000
  O   O7        1.0  0.11600  0.00073  0.96300  1.0000
  O   O8        1.0  0.11600  0.49900  0.96300  1.0000
