data_image0
_chemical_formula_structural       Al8As16Cs24
_chemical_formula_sum              "Al8 As16 Cs24"
_cell_length_a       11.6104
_cell_length_b       9.00949
_cell_length_c       19.7428
_cell_angle_alpha    90
_cell_angle_beta     100.044
_cell_angle_gamma    90

_space_group_name_H-M_alt    "P 1"
_space_group_IT_number       1

loop_
  _space_group_symop_operation_xyz
  'x, y, z'

loop_
  _atom_site_type_symbol
  _atom_site_label
  _atom_site_symmetry_multiplicity
  _atom_site_fract_x
  _atom_site_fract_y
  _atom_site_fract_z
  _atom_site_occupancy
  Al  Al1       1.0  0.04330  0.88700  0.05450  1.0000
  Al  Al2       1.0  0.53700  0.55400  0.07280  1.0000
  Al  Al3       1.0  0.46300  0.05410  0.42700  1.0000
  Al  Al4       1.0  0.95700  0.38700  0.44600  1.0000
  Al  Al5       1.0  0.04330  0.61300  0.55400  1.0000
  Al  Al6       1.0  0.53700  0.94600  0.57300  1.0000
  Al  Al7       1.0  0.46300  0.44600  0.92700  1.0000
  Al  Al8       1.0  0.95700  0.11300  0.94600  1.0000
  As  As1       1.0  0.50800  0.29400  0.03270  1.0000
  As  As2       1.0  0.05730  0.16000  0.06400  1.0000
  As  As3       1.0  0.10200  0.70800  0.14100  1.0000
  As  As4       1.0  0.59800  0.64300  0.18800  1.0000
  As  As5       1.0  0.40200  0.14300  0.31200  1.0000
  As  As6       1.0  0.89800  0.20800  0.35900  1.0000
  As  As7       1.0  0.94300  0.66000  0.43600  1.0000
  As  As8       1.0  0.49200  0.79400  0.46700  1.0000
  As  As9       1.0  0.50800  0.20600  0.53300  1.0000
  As  As10      1.0  0.05730  0.34000  0.56400  1.0000
  As  As11      1.0  0.10200  0.79200  0.64100  1.0000
  As  As12      1.0  0.59800  0.85700  0.68800  1.0000
  As  As13      1.0  0.40200  0.35700  0.81200  1.0000
  As  As14      1.0  0.89800  0.29200  0.85900  1.0000
  As  As15      1.0  0.94300  0.84000  0.93600  1.0000
  As  As16      1.0  0.49200  0.70600  0.96700  1.0000
  Cs  Cs1       1.0  0.85000  0.47000  0.03270  1.0000
  Cs  Cs2       1.0  0.73900  0.90500  0.07820  1.0000
  Cs  Cs3       1.0  0.37400  0.92400  0.10800  1.0000
  Cs  Cs4       1.0  0.29300  0.38500  0.16100  1.0000
  Cs  Cs5       1.0  0.63900  0.24700  0.21000  1.0000
  Cs  Cs6       1.0  0.08100  0.05750  0.24200  1.0000
  Cs  Cs7       1.0  0.91900  0.55800  0.25800  1.0000
  Cs  Cs8       1.0  0.36100  0.74700  0.29000  1.0000
  Cs  Cs9       1.0  0.70700  0.88500  0.33900  1.0000
  Cs  Cs10      1.0  0.62600  0.42400  0.39200  1.0000
  Cs  Cs11      1.0  0.26100  0.40500  0.42200  1.0000
  Cs  Cs12      1.0  0.15000  0.97000  0.46700  1.0000
  Cs  Cs13      1.0  0.85000  0.02960  0.53300  1.0000
  Cs  Cs14      1.0  0.73900  0.59500  0.57800  1.0000
  Cs  Cs15      1.0  0.37400  0.57600  0.60800  1.0000
  Cs  Cs16      1.0  0.29300  0.11500  0.66100  1.0000
  Cs  Cs17      1.0  0.63900  0.25300  0.71000  1.0000
  Cs  Cs18      1.0  0.08100  0.44200  0.74200  1.0000
  Cs  Cs19      1.0  0.91900  0.94200  0.75800  1.0000
  Cs  Cs20      1.0  0.36100  0.75300  0.79000  1.0000
  Cs  Cs21      1.0  0.70700  0.61500  0.83900  1.0000
  Cs  Cs22      1.0  0.62600  0.07650  0.89200  1.0000
  Cs  Cs23      1.0  0.26100  0.09530  0.92200  1.0000
  Cs  Cs24      1.0  0.15000  0.53000  0.96700  1.0000
