data_image0
_chemical_formula_structural       Na8O28P8Zn4
_chemical_formula_sum              "Na8 O28 P8 Zn4"
_cell_length_a       7.67504
_cell_length_b       7.67504
_cell_length_c       10.1383
_cell_angle_alpha    90
_cell_angle_beta     90
_cell_angle_gamma    90

_space_group_name_H-M_alt    "P 1"
_space_group_IT_number       1

loop_
  _space_group_symop_operation_xyz
  'x, y, z'

loop_
  _atom_site_type_symbol
  _atom_site_label
  _atom_site_symmetry_multiplicity
  _atom_site_fract_x
  _atom_site_fract_y
  _atom_site_fract_z
  _atom_site_occupancy
  Na  Na1       1.0  0.80800  0.19200  0.00000  1.0000
  Na  Na2       1.0  0.35700  0.35700  0.00000  1.0000
  Na  Na3       1.0  0.64300  0.64300  0.00000  1.0000
  Na  Na4       1.0  0.19200  0.80800  0.00000  1.0000
  Na  Na5       1.0  0.85700  0.14300  0.50000  1.0000
  Na  Na6       1.0  0.30800  0.30800  0.50000  1.0000
  Na  Na7       1.0  0.69200  0.69200  0.50000  1.0000
  Na  Na8       1.0  0.14300  0.85700  0.50000  1.0000
  O   O1        1.0  0.31000  0.08140  0.14100  1.0000
  O   O2        1.0  0.08140  0.31000  0.14100  1.0000
  O   O3        1.0  0.91900  0.69000  0.14100  1.0000
  O   O4        1.0  0.69000  0.91900  0.14100  1.0000
  O   O5        1.0  0.63700  0.36300  0.14300  1.0000
  O   O6        1.0  0.36300  0.63700  0.14300  1.0000
  O   O7        1.0  0.00000  0.00000  0.14900  1.0000
  O   O8        1.0  0.50000  0.50000  0.35100  1.0000
  O   O9        1.0  0.13700  0.13700  0.35700  1.0000
  O   O10       1.0  0.86300  0.86300  0.35700  1.0000
  O   O11       1.0  0.58100  0.19000  0.35900  1.0000
  O   O12       1.0  0.81000  0.41900  0.35900  1.0000
  O   O13       1.0  0.19000  0.58100  0.35900  1.0000
  O   O14       1.0  0.41900  0.81000  0.35900  1.0000
  O   O15       1.0  0.58100  0.19000  0.64100  1.0000
  O   O16       1.0  0.81000  0.41900  0.64100  1.0000
  O   O17       1.0  0.19000  0.58100  0.64100  1.0000
  O   O18       1.0  0.41900  0.81000  0.64100  1.0000
  O   O19       1.0  0.13700  0.13700  0.64300  1.0000
  O   O20       1.0  0.86300  0.86300  0.64300  1.0000
  O   O21       1.0  0.50000  0.50000  0.64900  1.0000
  O   O22       1.0  0.00000  0.00000  0.85100  1.0000
  O   O23       1.0  0.63700  0.36300  0.85700  1.0000
  O   O24       1.0  0.36300  0.63700  0.85700  1.0000
  O   O25       1.0  0.31000  0.08140  0.85900  1.0000
  O   O26       1.0  0.08140  0.31000  0.85900  1.0000
  O   O27       1.0  0.91900  0.69000  0.85900  1.0000
  O   O28       1.0  0.69000  0.91900  0.85900  1.0000
  P   P1        1.0  0.14000  0.14000  0.20800  1.0000
  P   P2        1.0  0.86000  0.86000  0.20800  1.0000
  P   P3        1.0  0.64000  0.36000  0.29200  1.0000
  P   P4        1.0  0.36000  0.64000  0.29200  1.0000
  P   P5        1.0  0.64000  0.36000  0.70800  1.0000
  P   P6        1.0  0.36000  0.64000  0.70800  1.0000
  P   P7        1.0  0.14000  0.14000  0.79200  1.0000
  P   P8        1.0  0.86000  0.86000  0.79200  1.0000
  Zn  Zn1       1.0  0.50000  0.00000  0.25000  1.0000
  Zn  Zn2       1.0  0.00000  0.50000  0.25000  1.0000
  Zn  Zn3       1.0  0.50000  0.00000  0.75000  1.0000
  Zn  Zn4       1.0  0.00000  0.50000  0.75000  1.0000
