data_image0
_chemical_formula_structural       Au8O32S8
_chemical_formula_sum              "Au8 O32 S8"
_cell_length_a       8.50146
_cell_length_b       8.14729
_cell_length_c       9.87026
_cell_angle_alpha    90
_cell_angle_beta     90
_cell_angle_gamma    90

_space_group_name_H-M_alt    "P 1"
_space_group_IT_number       1

loop_
  _space_group_symop_operation_xyz
  'x, y, z'

loop_
  _atom_site_type_symbol
  _atom_site_label
  _atom_site_symmetry_multiplicity
  _atom_site_fract_x
  _atom_site_fract_y
  _atom_site_fract_z
  _atom_site_occupancy
  Au  Au1       1.0  0.64100  0.04980  0.01190  1.0000
  Au  Au2       1.0  0.85900  0.55000  0.01190  1.0000
  Au  Au3       1.0  0.14100  0.04980  0.48800  1.0000
  Au  Au4       1.0  0.35900  0.55000  0.48800  1.0000
  Au  Au5       1.0  0.64100  0.45000  0.51200  1.0000
  Au  Au6       1.0  0.85900  0.95000  0.51200  1.0000
  Au  Au7       1.0  0.14100  0.45000  0.98800  1.0000
  Au  Au8       1.0  0.35900  0.95000  0.98800  1.0000
  O   O1        1.0  0.88100  0.12800  0.01980  1.0000
  O   O2        1.0  0.61900  0.62800  0.01980  1.0000
  O   O3        1.0  0.09820  0.26900  0.12600  1.0000
  O   O4        1.0  0.40200  0.76900  0.12600  1.0000
  O   O5        1.0  0.82500  0.37500  0.15600  1.0000
  O   O6        1.0  0.67500  0.87500  0.15600  1.0000
  O   O7        1.0  0.41100  0.13000  0.23100  1.0000
  O   O8        1.0  0.08910  0.63000  0.23100  1.0000
  O   O9        1.0  0.91100  0.13000  0.26900  1.0000
  O   O10       1.0  0.58900  0.63000  0.26900  1.0000
  O   O11       1.0  0.32500  0.37500  0.34400  1.0000
  O   O12       1.0  0.17500  0.87500  0.34400  1.0000
  O   O13       1.0  0.59800  0.26900  0.37400  1.0000
  O   O14       1.0  0.90200  0.76900  0.37400  1.0000
  O   O15       1.0  0.38100  0.12800  0.48000  1.0000
  O   O16       1.0  0.11900  0.62800  0.48000  1.0000
  O   O17       1.0  0.88100  0.37200  0.52000  1.0000
  O   O18       1.0  0.61900  0.87200  0.52000  1.0000
  O   O19       1.0  0.09820  0.23100  0.62600  1.0000
  O   O20       1.0  0.40200  0.73100  0.62600  1.0000
  O   O21       1.0  0.82500  0.12500  0.65600  1.0000
  O   O22       1.0  0.67500  0.62500  0.65600  1.0000
  O   O23       1.0  0.41100  0.37000  0.73100  1.0000
  O   O24       1.0  0.08910  0.87000  0.73100  1.0000
  O   O25       1.0  0.91100  0.37000  0.76900  1.0000
  O   O26       1.0  0.58900  0.87000  0.76900  1.0000
  O   O27       1.0  0.32500  0.12500  0.84400  1.0000
  O   O28       1.0  0.17500  0.62500  0.84400  1.0000
  O   O29       1.0  0.59800  0.23100  0.87400  1.0000
  O   O30       1.0  0.90200  0.73100  0.87400  1.0000
  O   O31       1.0  0.38100  0.37200  0.98000  1.0000
  O   O32       1.0  0.11900  0.87200  0.98000  1.0000
  S   S1        1.0  0.92700  0.22100  0.14500  1.0000
  S   S2        1.0  0.57300  0.72100  0.14500  1.0000
  S   S3        1.0  0.42700  0.22100  0.35500  1.0000
  S   S4        1.0  0.07330  0.72100  0.35500  1.0000
  S   S5        1.0  0.92700  0.27900  0.64500  1.0000
  S   S6        1.0  0.57300  0.77900  0.64500  1.0000
  S   S7        1.0  0.42700  0.27900  0.85500  1.0000
  S   S8        1.0  0.07330  0.77900  0.85500  1.0000
