data_image0
_chemical_formula_structural       Br12H20O10Sn4Sr2
_chemical_formula_sum              "Br12 H20 O10 Sn4 Sr2"
_cell_length_a       9.2146
_cell_length_b       9.85622
_cell_length_c       9.85622
_cell_angle_alpha    101.378
_cell_angle_beta     107.682
_cell_angle_gamma    72.3179

_space_group_name_H-M_alt    "P 1"
_space_group_IT_number       1

loop_
  _space_group_symop_operation_xyz
  'x, y, z'

loop_
  _atom_site_type_symbol
  _atom_site_label
  _atom_site_symmetry_multiplicity
  _atom_site_fract_x
  _atom_site_fract_y
  _atom_site_fract_z
  _atom_site_occupancy
  Br  Br1       1.0  0.53800  0.31300  0.02100  1.0000
  Br  Br2       1.0  0.20600  0.56500  0.18500  1.0000
  Br  Br3       1.0  0.91000  0.42800  0.30000  1.0000
  Br  Br4       1.0  0.96200  0.02100  0.31300  1.0000
  Br  Br5       1.0  0.59000  0.30000  0.42800  1.0000
  Br  Br6       1.0  0.70600  0.81500  0.43500  1.0000
  Br  Br7       1.0  0.29400  0.18500  0.56500  1.0000
  Br  Br8       1.0  0.41000  0.70000  0.57200  1.0000
  Br  Br9       1.0  0.03780  0.97900  0.68700  1.0000
  Br  Br10      1.0  0.09000  0.57200  0.70000  1.0000
  Br  Br11      1.0  0.79400  0.43500  0.81500  1.0000
  Br  Br12      1.0  0.46200  0.68700  0.97900  1.0000
  H   H1        1.0  0.09890  0.76200  0.04200  1.0000
  H   H2        1.0  0.72200  0.70300  0.05820  1.0000
  H   H3        1.0  0.96400  0.21700  0.11900  1.0000
  H   H4        1.0  0.84200  0.74900  0.19600  1.0000
  H   H5        1.0  0.22200  0.32000  0.20800  1.0000
  H   H6        1.0  0.53600  0.11900  0.21700  1.0000
  H   H7        1.0  0.59900  0.95800  0.23800  1.0000
  H   H8        1.0  0.34200  0.80400  0.25100  1.0000
  H   H9        1.0  0.22200  0.94200  0.29700  1.0000
  H   H10       1.0  0.27800  0.20800  0.32000  1.0000
  H   H11       1.0  0.72200  0.79200  0.68000  1.0000
  H   H12       1.0  0.77800  0.05820  0.70300  1.0000
  H   H13       1.0  0.65800  0.19600  0.74900  1.0000
  H   H14       1.0  0.40100  0.04200  0.76200  1.0000
  H   H15       1.0  0.46400  0.88100  0.78300  1.0000
  H   H16       1.0  0.77800  0.68000  0.79200  1.0000
  H   H17       1.0  0.15800  0.25100  0.80400  1.0000
  H   H18       1.0  0.03600  0.78300  0.88100  1.0000
  H   H19       1.0  0.27800  0.29700  0.94200  1.0000
  H   H20       1.0  0.90100  0.23800  0.95800  1.0000
  O   O1        1.0  0.94700  0.16200  0.02270  1.0000
  O   O2        1.0  0.80700  0.75300  0.09250  1.0000
  O   O3        1.0  0.55300  0.02270  0.16200  1.0000
  O   O4        1.0  0.25000  0.21600  0.21600  1.0000
  O   O5        1.0  0.30700  0.90800  0.24700  1.0000
  O   O6        1.0  0.69300  0.09250  0.75300  1.0000
  O   O7        1.0  0.75000  0.78400  0.78400  1.0000
  O   O8        1.0  0.44700  0.97700  0.83800  1.0000
  O   O9        1.0  0.19300  0.24700  0.90800  1.0000
  O   O10       1.0  0.05340  0.83800  0.97700  1.0000
  Sn  Sn1       1.0  0.53600  0.51800  0.26500  1.0000
  Sn  Sn2       1.0  0.03580  0.73500  0.48200  1.0000
  Sn  Sn3       1.0  0.96400  0.26500  0.51800  1.0000
  Sn  Sn4       1.0  0.46400  0.48200  0.73500  1.0000
  Sr  Sr1       1.0  0.25000  0.01230  0.01230  1.0000
  Sr  Sr2       1.0  0.75000  0.98800  0.98800  1.0000
