data_image0
_chemical_formula_structural       Cl8Nd8O24Se8
_chemical_formula_sum              "Cl8 Nd8 O24 Se8"
_cell_length_a       11.0908
_cell_length_b       5.35949
_cell_length_c       13.4996
_cell_angle_alpha    90
_cell_angle_beta     90
_cell_angle_gamma    90

_space_group_name_H-M_alt    "P 1"
_space_group_IT_number       1

loop_
  _space_group_symop_operation_xyz
  'x, y, z'

loop_
  _atom_site_type_symbol
  _atom_site_label
  _atom_site_symmetry_multiplicity
  _atom_site_fract_x
  _atom_site_fract_y
  _atom_site_fract_z
  _atom_site_occupancy
  Cl  Cl1       1.0  0.52100  0.75000  0.06940  1.0000
  Cl  Cl2       1.0  0.67200  0.25000  0.19900  1.0000
  Cl  Cl3       1.0  0.17200  0.25000  0.30100  1.0000
  Cl  Cl4       1.0  0.02080  0.75000  0.43100  1.0000
  Cl  Cl5       1.0  0.97900  0.25000  0.56900  1.0000
  Cl  Cl6       1.0  0.82800  0.75000  0.69900  1.0000
  Cl  Cl7       1.0  0.32800  0.75000  0.80100  1.0000
  Cl  Cl8       1.0  0.47900  0.25000  0.93100  1.0000
  Nd  Nd1       1.0  0.07140  0.25000  0.10000  1.0000
  Nd  Nd2       1.0  0.43100  0.25000  0.14400  1.0000
  Nd  Nd3       1.0  0.93100  0.25000  0.35600  1.0000
  Nd  Nd4       1.0  0.57100  0.25000  0.40000  1.0000
  Nd  Nd5       1.0  0.42900  0.75000  0.60000  1.0000
  Nd  Nd6       1.0  0.06910  0.75000  0.64400  1.0000
  Nd  Nd7       1.0  0.56900  0.75000  0.85600  1.0000
  Nd  Nd8       1.0  0.92900  0.75000  0.90000  1.0000
  O   O1        1.0  0.08440  0.75000  0.02640  1.0000
  O   O2        1.0  0.83700  0.75000  0.06010  1.0000
  O   O3        1.0  0.25800  0.50400  0.11100  1.0000
  O   O4        1.0  0.25800  0.99600  0.11100  1.0000
  O   O5        1.0  0.94400  0.50200  0.20800  1.0000
  O   O6        1.0  0.94400  0.99800  0.20800  1.0000
  O   O7        1.0  0.44400  0.50200  0.29200  1.0000
  O   O8        1.0  0.44400  0.99800  0.29200  1.0000
  O   O9        1.0  0.75800  0.50400  0.38900  1.0000
  O   O10       1.0  0.75800  0.99600  0.38900  1.0000
  O   O11       1.0  0.33700  0.75000  0.44000  1.0000
  O   O12       1.0  0.58400  0.75000  0.47400  1.0000
  O   O13       1.0  0.41600  0.25000  0.52600  1.0000
  O   O14       1.0  0.66300  0.25000  0.56000  1.0000
  O   O15       1.0  0.24200  0.00423  0.61100  1.0000
  O   O16       1.0  0.24200  0.49600  0.61100  1.0000
  O   O17       1.0  0.55600  0.00192  0.70800  1.0000
  O   O18       1.0  0.55600  0.49800  0.70800  1.0000
  O   O19       1.0  0.05580  0.00192  0.79200  1.0000
  O   O20       1.0  0.05580  0.49800  0.79200  1.0000
  O   O21       1.0  0.74200  0.00423  0.88900  1.0000
  O   O22       1.0  0.74200  0.49600  0.88900  1.0000
  O   O23       1.0  0.16300  0.25000  0.94000  1.0000
  O   O24       1.0  0.91600  0.25000  0.97400  1.0000
  Se  Se1       1.0  0.24200  0.75000  0.02900  1.0000
  Se  Se2       1.0  0.84500  0.75000  0.18500  1.0000
  Se  Se3       1.0  0.34500  0.75000  0.31500  1.0000
  Se  Se4       1.0  0.74200  0.75000  0.47100  1.0000
  Se  Se5       1.0  0.25800  0.25000  0.52900  1.0000
  Se  Se6       1.0  0.65500  0.25000  0.68500  1.0000
  Se  Se7       1.0  0.15500  0.25000  0.81500  1.0000
  Se  Se8       1.0  0.75800  0.25000  0.97100  1.0000
