data_image0
_chemical_formula_structural       O24Te8Tl16
_chemical_formula_sum              "O24 Te8 Tl16"
_cell_length_a       16.5703
_cell_length_b       10.9452
_cell_length_c       5.22816
_cell_angle_alpha    90
_cell_angle_beta     90
_cell_angle_gamma    90

_space_group_name_H-M_alt    "P 1"
_space_group_IT_number       1

loop_
  _space_group_symop_operation_xyz
  'x, y, z'

loop_
  _atom_site_type_symbol
  _atom_site_label
  _atom_site_symmetry_multiplicity
  _atom_site_fract_x
  _atom_site_fract_y
  _atom_site_fract_z
  _atom_site_occupancy
  O   O1        1.0  0.65900  0.11500  0.12500  1.0000
  O   O2        1.0  0.84100  0.38500  0.12500  1.0000
  O   O3        1.0  0.34100  0.61500  0.12500  1.0000
  O   O4        1.0  0.15900  0.88500  0.12500  1.0000
  O   O5        1.0  0.31200  0.05290  0.27800  1.0000
  O   O6        1.0  0.18800  0.44700  0.27800  1.0000
  O   O7        1.0  0.68800  0.55300  0.27800  1.0000
  O   O8        1.0  0.81200  0.94700  0.27800  1.0000
  O   O9        1.0  0.94700  0.10800  0.30800  1.0000
  O   O10       1.0  0.55300  0.39200  0.30800  1.0000
  O   O11       1.0  0.05310  0.60800  0.30800  1.0000
  O   O12       1.0  0.44700  0.89200  0.30800  1.0000
  O   O13       1.0  0.55300  0.10800  0.69200  1.0000
  O   O14       1.0  0.94700  0.39200  0.69200  1.0000
  O   O15       1.0  0.44700  0.60800  0.69200  1.0000
  O   O16       1.0  0.05310  0.89200  0.69200  1.0000
  O   O17       1.0  0.18800  0.05290  0.72200  1.0000
  O   O18       1.0  0.31200  0.44700  0.72200  1.0000
  O   O19       1.0  0.81200  0.55300  0.72200  1.0000
  O   O20       1.0  0.68800  0.94700  0.72200  1.0000
  O   O21       1.0  0.84100  0.11500  0.87500  1.0000
  O   O22       1.0  0.65900  0.38500  0.87500  1.0000
  O   O23       1.0  0.15900  0.61500  0.87500  1.0000
  O   O24       1.0  0.34100  0.88500  0.87500  1.0000
  Te  Te1       1.0  0.83400  0.11700  0.24000  1.0000
  Te  Te2       1.0  0.66600  0.38300  0.24000  1.0000
  Te  Te3       1.0  0.16600  0.61700  0.24000  1.0000
  Te  Te4       1.0  0.33400  0.88300  0.24000  1.0000
  Te  Te5       1.0  0.66600  0.11700  0.76000  1.0000
  Te  Te6       1.0  0.83400  0.38300  0.76000  1.0000
  Te  Te7       1.0  0.33400  0.61700  0.76000  1.0000
  Te  Te8       1.0  0.16600  0.88300  0.76000  1.0000
  Tl  Tl1       1.0  0.49400  0.13600  0.23800  1.0000
  Tl  Tl2       1.0  0.00551  0.36400  0.23800  1.0000
  Tl  Tl3       1.0  0.50600  0.63600  0.23800  1.0000
  Tl  Tl4       1.0  0.99400  0.86400  0.23800  1.0000
  Tl  Tl5       1.0  0.16700  0.12200  0.24600  1.0000
  Tl  Tl6       1.0  0.33300  0.37800  0.24600  1.0000
  Tl  Tl7       1.0  0.83300  0.62200  0.24600  1.0000
  Tl  Tl8       1.0  0.66700  0.87800  0.24600  1.0000
  Tl  Tl9       1.0  0.33300  0.12200  0.75400  1.0000
  Tl  Tl10      1.0  0.16700  0.37800  0.75400  1.0000
  Tl  Tl11      1.0  0.66700  0.62200  0.75400  1.0000
  Tl  Tl12      1.0  0.83300  0.87800  0.75400  1.0000
  Tl  Tl13      1.0  0.00551  0.13600  0.76200  1.0000
  Tl  Tl14      1.0  0.49400  0.36400  0.76200  1.0000
  Tl  Tl15      1.0  0.99400  0.63600  0.76200  1.0000
  Tl  Tl16      1.0  0.50600  0.86400  0.76200  1.0000
