data_image0
_chemical_formula_structural       K4O4Sb4Te4
_chemical_formula_sum              "K4 O4 Sb4 Te4"
_cell_length_a       7.77971
_cell_length_b       8.76118
_cell_length_c       7.11042
_cell_angle_alpha    90
_cell_angle_beta     100.078
_cell_angle_gamma    90

_space_group_name_H-M_alt    "P 1"
_space_group_IT_number       1

loop_
  _space_group_symop_operation_xyz
  'x, y, z'

loop_
  _atom_site_type_symbol
  _atom_site_label
  _atom_site_symmetry_multiplicity
  _atom_site_fract_x
  _atom_site_fract_y
  _atom_site_fract_z
  _atom_site_occupancy
  K   K1        1.0  0.92000  0.28900  0.00109  1.0000
  K   K2        1.0  0.07970  0.78900  0.49900  1.0000
  K   K3        1.0  0.92000  0.21100  0.50100  1.0000
  K   K4        1.0  0.07970  0.71100  0.99900  1.0000
  O   O1        1.0  0.62900  0.40800  0.08390  1.0000
  O   O2        1.0  0.37100  0.90800  0.41600  1.0000
  O   O3        1.0  0.62900  0.09210  0.58400  1.0000
  O   O4        1.0  0.37100  0.59200  0.91600  1.0000
  Sb  Sb1       1.0  0.52000  0.58500  0.20000  1.0000
  Sb  Sb2       1.0  0.48000  0.08540  0.30000  1.0000
  Sb  Sb3       1.0  0.52000  0.91500  0.70000  1.0000
  Sb  Sb4       1.0  0.48000  0.41500  0.80000  1.0000
  Te  Te1       1.0  0.76000  0.94500  0.13700  1.0000
  Te  Te2       1.0  0.24000  0.44500  0.36300  1.0000
  Te  Te3       1.0  0.76000  0.55500  0.63700  1.0000
  Te  Te4       1.0  0.24000  0.05510  0.86300  1.0000
