data_image0
_chemical_formula_structural       Cs2Ga4O32P10
_chemical_formula_sum              "Cs2 Ga4 O32 P10"
_cell_length_a       7.39397
_cell_length_b       9.19046
_cell_length_c       10.0034
_cell_angle_alpha    90
_cell_angle_beta     110.356
_cell_angle_gamma    90

_space_group_name_H-M_alt    "P 1"
_space_group_IT_number       1

loop_
  _space_group_symop_operation_xyz
  'x, y, z'

loop_
  _atom_site_type_symbol
  _atom_site_label
  _atom_site_symmetry_multiplicity
  _atom_site_fract_x
  _atom_site_fract_y
  _atom_site_fract_z
  _atom_site_occupancy
  Cs  Cs1       1.0  0.25200  0.80700  0.23400  1.0000
  Cs  Cs2       1.0  0.75200  0.19300  0.73400  1.0000
  Ga  Ga1       1.0  0.66300  0.86400  0.01680  1.0000
  Ga  Ga2       1.0  0.21200  0.37100  0.12800  1.0000
  Ga  Ga3       1.0  0.16300  0.13600  0.51700  1.0000
  Ga  Ga4       1.0  0.71200  0.62900  0.62800  1.0000
  O   O1        1.0  0.72500  0.50900  0.03690  1.0000
  O   O2        1.0  0.06550  0.54000  0.04350  1.0000
  O   O3        1.0  0.85800  0.01980  0.06470  1.0000
  O   O4        1.0  0.49000  0.97400  0.09020  1.0000
  O   O5        1.0  0.45000  0.47800  0.12100  1.0000
  O   O6        1.0  0.99300  0.27000  0.14400  1.0000
  O   O7        1.0  0.37500  0.19500  0.18700  1.0000
  O   O8        1.0  0.72500  0.17600  0.21900  1.0000
  O   O9        1.0  0.77400  0.77400  0.21900  1.0000
  O   O10       1.0  0.28000  0.47000  0.30800  1.0000
  O   O11       1.0  0.05130  0.05950  0.32500  1.0000
  O   O12       1.0  0.89200  0.54400  0.35700  1.0000
  O   O13       1.0  0.65300  0.70600  0.42400  1.0000
  O   O14       1.0  0.34900  0.24900  0.47100  1.0000
  O   O15       1.0  0.96600  0.29500  0.47300  1.0000
  O   O16       1.0  0.99800  0.78300  0.47400  1.0000
  O   O17       1.0  0.22500  0.49100  0.53700  1.0000
  O   O18       1.0  0.56500  0.46000  0.54300  1.0000
  O   O19       1.0  0.35800  0.98000  0.56500  1.0000
  O   O20       1.0  0.99000  0.02560  0.59000  1.0000
  O   O21       1.0  0.95000  0.52200  0.62100  1.0000
  O   O22       1.0  0.49300  0.73000  0.64400  1.0000
  O   O23       1.0  0.87500  0.80500  0.68700  1.0000
  O   O24       1.0  0.22500  0.82400  0.71900  1.0000
  O   O25       1.0  0.27400  0.22600  0.71900  1.0000
  O   O26       1.0  0.78000  0.53000  0.80800  1.0000
  O   O27       1.0  0.55100  0.94100  0.82500  1.0000
  O   O28       1.0  0.39200  0.45600  0.85700  1.0000
  O   O29       1.0  0.15300  0.29400  0.92400  1.0000
  O   O30       1.0  0.84900  0.75100  0.97100  1.0000
  O   O31       1.0  0.46600  0.70500  0.97300  1.0000
  O   O32       1.0  0.49800  0.21700  0.97400  1.0000
  P   P1        1.0  0.50300  0.54500  0.00295  1.0000
  P   P2        1.0  0.51300  0.13600  0.12100  1.0000
  P   P3        1.0  0.92200  0.13000  0.18700  1.0000
  P   P4        1.0  0.81100  0.70600  0.36100  1.0000
  P   P5        1.0  0.36200  0.41400  0.45900  1.0000
  P   P6        1.0  0.00307  0.45500  0.50300  1.0000
  P   P7        1.0  0.01350  0.86400  0.62100  1.0000
  P   P8        1.0  0.42200  0.87000  0.68700  1.0000
  P   P9        1.0  0.31100  0.29400  0.86100  1.0000
  P   P10       1.0  0.86200  0.58600  0.95900  1.0000
