data_image0
_chemical_formula_structural       B8Cl8Mg16N16
_chemical_formula_sum              "B8 Cl8 Mg16 N16"
_cell_length_a       6.60178
_cell_length_b       9.76947
_cell_length_c       10.5678
_cell_angle_alpha    90
_cell_angle_beta     90
_cell_angle_gamma    90

_space_group_name_H-M_alt    "P 1"
_space_group_IT_number       1

loop_
  _space_group_symop_operation_xyz
  'x, y, z'

loop_
  _atom_site_type_symbol
  _atom_site_label
  _atom_site_symmetry_multiplicity
  _atom_site_fract_x
  _atom_site_fract_y
  _atom_site_fract_z
  _atom_site_occupancy
  B   B1        1.0  0.14400  0.46100  0.19900  1.0000
  B   B2        1.0  0.35600  0.96100  0.19900  1.0000
  B   B3        1.0  0.64400  0.46100  0.30100  1.0000
  B   B4        1.0  0.85600  0.96100  0.30100  1.0000
  B   B5        1.0  0.14400  0.03930  0.69900  1.0000
  B   B6        1.0  0.35600  0.53900  0.69900  1.0000
  B   B7        1.0  0.64400  0.03930  0.80100  1.0000
  B   B8        1.0  0.85600  0.53900  0.80100  1.0000
  Cl  Cl1       1.0  0.93700  0.15800  0.04180  1.0000
  Cl  Cl2       1.0  0.56300  0.65800  0.04180  1.0000
  Cl  Cl3       1.0  0.43700  0.15800  0.45800  1.0000
  Cl  Cl4       1.0  0.06340  0.65800  0.45800  1.0000
  Cl  Cl5       1.0  0.93700  0.34200  0.54200  1.0000
  Cl  Cl6       1.0  0.56300  0.84200  0.54200  1.0000
  Cl  Cl7       1.0  0.43700  0.34200  0.95800  1.0000
  Cl  Cl8       1.0  0.06340  0.84200  0.95800  1.0000
  Mg  Mg1       1.0  0.80200  0.45100  0.05740  1.0000
  Mg  Mg2       1.0  0.69800  0.95100  0.05740  1.0000
  Mg  Mg3       1.0  0.44300  0.25000  0.19300  1.0000
  Mg  Mg4       1.0  0.05750  0.75000  0.19300  1.0000
  Mg  Mg5       1.0  0.94300  0.25000  0.30700  1.0000
  Mg  Mg6       1.0  0.55700  0.75000  0.30700  1.0000
  Mg  Mg7       1.0  0.30200  0.45100  0.44300  1.0000
  Mg  Mg8       1.0  0.19800  0.95100  0.44300  1.0000
  Mg  Mg9       1.0  0.80200  0.04920  0.55700  1.0000
  Mg  Mg10      1.0  0.69800  0.54900  0.55700  1.0000
  Mg  Mg11      1.0  0.44300  0.25000  0.69300  1.0000
  Mg  Mg12      1.0  0.05750  0.75000  0.69300  1.0000
  Mg  Mg13      1.0  0.94300  0.25000  0.80700  1.0000
  Mg  Mg14      1.0  0.55700  0.75000  0.80700  1.0000
  Mg  Mg15      1.0  0.30200  0.04920  0.94300  1.0000
  Mg  Mg16      1.0  0.19800  0.54900  0.94300  1.0000
  N   N1        1.0  0.43000  0.05730  0.12200  1.0000
  N   N2        1.0  0.07050  0.55700  0.12200  1.0000
  N   N3        1.0  0.70600  0.35900  0.22600  1.0000
  N   N4        1.0  0.79400  0.85900  0.22600  1.0000
  N   N5        1.0  0.20600  0.35900  0.27400  1.0000
  N   N6        1.0  0.29400  0.85900  0.27400  1.0000
  N   N7        1.0  0.93000  0.05730  0.37800  1.0000
  N   N8        1.0  0.57000  0.55700  0.37800  1.0000
  N   N9        1.0  0.43000  0.44300  0.62200  1.0000
  N   N10       1.0  0.07050  0.94300  0.62200  1.0000
  N   N11       1.0  0.70600  0.14100  0.72600  1.0000
  N   N12       1.0  0.79400  0.64100  0.72600  1.0000
  N   N13       1.0  0.20600  0.14100  0.77400  1.0000
  N   N14       1.0  0.29400  0.64100  0.77400  1.0000
  N   N15       1.0  0.93000  0.44300  0.87800  1.0000
  N   N16       1.0  0.57000  0.94300  0.87800  1.0000
