data_image0
_chemical_formula_structural       H4I4O32S8
_chemical_formula_sum              "H4 I4 O32 S8"
_cell_length_a       11.4289
_cell_length_b       6.18515
_cell_length_c       9.15484
_cell_angle_alpha    90
_cell_angle_beta     106.694
_cell_angle_gamma    90

_space_group_name_H-M_alt    "P 1"
_space_group_IT_number       1

loop_
  _space_group_symop_operation_xyz
  'x, y, z'

loop_
  _atom_site_type_symbol
  _atom_site_label
  _atom_site_symmetry_multiplicity
  _atom_site_fract_x
  _atom_site_fract_y
  _atom_site_fract_z
  _atom_site_occupancy
  H   H1        1.0  0.41100  0.68100  0.18400  1.0000
  H   H2        1.0  0.58900  0.18100  0.31600  1.0000
  H   H3        1.0  0.41100  0.81900  0.68400  1.0000
  H   H4        1.0  0.58900  0.31900  0.81600  1.0000
  I   I1        1.0  0.16700  0.09350  0.24300  1.0000
  I   I2        1.0  0.83300  0.59400  0.25700  1.0000
  I   I3        1.0  0.16700  0.40600  0.74300  1.0000
  I   I4        1.0  0.83300  0.90600  0.75700  1.0000
  O   O1        1.0  0.67700  0.86200  0.00167  1.0000
  O   O2        1.0  0.05130  0.71400  0.04160  1.0000
  O   O3        1.0  0.36300  0.77700  0.09400  1.0000
  O   O4        1.0  0.20400  0.44100  0.16800  1.0000
  O   O5        1.0  0.52400  0.04890  0.18100  1.0000
  O   O6        1.0  0.81200  0.27500  0.19900  1.0000
  O   O7        1.0  0.65000  0.57300  0.22700  1.0000
  O   O8        1.0  0.96800  0.99700  0.23700  1.0000
  O   O9        1.0  0.03230  0.49700  0.26300  1.0000
  O   O10       1.0  0.35000  0.07340  0.27300  1.0000
  O   O11       1.0  0.18800  0.77500  0.30100  1.0000
  O   O12       1.0  0.47600  0.54900  0.31900  1.0000
  O   O13       1.0  0.79600  0.94100  0.33200  1.0000
  O   O14       1.0  0.63700  0.27700  0.40600  1.0000
  O   O15       1.0  0.94900  0.21400  0.45800  1.0000
  O   O16       1.0  0.32300  0.36200  0.49800  1.0000
  O   O17       1.0  0.67700  0.63800  0.50200  1.0000
  O   O18       1.0  0.05130  0.78600  0.54200  1.0000
  O   O19       1.0  0.36300  0.72300  0.59400  1.0000
  O   O20       1.0  0.20400  0.05870  0.66800  1.0000
  O   O21       1.0  0.52400  0.45100  0.68100  1.0000
  O   O22       1.0  0.81200  0.22500  0.69900  1.0000
  O   O23       1.0  0.65000  0.92700  0.72700  1.0000
  O   O24       1.0  0.96800  0.50300  0.73700  1.0000
  O   O25       1.0  0.03230  0.00340  0.76300  1.0000
  O   O26       1.0  0.35000  0.42700  0.77300  1.0000
  O   O27       1.0  0.18800  0.72500  0.80100  1.0000
  O   O28       1.0  0.47600  0.95100  0.81900  1.0000
  O   O29       1.0  0.79600  0.55900  0.83200  1.0000
  O   O30       1.0  0.63700  0.22300  0.90600  1.0000
  O   O31       1.0  0.94900  0.28600  0.95800  1.0000
  O   O32       1.0  0.32300  0.13800  0.99800  1.0000
  S   S1        1.0  0.39200  0.01820  0.12600  1.0000
  S   S2        1.0  0.11200  0.60500  0.18100  1.0000
  S   S3        1.0  0.88800  0.10500  0.31900  1.0000
  S   S4        1.0  0.60800  0.51800  0.37400  1.0000
  S   S5        1.0  0.39200  0.48200  0.62600  1.0000
  S   S6        1.0  0.11200  0.89500  0.68100  1.0000
  S   S7        1.0  0.88800  0.39500  0.81900  1.0000
  S   S8        1.0  0.60800  0.98200  0.87400  1.0000
