data_image0
_chemical_formula_structural       Cs4H4O28Si12
_chemical_formula_sum              "Cs4 H4 O28 Si12"
_cell_length_a       4.86095
_cell_length_b       10.2395
_cell_length_c       13.8385
_cell_angle_alpha    90
_cell_angle_beta     90
_cell_angle_gamma    90

_space_group_name_H-M_alt    "P 1"
_space_group_IT_number       1

loop_
  _space_group_symop_operation_xyz
  'x, y, z'

loop_
  _atom_site_type_symbol
  _atom_site_label
  _atom_site_symmetry_multiplicity
  _atom_site_fract_x
  _atom_site_fract_y
  _atom_site_fract_z
  _atom_site_occupancy
  Cs  Cs1       1.0  0.47500  0.91100  0.24200  1.0000
  Cs  Cs2       1.0  0.52500  0.41100  0.25800  1.0000
  Cs  Cs3       1.0  0.02530  0.08900  0.74200  1.0000
  Cs  Cs4       1.0  0.97500  0.58900  0.75800  1.0000
  H   H1        1.0  0.96200  0.19600  0.21500  1.0000
  H   H2        1.0  0.03810  0.69600  0.28500  1.0000
  H   H3        1.0  0.53800  0.80400  0.71500  1.0000
  H   H4        1.0  0.46200  0.30400  0.78500  1.0000
  O   O1        1.0  0.19300  0.56600  0.02360  1.0000
  O   O2        1.0  0.43800  0.25100  0.03630  1.0000
  O   O3        1.0  0.11500  0.04760  0.06790  1.0000
  O   O4        1.0  0.69300  0.60600  0.08750  1.0000
  O   O5        1.0  0.04980  0.80200  0.08760  1.0000
  O   O6        1.0  0.02050  0.26900  0.16000  1.0000
  O   O7        1.0  0.10600  0.61200  0.21600  1.0000
  O   O8        1.0  0.89400  0.11200  0.28400  1.0000
  O   O9        1.0  0.97900  0.76900  0.34000  1.0000
  O   O10       1.0  0.95000  0.30200  0.41200  1.0000
  O   O11       1.0  0.30700  0.10600  0.41300  1.0000
  O   O12       1.0  0.88500  0.54800  0.43200  1.0000
  O   O13       1.0  0.56200  0.75100  0.46400  1.0000
  O   O14       1.0  0.80700  0.06610  0.47600  1.0000
  O   O15       1.0  0.30700  0.43400  0.52400  1.0000
  O   O16       1.0  0.06240  0.74900  0.53600  1.0000
  O   O17       1.0  0.38500  0.95200  0.56800  1.0000
  O   O18       1.0  0.80700  0.39400  0.58700  1.0000
  O   O19       1.0  0.45000  0.19800  0.58800  1.0000
  O   O20       1.0  0.47900  0.73100  0.66000  1.0000
  O   O21       1.0  0.39400  0.38800  0.71600  1.0000
  O   O22       1.0  0.60600  0.88800  0.78400  1.0000
  O   O23       1.0  0.52100  0.23100  0.84000  1.0000
  O   O24       1.0  0.55000  0.69800  0.91200  1.0000
  O   O25       1.0  0.19300  0.89400  0.91300  1.0000
  O   O26       1.0  0.61500  0.45200  0.93200  1.0000
  O   O27       1.0  0.93800  0.24900  0.96400  1.0000
  O   O28       1.0  0.69300  0.93400  0.97600  1.0000
  Si  Si1       1.0  0.01240  0.91900  0.01010  1.0000
  Si  Si2       1.0  0.12000  0.20800  0.05860  1.0000
  Si  Si3       1.0  0.01750  0.64300  0.10900  1.0000
  Si  Si4       1.0  0.98300  0.14300  0.39100  1.0000
  Si  Si5       1.0  0.88000  0.70800  0.44100  1.0000
  Si  Si6       1.0  0.98800  0.41900  0.49000  1.0000
  Si  Si7       1.0  0.48800  0.08060  0.51000  1.0000
  Si  Si8       1.0  0.38000  0.79200  0.55900  1.0000
  Si  Si9       1.0  0.48300  0.35700  0.60900  1.0000
  Si  Si10      1.0  0.51700  0.85700  0.89100  1.0000
  Si  Si11      1.0  0.62000  0.29200  0.94100  1.0000
  Si  Si12      1.0  0.51200  0.58100  0.99000  1.0000
