data_image0
_chemical_formula_structural       B8Ba14Se26
_chemical_formula_sum              "B8 Ba14 Se26"
_cell_length_a       10.6698
_cell_length_b       10.6609
_cell_length_c       13.8245
_cell_angle_alpha    90.0237
_cell_angle_beta     67.3003
_cell_angle_gamma    90.0613

_space_group_name_H-M_alt    "P 1"
_space_group_IT_number       1

loop_
  _space_group_symop_operation_xyz
  'x, y, z'

loop_
  _atom_site_type_symbol
  _atom_site_label
  _atom_site_symmetry_multiplicity
  _atom_site_fract_x
  _atom_site_fract_y
  _atom_site_fract_z
  _atom_site_occupancy
  B   B1        1.0  0.70800  0.64900  0.22500  1.0000
  B   B2        1.0  0.06750  0.85100  0.22500  1.0000
  B   B3        1.0  0.48300  0.06820  0.23400  1.0000
  B   B4        1.0  0.28300  0.43200  0.23400  1.0000
  B   B5        1.0  0.71700  0.56800  0.76600  1.0000
  B   B6        1.0  0.51700  0.93200  0.76600  1.0000
  B   B7        1.0  0.93300  0.14900  0.77500  1.0000
  B   B8        1.0  0.29200  0.35100  0.77500  1.0000
  Ba  Ba1       1.0  0.99700  0.25000  0.00600  1.0000
  Ba  Ba2       1.0  0.49600  0.25000  0.00821  1.0000
  Ba  Ba3       1.0  0.33200  0.75000  0.33500  1.0000
  Ba  Ba4       1.0  0.93600  0.52800  0.34300  1.0000
  Ba  Ba5       1.0  0.72200  0.97200  0.34300  1.0000
  Ba  Ba6       1.0  0.10500  0.14300  0.34700  1.0000
  Ba  Ba7       1.0  0.54800  0.35700  0.34700  1.0000
  Ba  Ba8       1.0  0.45200  0.64300  0.65300  1.0000
  Ba  Ba9       1.0  0.89500  0.85700  0.65300  1.0000
  Ba  Ba10      1.0  0.27800  0.02850  0.65700  1.0000
  Ba  Ba11      1.0  0.06430  0.47200  0.65700  1.0000
  Ba  Ba12      1.0  0.66800  0.25000  0.66500  1.0000
  Ba  Ba13      1.0  0.50400  0.75000  0.99200  1.0000
  Ba  Ba14      1.0  0.00300  0.75000  0.99400  1.0000
  Se  Se1       1.0  0.82800  0.51000  0.15100  1.0000
  Se  Se2       1.0  0.02120  0.99000  0.15100  1.0000
  Se  Se3       1.0  0.16900  0.70200  0.15300  1.0000
  Se  Se4       1.0  0.67800  0.79800  0.15300  1.0000
  Se  Se5       1.0  0.65900  0.15100  0.15900  1.0000
  Se  Se6       1.0  0.18200  0.34900  0.15900  1.0000
  Se  Se7       1.0  0.46600  0.50100  0.16300  1.0000
  Se  Se8       1.0  0.37100  0.99900  0.16300  1.0000
  Se  Se9       1.0  0.62300  0.65300  0.38100  1.0000
  Se  Se10      1.0  0.99600  0.84700  0.38100  1.0000
  Se  Se11      1.0  0.40300  0.06260  0.39000  1.0000
  Se  Se12      1.0  0.20700  0.43700  0.39000  1.0000
  Se  Se13      1.0  0.79500  0.25000  0.41100  1.0000
  Se  Se14      1.0  0.20500  0.75000  0.58900  1.0000
  Se  Se15      1.0  0.79300  0.56300  0.61000  1.0000
  Se  Se16      1.0  0.59700  0.93700  0.61000  1.0000
  Se  Se17      1.0  0.00449  0.15300  0.61900  1.0000
  Se  Se18      1.0  0.37700  0.34700  0.61900  1.0000
  Se  Se19      1.0  0.62900  0.00099  0.83700  1.0000
  Se  Se20      1.0  0.53400  0.49900  0.83700  1.0000
  Se  Se21      1.0  0.81800  0.65100  0.84100  1.0000
  Se  Se22      1.0  0.34100  0.84900  0.84100  1.0000
  Se  Se23      1.0  0.32200  0.20200  0.84700  1.0000
  Se  Se24      1.0  0.83100  0.29800  0.84700  1.0000
  Se  Se25      1.0  0.97900  0.01020  0.84900  1.0000
  Se  Se26      1.0  0.17200  0.49000  0.84900  1.0000
