data_image0
_chemical_formula_structural       Cu4H8Na20O16
_chemical_formula_sum              "Cu4 H8 Na20 O16"
_cell_length_a       5.98796
_cell_length_b       8.75062
_cell_length_c       11.838
_cell_angle_alpha    90
_cell_angle_beta     90
_cell_angle_gamma    90

_space_group_name_H-M_alt    "P 1"
_space_group_IT_number       1

loop_
  _space_group_symop_operation_xyz
  'x, y, z'

loop_
  _atom_site_type_symbol
  _atom_site_label
  _atom_site_symmetry_multiplicity
  _atom_site_fract_x
  _atom_site_fract_y
  _atom_site_fract_z
  _atom_site_occupancy
  Cu  Cu1       1.0  0.49500  0.25000  0.02410  1.0000
  Cu  Cu2       1.0  0.99500  0.25000  0.47600  1.0000
  Cu  Cu3       1.0  0.00474  0.75000  0.52400  1.0000
  Cu  Cu4       1.0  0.50500  0.75000  0.97600  1.0000
  H   H1        1.0  0.24600  0.00024  0.11700  1.0000
  H   H2        1.0  0.24600  0.50000  0.11700  1.0000
  H   H3        1.0  0.74600  0.00024  0.38300  1.0000
  H   H4        1.0  0.74600  0.50000  0.38300  1.0000
  H   H5        1.0  0.25400  0.50000  0.61700  1.0000
  H   H6        1.0  0.25400  0.00000  0.61700  1.0000
  H   H7        1.0  0.75400  0.50000  0.88300  1.0000
  H   H8        1.0  0.75400  0.00000  0.88300  1.0000
  Na  Na1       1.0  0.05730  0.75000  0.04140  1.0000
  Na  Na2       1.0  0.74600  0.50400  0.14000  1.0000
  Na  Na3       1.0  0.74600  0.99600  0.14000  1.0000
  Na  Na4       1.0  0.07610  0.25000  0.20200  1.0000
  Na  Na5       1.0  0.41200  0.75000  0.22800  1.0000
  Na  Na6       1.0  0.91200  0.75000  0.27200  1.0000
  Na  Na7       1.0  0.57600  0.25000  0.29800  1.0000
  Na  Na8       1.0  0.24600  0.50400  0.36000  1.0000
  Na  Na9       1.0  0.24600  0.99600  0.36000  1.0000
  Na  Na10      1.0  0.55700  0.75000  0.45900  1.0000
  Na  Na11      1.0  0.44300  0.25000  0.54100  1.0000
  Na  Na12      1.0  0.75400  0.00441  0.64000  1.0000
  Na  Na13      1.0  0.75400  0.49600  0.64000  1.0000
  Na  Na14      1.0  0.42400  0.75000  0.70200  1.0000
  Na  Na15      1.0  0.08810  0.25000  0.72800  1.0000
  Na  Na16      1.0  0.58800  0.25000  0.77200  1.0000
  Na  Na17      1.0  0.92400  0.75000  0.79800  1.0000
  Na  Na18      1.0  0.25400  0.00441  0.86000  1.0000
  Na  Na19      1.0  0.25400  0.49600  0.86000  1.0000
  Na  Na20      1.0  0.94300  0.25000  0.95900  1.0000
  O   O1        1.0  0.69700  0.75000  0.09080  1.0000
  O   O2        1.0  0.72700  0.25000  0.12200  1.0000
  O   O3        1.0  0.13800  0.54300  0.17000  1.0000
  O   O4        1.0  0.13800  0.95700  0.17000  1.0000
  O   O5        1.0  0.63800  0.54300  0.33000  1.0000
  O   O6        1.0  0.63800  0.95700  0.33000  1.0000
  O   O7        1.0  0.22700  0.25000  0.37800  1.0000
  O   O8        1.0  0.19700  0.75000  0.40900  1.0000
  O   O9        1.0  0.80300  0.25000  0.59100  1.0000
  O   O10       1.0  0.77300  0.75000  0.62200  1.0000
  O   O11       1.0  0.36200  0.04280  0.67000  1.0000
  O   O12       1.0  0.36200  0.45700  0.67000  1.0000
  O   O13       1.0  0.86200  0.04280  0.83000  1.0000
  O   O14       1.0  0.86200  0.45700  0.83000  1.0000
  O   O15       1.0  0.27300  0.75000  0.87800  1.0000
  O   O16       1.0  0.30300  0.25000  0.90900  1.0000
