data_image0
_chemical_formula_structural       C10Cu2H22N2O12
_chemical_formula_sum              "C10 Cu2 H22 N2 O12"
_cell_length_a       8.03242
_cell_length_b       8.03242
_cell_length_c       8.53832
_cell_angle_alpha    116.945
_cell_angle_beta     94.3832
_cell_angle_gamma    115.918

_space_group_name_H-M_alt    "P 1"
_space_group_IT_number       1

loop_
  _space_group_symop_operation_xyz
  'x, y, z'

loop_
  _atom_site_type_symbol
  _atom_site_label
  _atom_site_symmetry_multiplicity
  _atom_site_fract_x
  _atom_site_fract_y
  _atom_site_fract_z
  _atom_site_occupancy
  C   C1        1.0  0.72400  0.91700  0.07800  1.0000
  C   C2        1.0  0.75700  0.54400  0.22500  1.0000
  C   C3        1.0  0.20800  0.45800  0.25000  1.0000
  C   C4        1.0  0.31900  0.03210  0.27500  1.0000
  C   C5        1.0  0.83900  0.14600  0.42200  1.0000
  C   C6        1.0  0.16100  0.85400  0.57800  1.0000
  C   C7        1.0  0.68100  0.96800  0.72500  1.0000
  C   C8        1.0  0.79200  0.54200  0.75000  1.0000
  C   C9        1.0  0.24300  0.45600  0.77500  1.0000
  C   C10       1.0  0.27600  0.08340  0.92200  1.0000
  Cu  Cu1       1.0  0.00000  0.50000  0.00000  1.0000
  Cu  Cu2       1.0  0.50000  0.50000  0.50000  1.0000
  H   H1        1.0  0.39300  0.24300  0.04340  1.0000
  H   H2        1.0  0.72900  0.05110  0.07040  1.0000
  H   H3        1.0  0.86700  0.93100  0.08410  1.0000
  H   H4        1.0  0.76000  0.40900  0.22700  1.0000
  H   H5        1.0  0.54500  0.91600  0.24000  1.0000
  H   H6        1.0  0.33700  0.58700  0.25000  1.0000
  H   H7        1.0  0.67700  0.80500  0.26000  1.0000
  H   H8        1.0  0.18100  0.03280  0.27300  1.0000
  H   H9        1.0  0.84700  0.28300  0.41600  1.0000
  H   H10       1.0  0.98100  0.15900  0.43000  1.0000
  H   H11       1.0  0.20000  0.84900  0.45700  1.0000
  H   H12       1.0  0.80000  0.15100  0.54300  1.0000
  H   H13       1.0  0.01930  0.84100  0.57000  1.0000
  H   H14       1.0  0.15300  0.71700  0.58400  1.0000
  H   H15       1.0  0.81900  0.96700  0.72700  1.0000
  H   H16       1.0  0.32300  0.19500  0.74000  1.0000
  H   H17       1.0  0.66300  0.41300  0.75000  1.0000
  H   H18       1.0  0.45500  0.08360  0.76000  1.0000
  H   H19       1.0  0.24000  0.59100  0.77300  1.0000
  H   H20       1.0  0.13300  0.06900  0.91600  1.0000
  H   H21       1.0  0.27100  0.94900  0.93000  1.0000
  H   H22       1.0  0.60700  0.75700  0.95700  1.0000
  N   N1        1.0  0.68600  0.93600  0.25000  1.0000
  N   N2        1.0  0.31400  0.06430  0.75000  1.0000
  O   O1        1.0  0.85700  0.62300  0.14100  1.0000
  O   O2        1.0  0.03680  0.39400  0.16000  1.0000
  O   O3        1.0  0.30900  0.85000  0.19500  1.0000
  O   O4        1.0  0.65500  0.61400  0.30500  1.0000
  O   O5        1.0  0.23400  0.37600  0.34000  1.0000
  O   O6        1.0  0.48200  0.21600  0.35900  1.0000
  O   O7        1.0  0.51800  0.78400  0.64100  1.0000
  O   O8        1.0  0.76600  0.62400  0.66000  1.0000
  O   O9        1.0  0.34500  0.38600  0.69500  1.0000
  O   O10       1.0  0.69100  0.15000  0.80500  1.0000
  O   O11       1.0  0.96300  0.60600  0.84000  1.0000
  O   O12       1.0  0.14300  0.37700  0.85900  1.0000
