data_image0
_chemical_formula_structural       B8C20Dy20
_chemical_formula_sum              "B8 C20 Dy20"
_cell_length_a       8.14151
_cell_length_b       8.14151
_cell_length_c       10.7475
_cell_angle_alpha    90
_cell_angle_beta     90
_cell_angle_gamma    90

_space_group_name_H-M_alt    "P 1"
_space_group_IT_number       1

loop_
  _space_group_symop_operation_xyz
  'x, y, z'

loop_
  _atom_site_type_symbol
  _atom_site_label
  _atom_site_symmetry_multiplicity
  _atom_site_fract_x
  _atom_site_fract_y
  _atom_site_fract_z
  _atom_site_occupancy
  B   B1        1.0  0.90600  0.09420  0.25000  1.0000
  B   B2        1.0  0.59400  0.40600  0.25000  1.0000
  B   B3        1.0  0.09420  0.59400  0.25000  1.0000
  B   B4        1.0  0.40600  0.90600  0.25000  1.0000
  B   B5        1.0  0.59400  0.09420  0.75000  1.0000
  B   B6        1.0  0.90600  0.40600  0.75000  1.0000
  B   B7        1.0  0.40600  0.59400  0.75000  1.0000
  B   B8        1.0  0.09420  0.90600  0.75000  1.0000
  C   C1        1.0  0.75000  0.75000  0.09850  1.0000
  C   C2        1.0  0.94800  0.14900  0.12400  1.0000
  C   C3        1.0  0.55200  0.35100  0.12400  1.0000
  C   C4        1.0  0.14900  0.55200  0.12400  1.0000
  C   C5        1.0  0.35100  0.94800  0.12400  1.0000
  C   C6        1.0  0.85100  0.05210  0.37600  1.0000
  C   C7        1.0  0.64900  0.44800  0.37600  1.0000
  C   C8        1.0  0.05210  0.64900  0.37600  1.0000
  C   C9        1.0  0.44800  0.85100  0.37600  1.0000
  C   C10       1.0  0.25000  0.25000  0.40200  1.0000
  C   C11       1.0  0.75000  0.75000  0.59800  1.0000
  C   C12       1.0  0.55200  0.14900  0.62400  1.0000
  C   C13       1.0  0.94800  0.35100  0.62400  1.0000
  C   C14       1.0  0.35100  0.55200  0.62400  1.0000
  C   C15       1.0  0.14900  0.94800  0.62400  1.0000
  C   C16       1.0  0.64900  0.05210  0.87600  1.0000
  C   C17       1.0  0.85100  0.44800  0.87600  1.0000
  C   C18       1.0  0.44800  0.64900  0.87600  1.0000
  C   C19       1.0  0.05210  0.85100  0.87600  1.0000
  C   C20       1.0  0.25000  0.25000  0.90200  1.0000
  Dy  Dy1       1.0  0.65600  0.03680  0.10000  1.0000
  Dy  Dy2       1.0  0.84400  0.46300  0.10000  1.0000
  Dy  Dy3       1.0  0.46300  0.65600  0.10000  1.0000
  Dy  Dy4       1.0  0.03680  0.84400  0.10000  1.0000
  Dy  Dy5       1.0  0.25000  0.25000  0.14000  1.0000
  Dy  Dy6       1.0  0.75000  0.75000  0.36000  1.0000
  Dy  Dy7       1.0  0.53700  0.15600  0.40000  1.0000
  Dy  Dy8       1.0  0.96300  0.34400  0.40000  1.0000
  Dy  Dy9       1.0  0.34400  0.53700  0.40000  1.0000
  Dy  Dy10      1.0  0.15600  0.96300  0.40000  1.0000
  Dy  Dy11      1.0  0.84400  0.03680  0.60000  1.0000
  Dy  Dy12      1.0  0.65600  0.46300  0.60000  1.0000
  Dy  Dy13      1.0  0.03680  0.65600  0.60000  1.0000
  Dy  Dy14      1.0  0.46300  0.84400  0.60000  1.0000
  Dy  Dy15      1.0  0.25000  0.25000  0.64000  1.0000
  Dy  Dy16      1.0  0.75000  0.75000  0.86000  1.0000
  Dy  Dy17      1.0  0.96300  0.15600  0.90000  1.0000
  Dy  Dy18      1.0  0.53700  0.34400  0.90000  1.0000
  Dy  Dy19      1.0  0.15600  0.53700  0.90000  1.0000
  Dy  Dy20      1.0  0.34400  0.96300  0.90000  1.0000
