data_image0
_chemical_formula_structural       Ce8P8S32
_chemical_formula_sum              "Ce8 P8 S32"
_cell_length_a       12.5381
_cell_length_b       11.0831
_cell_length_c       11.0831
_cell_angle_alpha    90
_cell_angle_beta     116.23
_cell_angle_gamma    116.23

_space_group_name_H-M_alt    "P 1"
_space_group_IT_number       1

loop_
  _space_group_symop_operation_xyz
  'x, y, z'

loop_
  _atom_site_type_symbol
  _atom_site_label
  _atom_site_symmetry_multiplicity
  _atom_site_fract_x
  _atom_site_fract_y
  _atom_site_fract_z
  _atom_site_occupancy
  Ce  Ce1       1.0  0.75000  0.37500  0.12500  1.0000
  Ce  Ce2       1.0  0.75000  0.87500  0.12500  1.0000
  Ce  Ce3       1.0  0.25000  0.12500  0.37500  1.0000
  Ce  Ce4       1.0  0.25000  0.62500  0.37500  1.0000
  Ce  Ce5       1.0  0.75000  0.37500  0.62500  1.0000
  Ce  Ce6       1.0  0.75000  0.87500  0.62500  1.0000
  Ce  Ce7       1.0  0.25000  0.12500  0.87500  1.0000
  Ce  Ce8       1.0  0.25000  0.62500  0.87500  1.0000
  P   P1        1.0  0.00000  0.25000  0.21300  1.0000
  P   P2        1.0  0.50000  0.21300  0.25000  1.0000
  P   P3        1.0  0.50000  0.71300  0.25000  1.0000
  P   P4        1.0  0.00000  0.75000  0.28700  1.0000
  P   P5        1.0  0.00000  0.25000  0.71300  1.0000
  P   P6        1.0  0.50000  0.28700  0.75000  1.0000
  P   P7        1.0  0.50000  0.78700  0.75000  1.0000
  P   P8        1.0  0.00000  0.75000  0.78700  1.0000
  S   S1        1.0  0.49800  0.11200  0.09280  1.0000
  S   S2        1.0  0.50200  0.61500  0.09530  1.0000
  S   S3        1.0  0.82700  0.66300  0.09590  1.0000
  S   S4        1.0  0.99800  0.09280  0.11200  1.0000
  S   S5        1.0  0.00249  0.40700  0.11500  1.0000
  S   S6        1.0  0.32700  0.73100  0.16300  1.0000
  S   S7        1.0  0.32700  0.23100  0.16500  1.0000
  S   S8        1.0  0.82700  0.16500  0.23100  1.0000
  S   S9        1.0  0.17300  0.83700  0.26900  1.0000
  S   S10       1.0  0.67300  0.40400  0.33500  1.0000
  S   S11       1.0  0.67300  0.90400  0.33700  1.0000
  S   S12       1.0  0.99800  0.90500  0.38500  1.0000
  S   S13       1.0  0.00249  0.59500  0.38800  1.0000
  S   S14       1.0  0.17300  0.33500  0.40400  1.0000
  S   S15       1.0  0.49800  0.61200  0.40500  1.0000
  S   S16       1.0  0.50200  0.11500  0.40700  1.0000
  S   S17       1.0  0.49800  0.88500  0.59300  1.0000
  S   S18       1.0  0.50200  0.38800  0.59500  1.0000
  S   S19       1.0  0.82700  0.66500  0.59600  1.0000
  S   S20       1.0  0.99800  0.40500  0.61200  1.0000
  S   S21       1.0  0.00249  0.09530  0.61500  1.0000
  S   S22       1.0  0.32700  0.09590  0.66300  1.0000
  S   S23       1.0  0.32700  0.59600  0.66500  1.0000
  S   S24       1.0  0.82700  0.16300  0.73100  1.0000
  S   S25       1.0  0.17300  0.83500  0.76900  1.0000
  S   S26       1.0  0.67300  0.76900  0.83500  1.0000
  S   S27       1.0  0.67300  0.26900  0.83700  1.0000
  S   S28       1.0  0.99800  0.59300  0.88500  1.0000
  S   S29       1.0  0.00249  0.90700  0.88800  1.0000
  S   S30       1.0  0.17300  0.33700  0.90400  1.0000
  S   S31       1.0  0.49800  0.38500  0.90500  1.0000
  S   S32       1.0  0.50200  0.88800  0.90700  1.0000
