data_image0
_chemical_formula_structural       Au4Cs4O32S8
_chemical_formula_sum              "Au4 Cs4 O32 S8"
_cell_length_a       10.1953
_cell_length_b       8.71563
_cell_length_c       8.97928
_cell_angle_alpha    90
_cell_angle_beta     111.152
_cell_angle_gamma    90

_space_group_name_H-M_alt    "P 1"
_space_group_IT_number       1

loop_
  _space_group_symop_operation_xyz
  'x, y, z'

loop_
  _atom_site_type_symbol
  _atom_site_label
  _atom_site_symmetry_multiplicity
  _atom_site_fract_x
  _atom_site_fract_y
  _atom_site_fract_z
  _atom_site_occupancy
  Au  Au1       1.0  0.71800  0.14400  0.13500  1.0000
  Au  Au2       1.0  0.28200  0.64400  0.36500  1.0000
  Au  Au3       1.0  0.71800  0.35600  0.63500  1.0000
  Au  Au4       1.0  0.28200  0.85600  0.86500  1.0000
  Cs  Cs1       1.0  0.75200  0.64700  0.11100  1.0000
  Cs  Cs2       1.0  0.24800  0.14700  0.38900  1.0000
  Cs  Cs3       1.0  0.75200  0.85300  0.61100  1.0000
  Cs  Cs4       1.0  0.24800  0.35300  0.88900  1.0000
  O   O1        1.0  0.80900  0.30300  0.03890  1.0000
  O   O2        1.0  0.45300  0.84400  0.06900  1.0000
  O   O3        1.0  0.05750  0.26900  0.07310  1.0000
  O   O4        1.0  0.12400  0.90500  0.10400  1.0000
  O   O5        1.0  0.38800  0.10100  0.13400  1.0000
  O   O6        1.0  0.54300  0.39900  0.16100  1.0000
  O   O7        1.0  0.10400  0.63100  0.16900  1.0000
  O   O8        1.0  0.36600  0.50000  0.24600  1.0000
  O   O9        1.0  0.63400  0.00000  0.25400  1.0000
  O   O10       1.0  0.89600  0.13100  0.33100  1.0000
  O   O11       1.0  0.45700  0.89900  0.33900  1.0000
  O   O12       1.0  0.61200  0.60100  0.36600  1.0000
  O   O13       1.0  0.87600  0.40500  0.39600  1.0000
  O   O14       1.0  0.94300  0.76900  0.42700  1.0000
  O   O15       1.0  0.54700  0.34400  0.43100  1.0000
  O   O16       1.0  0.19100  0.80300  0.46100  1.0000
  O   O17       1.0  0.80900  0.19700  0.53900  1.0000
  O   O18       1.0  0.45300  0.65600  0.56900  1.0000
  O   O19       1.0  0.05750  0.23100  0.57300  1.0000
  O   O20       1.0  0.12400  0.59500  0.60400  1.0000
  O   O21       1.0  0.38800  0.39900  0.63400  1.0000
  O   O22       1.0  0.54300  0.10100  0.66100  1.0000
  O   O23       1.0  0.10400  0.86900  0.66900  1.0000
  O   O24       1.0  0.36600  0.00013  0.74600  1.0000
  O   O25       1.0  0.63400  0.50000  0.75400  1.0000
  O   O26       1.0  0.89600  0.36900  0.83100  1.0000
  O   O27       1.0  0.45700  0.60100  0.83900  1.0000
  O   O28       1.0  0.61200  0.89900  0.86600  1.0000
  O   O29       1.0  0.87600  0.09460  0.89600  1.0000
  O   O30       1.0  0.94300  0.73100  0.92700  1.0000
  O   O31       1.0  0.54700  0.15600  0.93100  1.0000
  O   O32       1.0  0.19100  0.69700  0.96100  1.0000
  S   S1        1.0  0.08460  0.75500  0.03720  1.0000
  S   S2        1.0  0.47300  0.96800  0.20000  1.0000
  S   S3        1.0  0.52700  0.46800  0.30000  1.0000
  S   S4        1.0  0.91500  0.25500  0.46300  1.0000
  S   S5        1.0  0.08460  0.74500  0.53700  1.0000
  S   S6        1.0  0.47300  0.53200  0.70000  1.0000
  S   S7        1.0  0.52700  0.03250  0.80000  1.0000
  S   S8        1.0  0.91500  0.24500  0.96300  1.0000
