data_image0
_chemical_formula_structural       Br12H24N8Sc4
_chemical_formula_sum              "Br12 H24 N8 Sc4"
_cell_length_a       7.16876
_cell_length_b       10.1016
_cell_length_c       11.2938
_cell_angle_alpha    105.549
_cell_angle_beta     90.803
_cell_angle_gamma    109.314

_space_group_name_H-M_alt    "P 1"
_space_group_IT_number       1

loop_
  _space_group_symop_operation_xyz
  'x, y, z'

loop_
  _atom_site_type_symbol
  _atom_site_label
  _atom_site_symmetry_multiplicity
  _atom_site_fract_x
  _atom_site_fract_y
  _atom_site_fract_z
  _atom_site_occupancy
  Br  Br1       1.0  0.34000  0.22600  0.07430  1.0000
  Br  Br2       1.0  0.84700  0.57300  0.13600  1.0000
  Br  Br3       1.0  0.97600  0.98800  0.24300  1.0000
  Br  Br4       1.0  0.50700  0.02660  0.25700  1.0000
  Br  Br5       1.0  0.12100  0.40700  0.34500  1.0000
  Br  Br6       1.0  0.66900  0.78300  0.46500  1.0000
  Br  Br7       1.0  0.33100  0.21700  0.53500  1.0000
  Br  Br8       1.0  0.87900  0.59300  0.65500  1.0000
  Br  Br9       1.0  0.49300  0.97300  0.74300  1.0000
  Br  Br10      1.0  0.02390  0.01190  0.75700  1.0000
  Br  Br11      1.0  0.15300  0.42700  0.86400  1.0000
  Br  Br12      1.0  0.66000  0.77400  0.92600  1.0000
  H   H1        1.0  0.84400  0.09820  0.01040  1.0000
  H   H2        1.0  0.67700  0.18100  0.03080  1.0000
  H   H3        1.0  0.91700  0.27800  0.06390  1.0000
  H   H4        1.0  0.44900  0.67300  0.09460  1.0000
  H   H5        1.0  0.28900  0.55200  0.15100  1.0000
  H   H6        1.0  0.46800  0.69200  0.24400  1.0000
  H   H7        1.0  0.63800  0.47200  0.30000  1.0000
  H   H8        1.0  0.73000  0.35700  0.33400  1.0000
  H   H9        1.0  0.15500  0.70000  0.41100  1.0000
  H   H10       1.0  0.06090  0.83300  0.44000  1.0000
  H   H11       1.0  0.65000  0.46100  0.44300  1.0000
  H   H12       1.0  0.30500  0.87200  0.45200  1.0000
  H   H13       1.0  0.69500  0.12800  0.54800  1.0000
  H   H14       1.0  0.35000  0.53900  0.55700  1.0000
  H   H15       1.0  0.93900  0.16700  0.56000  1.0000
  H   H16       1.0  0.84500  0.30000  0.58900  1.0000
  H   H17       1.0  0.27000  0.64300  0.66600  1.0000
  H   H18       1.0  0.36200  0.52800  0.70000  1.0000
  H   H19       1.0  0.53200  0.30800  0.75600  1.0000
  H   H20       1.0  0.71100  0.44800  0.84900  1.0000
  H   H21       1.0  0.55100  0.32700  0.90500  1.0000
  H   H22       1.0  0.08290  0.72200  0.93600  1.0000
  H   H23       1.0  0.32300  0.81900  0.96900  1.0000
  H   H24       1.0  0.15600  0.90200  0.99000  1.0000
  N   N1        1.0  0.81500  0.18900  0.00167  1.0000
  N   N2        1.0  0.36700  0.66200  0.16800  1.0000
  N   N3        1.0  0.61700  0.40000  0.35200  1.0000
  N   N4        1.0  0.17400  0.80100  0.40000  1.0000
  N   N5        1.0  0.82600  0.19900  0.60000  1.0000
  N   N6        1.0  0.38300  0.60000  0.64800  1.0000
  N   N7        1.0  0.63300  0.33800  0.83200  1.0000
  N   N8        1.0  0.18500  0.81100  0.99800  1.0000
  Sc  Sc1       1.0  0.16300  0.79700  0.19600  1.0000
  Sc  Sc2       1.0  0.31300  0.22300  0.30400  1.0000
  Sc  Sc3       1.0  0.68700  0.77700  0.69600  1.0000
  Sc  Sc4       1.0  0.83700  0.20300  0.80400  1.0000
