data_image0
_chemical_formula_structural       C8N12Rb4
_chemical_formula_sum              "C8 N12 Rb4"
_cell_length_a       8.60088
_cell_length_b       6.4966
_cell_length_c       7.4255
_cell_angle_alpha    90
_cell_angle_beta     90
_cell_angle_gamma    90

_space_group_name_H-M_alt    "P 1"
_space_group_IT_number       1

loop_
  _space_group_symop_operation_xyz
  'x, y, z'

loop_
  _atom_site_type_symbol
  _atom_site_label
  _atom_site_symmetry_multiplicity
  _atom_site_fract_x
  _atom_site_fract_y
  _atom_site_fract_z
  _atom_site_occupancy
  C   C1        1.0  0.07050  0.14500  0.25000  1.0000
  C   C2        1.0  0.32100  0.26800  0.25000  1.0000
  C   C3        1.0  0.93000  0.64500  0.25000  1.0000
  C   C4        1.0  0.67900  0.76800  0.25000  1.0000
  C   C5        1.0  0.32100  0.23200  0.75000  1.0000
  C   C6        1.0  0.07050  0.35500  0.75000  1.0000
  C   C7        1.0  0.67900  0.73200  0.75000  1.0000
  C   C8        1.0  0.93000  0.85500  0.75000  1.0000
  N   N1        1.0  0.22100  0.11900  0.25000  1.0000
  N   N2        1.0  0.93300  0.14800  0.25000  1.0000
  N   N3        1.0  0.42400  0.39000  0.25000  1.0000
  N   N4        1.0  0.77900  0.61900  0.25000  1.0000
  N   N5        1.0  0.06650  0.64800  0.25000  1.0000
  N   N6        1.0  0.57600  0.89000  0.25000  1.0000
  N   N7        1.0  0.42400  0.11000  0.75000  1.0000
  N   N8        1.0  0.93300  0.35200  0.75000  1.0000
  N   N9        1.0  0.22100  0.38100  0.75000  1.0000
  N   N10       1.0  0.57600  0.61000  0.75000  1.0000
  N   N11       1.0  0.06650  0.85200  0.75000  1.0000
  N   N12       1.0  0.77900  0.88100  0.75000  1.0000
  Rb  Rb1       1.0  0.68600  0.25000  0.00000  1.0000
  Rb  Rb2       1.0  0.31400  0.75000  0.00000  1.0000
  Rb  Rb3       1.0  0.68600  0.25000  0.50000  1.0000
  Rb  Rb4       1.0  0.31400  0.75000  0.50000  1.0000
