data_image0
_chemical_formula_structural       K8O28P8Sn4
_chemical_formula_sum              "K8 O28 P8 Sn4"
_cell_length_a       9.7884
_cell_length_b       6.6528
_cell_length_c       12.1598
_cell_angle_alpha    90
_cell_angle_beta     108.326
_cell_angle_gamma    90

_space_group_name_H-M_alt    "P 1"
_space_group_IT_number       1

loop_
  _space_group_symop_operation_xyz
  'x, y, z'

loop_
  _atom_site_type_symbol
  _atom_site_label
  _atom_site_symmetry_multiplicity
  _atom_site_fract_x
  _atom_site_fract_y
  _atom_site_fract_z
  _atom_site_occupancy
  K   K1        1.0  0.63400  0.87500  0.14900  1.0000
  K   K2        1.0  0.18300  0.14500  0.15800  1.0000
  K   K3        1.0  0.31700  0.64500  0.34200  1.0000
  K   K4        1.0  0.86600  0.37500  0.35100  1.0000
  K   K5        1.0  0.13400  0.62500  0.64900  1.0000
  K   K6        1.0  0.68300  0.35500  0.65800  1.0000
  K   K7        1.0  0.81700  0.85500  0.84200  1.0000
  K   K8        1.0  0.36600  0.12500  0.85100  1.0000
  O   O1        1.0  0.86500  0.61400  0.02980  1.0000
  O   O2        1.0  0.46100  0.18800  0.07460  1.0000
  O   O3        1.0  0.11900  0.75000  0.12200  1.0000
  O   O4        1.0  0.64300  0.47900  0.13400  1.0000
  O   O5        1.0  0.39000  0.52400  0.14500  1.0000
  O   O6        1.0  0.03070  0.44500  0.21000  1.0000
  O   O7        1.0  0.92700  0.80200  0.21500  1.0000
  O   O8        1.0  0.57300  0.30200  0.28500  1.0000
  O   O9        1.0  0.46900  0.94500  0.29000  1.0000
  O   O10       1.0  0.11000  0.02410  0.35500  1.0000
  O   O11       1.0  0.85700  0.97900  0.36600  1.0000
  O   O12       1.0  0.38100  0.25000  0.37800  1.0000
  O   O13       1.0  0.03890  0.68800  0.42500  1.0000
  O   O14       1.0  0.63500  0.11400  0.47000  1.0000
  O   O15       1.0  0.36500  0.88600  0.53000  1.0000
  O   O16       1.0  0.96100  0.31200  0.57500  1.0000
  O   O17       1.0  0.61900  0.75000  0.62200  1.0000
  O   O18       1.0  0.14300  0.02110  0.63400  1.0000
  O   O19       1.0  0.89000  0.97600  0.64500  1.0000
  O   O20       1.0  0.53100  0.05480  0.71000  1.0000
  O   O21       1.0  0.42700  0.69800  0.71500  1.0000
  O   O22       1.0  0.07280  0.19800  0.78500  1.0000
  O   O23       1.0  0.96900  0.55500  0.79000  1.0000
  O   O24       1.0  0.61000  0.47600  0.85500  1.0000
  O   O25       1.0  0.35700  0.52100  0.86600  1.0000
  O   O26       1.0  0.88100  0.25000  0.87800  1.0000
  O   O27       1.0  0.53900  0.81200  0.92500  1.0000
  O   O28       1.0  0.13500  0.38600  0.97000  1.0000
  P   P1        1.0  0.99300  0.63900  0.14300  1.0000
  P   P2        1.0  0.51100  0.37200  0.14900  1.0000
  P   P3        1.0  0.98900  0.87200  0.35100  1.0000
  P   P4        1.0  0.50700  0.13900  0.35700  1.0000
  P   P5        1.0  0.49300  0.86100  0.64300  1.0000
  P   P6        1.0  0.01120  0.12800  0.64900  1.0000
  P   P7        1.0  0.48900  0.62800  0.85100  1.0000
  P   P8        1.0  0.00740  0.36100  0.85700  1.0000
  Sn  Sn1       1.0  0.75400  0.32800  0.00673  1.0000
  Sn  Sn2       1.0  0.74600  0.82800  0.49300  1.0000
  Sn  Sn3       1.0  0.25400  0.17200  0.50700  1.0000
  Sn  Sn4       1.0  0.24600  0.67200  0.99300  1.0000
