data_image0
_chemical_formula_structural       Mn4O28Rb8V8
_chemical_formula_sum              "Mn4 O28 Rb8 V8"
_cell_length_a       8.55908
_cell_length_b       8.55908
_cell_length_c       11.6637
_cell_angle_alpha    90
_cell_angle_beta     90
_cell_angle_gamma    90

_space_group_name_H-M_alt    "P 1"
_space_group_IT_number       1

loop_
  _space_group_symop_operation_xyz
  'x, y, z'

loop_
  _atom_site_type_symbol
  _atom_site_label
  _atom_site_symmetry_multiplicity
  _atom_site_fract_x
  _atom_site_fract_y
  _atom_site_fract_z
  _atom_site_occupancy
  Mn  Mn1       1.0  0.50000  0.00000  0.25000  1.0000
  Mn  Mn2       1.0  0.00000  0.50000  0.25000  1.0000
  Mn  Mn3       1.0  0.50000  0.00000  0.75000  1.0000
  Mn  Mn4       1.0  0.00000  0.50000  0.75000  1.0000
  O   O1        1.0  0.64100  0.35900  0.14300  1.0000
  O   O2        1.0  0.35900  0.64100  0.14300  1.0000
  O   O3        1.0  0.32000  0.08770  0.15700  1.0000
  O   O4        1.0  0.08770  0.32000  0.15700  1.0000
  O   O5        1.0  0.91200  0.68000  0.15700  1.0000
  O   O6        1.0  0.68000  0.91200  0.15700  1.0000
  O   O7        1.0  0.00000  0.00000  0.15900  1.0000
  O   O8        1.0  0.50000  0.50000  0.34100  1.0000
  O   O9        1.0  0.58800  0.18000  0.34300  1.0000
  O   O10       1.0  0.82000  0.41200  0.34300  1.0000
  O   O11       1.0  0.18000  0.58800  0.34300  1.0000
  O   O12       1.0  0.41200  0.82000  0.34300  1.0000
  O   O13       1.0  0.14100  0.14100  0.35700  1.0000
  O   O14       1.0  0.85900  0.85900  0.35700  1.0000
  O   O15       1.0  0.14100  0.14100  0.64300  1.0000
  O   O16       1.0  0.85900  0.85900  0.64300  1.0000
  O   O17       1.0  0.58800  0.18000  0.65700  1.0000
  O   O18       1.0  0.82000  0.41200  0.65700  1.0000
  O   O19       1.0  0.18000  0.58800  0.65700  1.0000
  O   O20       1.0  0.41200  0.82000  0.65700  1.0000
  O   O21       1.0  0.50000  0.50000  0.65900  1.0000
  O   O22       1.0  0.00000  0.00000  0.84100  1.0000
  O   O23       1.0  0.32000  0.08770  0.84300  1.0000
  O   O24       1.0  0.08770  0.32000  0.84300  1.0000
  O   O25       1.0  0.91200  0.68000  0.84300  1.0000
  O   O26       1.0  0.68000  0.91200  0.84300  1.0000
  O   O27       1.0  0.64100  0.35900  0.85700  1.0000
  O   O28       1.0  0.35900  0.64100  0.85700  1.0000
  Rb  Rb1       1.0  0.82100  0.17900  0.00000  1.0000
  Rb  Rb2       1.0  0.35200  0.35200  0.00000  1.0000
  Rb  Rb3       1.0  0.64800  0.64800  0.00000  1.0000
  Rb  Rb4       1.0  0.17900  0.82100  0.00000  1.0000
  Rb  Rb5       1.0  0.85200  0.14800  0.50000  1.0000
  Rb  Rb6       1.0  0.32100  0.32100  0.50000  1.0000
  Rb  Rb7       1.0  0.67900  0.67900  0.50000  1.0000
  Rb  Rb8       1.0  0.14800  0.85200  0.50000  1.0000
  V   V1        1.0  0.14100  0.14100  0.21300  1.0000
  V   V2        1.0  0.85900  0.85900  0.21300  1.0000
  V   V3        1.0  0.64100  0.35900  0.28700  1.0000
  V   V4        1.0  0.35900  0.64100  0.28700  1.0000
  V   V5        1.0  0.64100  0.35900  0.71300  1.0000
  V   V6        1.0  0.35900  0.64100  0.71300  1.0000
  V   V7        1.0  0.14100  0.14100  0.78700  1.0000
  V   V8        1.0  0.85900  0.85900  0.78700  1.0000
