data_image0
_chemical_formula_structural       Ba4O32Te4V8
_chemical_formula_sum              "Ba4 O32 Te4 V8"
_cell_length_a       9.51303
_cell_length_b       5.61872
_cell_length_c       13.7581
_cell_angle_alpha    90
_cell_angle_beta     108.377
_cell_angle_gamma    90.0008

_space_group_name_H-M_alt    "P 1"
_space_group_IT_number       1

loop_
  _space_group_symop_operation_xyz
  'x, y, z'

loop_
  _atom_site_type_symbol
  _atom_site_label
  _atom_site_symmetry_multiplicity
  _atom_site_fract_x
  _atom_site_fract_y
  _atom_site_fract_z
  _atom_site_occupancy
  Ba  Ba1       1.0  0.40300  0.69300  0.15600  1.0000
  Ba  Ba2       1.0  0.09670  0.19300  0.34400  1.0000
  Ba  Ba3       1.0  0.90300  0.80700  0.65600  1.0000
  Ba  Ba4       1.0  0.59700  0.30700  0.84400  1.0000
  O   O1        1.0  0.19400  0.39300  0.04240  1.0000
  O   O2        1.0  0.91000  0.97100  0.04310  1.0000
  O   O3        1.0  0.65900  0.40500  0.05850  1.0000
  O   O4        1.0  0.63000  0.88100  0.06230  1.0000
  O   O5        1.0  0.99900  0.37600  0.14400  1.0000
  O   O6        1.0  0.50100  0.18000  0.17700  1.0000
  O   O7        1.0  0.19100  0.01020  0.18500  1.0000
  O   O8        1.0  0.80000  0.12600  0.23900  1.0000
  O   O9        1.0  0.70000  0.62600  0.26100  1.0000
  O   O10       1.0  0.30900  0.51000  0.31500  1.0000
  O   O11       1.0  0.99900  0.68000  0.32300  1.0000
  O   O12       1.0  0.50100  0.87600  0.35600  1.0000
  O   O13       1.0  0.87000  0.38100  0.43800  1.0000
  O   O14       1.0  0.84100  0.90500  0.44200  1.0000
  O   O15       1.0  0.59000  0.47100  0.45700  1.0000
  O   O16       1.0  0.30600  0.89300  0.45800  1.0000
  O   O17       1.0  0.69400  0.10700  0.54200  1.0000
  O   O18       1.0  0.41000  0.52900  0.54300  1.0000
  O   O19       1.0  0.15900  0.09460  0.55800  1.0000
  O   O20       1.0  0.13000  0.61900  0.56200  1.0000
  O   O21       1.0  0.49900  0.12400  0.64400  1.0000
  O   O22       1.0  0.00102  0.32000  0.67700  1.0000
  O   O23       1.0  0.69100  0.49000  0.68500  1.0000
  O   O24       1.0  0.30000  0.37400  0.73900  1.0000
  O   O25       1.0  0.20000  0.87400  0.76100  1.0000
  O   O26       1.0  0.80900  0.99000  0.81500  1.0000
  O   O27       1.0  0.49900  0.82000  0.82300  1.0000
  O   O28       1.0  0.00077  0.62400  0.85600  1.0000
  O   O29       1.0  0.37000  0.11900  0.93800  1.0000
  O   O30       1.0  0.34100  0.59500  0.94200  1.0000
  O   O31       1.0  0.09030  0.02890  0.95700  1.0000
  O   O32       1.0  0.80600  0.60700  0.95800  1.0000
  Te  Te1       1.0  0.81100  0.66800  0.09750  1.0000
  Te  Te2       1.0  0.68900  0.16800  0.40300  1.0000
  Te  Te3       1.0  0.31100  0.83200  0.59700  1.0000
  Te  Te4       1.0  0.18900  0.33200  0.90300  1.0000
  V   V1        1.0  0.07880  0.16600  0.08770  1.0000
  V   V2        1.0  0.64800  0.15400  0.13600  1.0000
  V   V3        1.0  0.85200  0.65400  0.36400  1.0000
  V   V4        1.0  0.42100  0.66600  0.41200  1.0000
  V   V5        1.0  0.57900  0.33400  0.58800  1.0000
  V   V6        1.0  0.14800  0.34600  0.63600  1.0000
  V   V7        1.0  0.35200  0.84600  0.86400  1.0000
  V   V8        1.0  0.92100  0.83400  0.91200  1.0000
