data_image0
_chemical_formula_structural       Cu2N4Na10O24S8
_chemical_formula_sum              "Cu2 N4 Na10 O24 S8"
_cell_length_a       11.0276
_cell_length_b       11.0276
_cell_length_c       5.36335
_cell_angle_alpha    90
_cell_angle_beta     90
_cell_angle_gamma    90

_space_group_name_H-M_alt    "P 1"
_space_group_IT_number       1

loop_
  _space_group_symop_operation_xyz
  'x, y, z'

loop_
  _atom_site_type_symbol
  _atom_site_label
  _atom_site_symmetry_multiplicity
  _atom_site_fract_x
  _atom_site_fract_y
  _atom_site_fract_z
  _atom_site_occupancy
  Cu  Cu1       1.0  0.00000  0.00000  0.00000  1.0000
  Cu  Cu2       1.0  0.00000  0.00000  0.50000  1.0000
  N   N1        1.0  0.39400  0.30300  0.25800  1.0000
  N   N2        1.0  0.60600  0.69700  0.25800  1.0000
  N   N3        1.0  0.69700  0.39400  0.74200  1.0000
  N   N4        1.0  0.30300  0.60600  0.74200  1.0000
  Na  Na1       1.0  0.50000  0.00000  0.20400  1.0000
  Na  Na2       1.0  0.72300  0.19900  0.21500  1.0000
  Na  Na3       1.0  0.27700  0.80100  0.21500  1.0000
  Na  Na4       1.0  0.76500  0.48600  0.25800  1.0000
  Na  Na5       1.0  0.23500  0.51400  0.25800  1.0000
  Na  Na6       1.0  0.48600  0.23500  0.74200  1.0000
  Na  Na7       1.0  0.51400  0.76500  0.74200  1.0000
  Na  Na8       1.0  0.19900  0.27700  0.78500  1.0000
  Na  Na9       1.0  0.80100  0.72300  0.78500  1.0000
  Na  Na10      1.0  0.00000  0.50000  0.79600  1.0000
  O   O1        1.0  0.36700  0.34800  0.04730  1.0000
  O   O2        1.0  0.63300  0.65200  0.04730  1.0000
  O   O3        1.0  0.09050  0.38200  0.09430  1.0000
  O   O4        1.0  0.91000  0.61800  0.09430  1.0000
  O   O5        1.0  0.89400  0.30700  0.22600  1.0000
  O   O6        1.0  0.10600  0.69300  0.22600  1.0000
  O   O7        1.0  0.46400  0.21300  0.27300  1.0000
  O   O8        1.0  0.53600  0.78700  0.27300  1.0000
  O   O9        1.0  0.35200  0.35200  0.45500  1.0000
  O   O10       1.0  0.64800  0.64800  0.45500  1.0000
  O   O11       1.0  0.65200  0.05060  0.46600  1.0000
  O   O12       1.0  0.34800  0.94900  0.46600  1.0000
  O   O13       1.0  0.05060  0.34800  0.53400  1.0000
  O   O14       1.0  0.94900  0.65200  0.53400  1.0000
  O   O15       1.0  0.64800  0.35200  0.54500  1.0000
  O   O16       1.0  0.35200  0.64800  0.54500  1.0000
  O   O17       1.0  0.78700  0.46400  0.72700  1.0000
  O   O18       1.0  0.21300  0.53600  0.72700  1.0000
  O   O19       1.0  0.30700  0.10600  0.77400  1.0000
  O   O20       1.0  0.69300  0.89400  0.77400  1.0000
  O   O21       1.0  0.61800  0.09050  0.90600  1.0000
  O   O22       1.0  0.38200  0.91000  0.90600  1.0000
  O   O23       1.0  0.65200  0.36700  0.95300  1.0000
  O   O24       1.0  0.34800  0.63300  0.95300  1.0000
  S   S1        1.0  0.10300  0.13700  0.24900  1.0000
  S   S2        1.0  0.89700  0.86300  0.24900  1.0000
  S   S3        1.0  0.02450  0.30500  0.27900  1.0000
  S   S4        1.0  0.97600  0.69500  0.27900  1.0000
  S   S5        1.0  0.69500  0.02450  0.72100  1.0000
  S   S6        1.0  0.30500  0.97600  0.72100  1.0000
  S   S7        1.0  0.86300  0.10300  0.75100  1.0000
  S   S8        1.0  0.13700  0.89700  0.75100  1.0000
