data_image0
_chemical_formula_structural       B2H6Mg6O12
_chemical_formula_sum              "B2 H6 Mg6 O12"
_cell_length_a       8.95756
_cell_length_b       8.95755
_cell_length_c       3.11461
_cell_angle_alpha    90
_cell_angle_beta     90
_cell_angle_gamma    120.001

_space_group_name_H-M_alt    "P 1"
_space_group_IT_number       1

loop_
  _space_group_symop_operation_xyz
  'x, y, z'

loop_
  _atom_site_type_symbol
  _atom_site_label
  _atom_site_symmetry_multiplicity
  _atom_site_fract_x
  _atom_site_fract_y
  _atom_site_fract_z
  _atom_site_occupancy
  B   B1        1.0  0.33300  0.66700  0.25000  1.0000
  B   B2        1.0  0.66700  0.33300  0.75000  1.0000
  H   H1        1.0  0.16800  0.00375  0.25000  1.0000
  H   H2        1.0  0.99600  0.16400  0.25000  1.0000
  H   H3        1.0  0.83600  0.83200  0.25000  1.0000
  H   H4        1.0  0.16400  0.16800  0.75000  1.0000
  H   H5        1.0  0.00374  0.83600  0.75000  1.0000
  H   H6        1.0  0.83200  0.99600  0.75000  1.0000
  Mg  Mg1       1.0  0.65700  0.03190  0.25000  1.0000
  Mg  Mg2       1.0  0.37500  0.34300  0.25000  1.0000
  Mg  Mg3       1.0  0.96800  0.62500  0.25000  1.0000
  Mg  Mg4       1.0  0.03190  0.37500  0.75000  1.0000
  Mg  Mg5       1.0  0.62500  0.65700  0.75000  1.0000
  Mg  Mg6       1.0  0.34300  0.96800  0.75000  1.0000
  O   O1        1.0  0.29100  0.08720  0.25000  1.0000
  O   O2        1.0  0.91300  0.20400  0.25000  1.0000
  O   O3        1.0  0.15600  0.55500  0.25000  1.0000
  O   O4        1.0  0.44500  0.60100  0.25000  1.0000
  O   O5        1.0  0.79600  0.70900  0.25000  1.0000
  O   O6        1.0  0.39900  0.84400  0.25000  1.0000
  O   O7        1.0  0.60100  0.15600  0.75000  1.0000
  O   O8        1.0  0.20400  0.29100  0.75000  1.0000
  O   O9        1.0  0.55500  0.39900  0.75000  1.0000
  O   O10       1.0  0.84400  0.44500  0.75000  1.0000
  O   O11       1.0  0.08720  0.79600  0.75000  1.0000
  O   O12       1.0  0.70900  0.91300  0.75000  1.0000
