data_image0
_chemical_formula_structural       Ho4Mo4Na8O32P4
_chemical_formula_sum              "Ho4 Mo4 Na8 O32 P4"
_cell_length_a       6.80942
_cell_length_b       11.261
_cell_length_c       11.261
_cell_angle_alpha    104.374
_cell_angle_beta     107.598
_cell_angle_gamma    107.598

_space_group_name_H-M_alt    "P 1"
_space_group_IT_number       1

loop_
  _space_group_symop_operation_xyz
  'x, y, z'

loop_
  _atom_site_type_symbol
  _atom_site_label
  _atom_site_symmetry_multiplicity
  _atom_site_fract_x
  _atom_site_fract_y
  _atom_site_fract_z
  _atom_site_occupancy
  Ho  Ho1       1.0  0.42900  0.67900  0.17900  1.0000
  Ho  Ho2       1.0  0.07050  0.82100  0.32100  1.0000
  Ho  Ho3       1.0  0.92900  0.17900  0.67900  1.0000
  Ho  Ho4       1.0  0.57100  0.32100  0.82100  1.0000
  Mo  Mo1       1.0  0.25000  0.92900  0.07070  1.0000
  Mo  Mo2       1.0  0.75000  0.57100  0.42900  1.0000
  Mo  Mo3       1.0  0.25000  0.42900  0.57100  1.0000
  Mo  Mo4       1.0  0.75000  0.07070  0.92900  1.0000
  Na  Na1       1.0  0.42800  0.29000  0.09650  1.0000
  Na  Na2       1.0  0.04160  0.40300  0.21000  1.0000
  Na  Na3       1.0  0.92800  0.09650  0.29000  1.0000
  Na  Na4       1.0  0.54200  0.21000  0.40300  1.0000
  Na  Na5       1.0  0.45800  0.79000  0.59700  1.0000
  Na  Na6       1.0  0.07150  0.90300  0.71000  1.0000
  Na  Na7       1.0  0.95800  0.59700  0.79000  1.0000
  Na  Na8       1.0  0.57200  0.71000  0.90300  1.0000
  O   O1        1.0  0.72900  0.42200  0.06110  1.0000
  O   O2        1.0  0.24600  0.43900  0.07820  1.0000
  O   O3        1.0  0.44200  0.84900  0.10400  1.0000
  O   O4        1.0  0.91400  0.13900  0.10500  1.0000
  O   O5        1.0  0.41400  0.10500  0.13900  1.0000
  O   O6        1.0  0.72100  0.65600  0.14000  1.0000
  O   O7        1.0  0.05780  0.89600  0.15100  1.0000
  O   O8        1.0  0.07480  0.64000  0.15600  1.0000
  O   O9        1.0  0.77900  0.86000  0.34400  1.0000
  O   O10       1.0  0.51200  0.60400  0.34900  1.0000
  O   O11       1.0  0.42500  0.84400  0.36000  1.0000
  O   O12       1.0  0.67100  0.39500  0.36100  1.0000
  O   O13       1.0  0.17100  0.36100  0.39500  1.0000
  O   O14       1.0  0.98800  0.65100  0.39600  1.0000
  O   O15       1.0  0.22900  0.06110  0.42200  1.0000
  O   O16       1.0  0.74600  0.07820  0.43900  1.0000
  O   O17       1.0  0.25400  0.92200  0.56100  1.0000
  O   O18       1.0  0.77100  0.93900  0.57800  1.0000
  O   O19       1.0  0.01160  0.34900  0.60400  1.0000
  O   O20       1.0  0.82900  0.63900  0.60500  1.0000
  O   O21       1.0  0.32900  0.60500  0.63900  1.0000
  O   O22       1.0  0.57500  0.15600  0.64000  1.0000
  O   O23       1.0  0.48800  0.39600  0.65100  1.0000
  O   O24       1.0  0.22100  0.14000  0.65600  1.0000
  O   O25       1.0  0.92500  0.36000  0.84400  1.0000
  O   O26       1.0  0.94200  0.10400  0.84900  1.0000
  O   O27       1.0  0.27900  0.34400  0.86000  1.0000
  O   O28       1.0  0.58600  0.89500  0.86100  1.0000
  O   O29       1.0  0.08550  0.86100  0.89500  1.0000
  O   O30       1.0  0.55800  0.15100  0.89600  1.0000
  O   O31       1.0  0.75400  0.56100  0.92200  1.0000
  O   O32       1.0  0.27100  0.57800  0.93900  1.0000
  P   P1        1.0  0.81800  0.56800  0.06760  1.0000
  P   P2        1.0  0.68200  0.93200  0.43200  1.0000
  P   P3        1.0  0.31800  0.06760  0.56800  1.0000
  P   P4        1.0  0.18200  0.43200  0.93200  1.0000
