data_image0
_chemical_formula_structural       F4H16N4O16S4Sn4
_chemical_formula_sum              "F4 H16 N4 O16 S4 Sn4"
_cell_length_a       4.71781
_cell_length_b       13.5647
_cell_length_c       7.82323
_cell_angle_alpha    89.9975
_cell_angle_beta     92.1308
_cell_angle_gamma    90.0008

_space_group_name_H-M_alt    "P 1"
_space_group_IT_number       1

loop_
  _space_group_symop_operation_xyz
  'x, y, z'

loop_
  _atom_site_type_symbol
  _atom_site_label
  _atom_site_symmetry_multiplicity
  _atom_site_fract_x
  _atom_site_fract_y
  _atom_site_fract_z
  _atom_site_occupancy
  F   F1        1.0  0.27100  0.36300  0.14500  1.0000
  F   F2        1.0  0.72900  0.86300  0.35500  1.0000
  F   F3        1.0  0.27100  0.13700  0.64500  1.0000
  F   F4        1.0  0.72900  0.63700  0.85500  1.0000
  H   H1        1.0  0.23000  0.94100  0.11200  1.0000
  H   H2        1.0  0.59000  0.40500  0.20600  1.0000
  H   H3        1.0  0.95100  0.41800  0.20700  1.0000
  H   H4        1.0  0.73900  0.51700  0.22300  1.0000
  H   H5        1.0  0.26100  0.01740  0.27700  1.0000
  H   H6        1.0  0.04880  0.91700  0.29300  1.0000
  H   H7        1.0  0.41100  0.90500  0.29400  1.0000
  H   H8        1.0  0.77000  0.44100  0.38800  1.0000
  H   H9        1.0  0.23000  0.55900  0.61200  1.0000
  H   H10       1.0  0.58900  0.09530  0.70600  1.0000
  H   H11       1.0  0.95100  0.08250  0.70700  1.0000
  H   H12       1.0  0.73900  0.98300  0.72300  1.0000
  H   H13       1.0  0.26100  0.48300  0.77700  1.0000
  H   H14       1.0  0.04880  0.58300  0.79300  1.0000
  H   H15       1.0  0.41100  0.59500  0.79400  1.0000
  H   H16       1.0  0.77000  0.05910  0.88800  1.0000
  N   N1        1.0  0.23600  0.94400  0.24500  1.0000
  N   N2        1.0  0.76400  0.44400  0.25500  1.0000
  N   N3        1.0  0.23600  0.55600  0.74500  1.0000
  N   N4        1.0  0.76400  0.05620  0.75500  1.0000
  O   O1        1.0  0.12600  0.62600  0.10900  1.0000
  O   O2        1.0  0.76400  0.05110  0.11300  1.0000
  O   O3        1.0  0.78700  0.23100  0.14100  1.0000
  O   O4        1.0  0.59800  0.64100  0.23900  1.0000
  O   O5        1.0  0.40100  0.14100  0.26100  1.0000
  O   O6        1.0  0.21400  0.73100  0.35900  1.0000
  O   O7        1.0  0.23600  0.55100  0.38700  1.0000
  O   O8        1.0  0.87400  0.12600  0.39100  1.0000
  O   O9        1.0  0.12500  0.87400  0.60900  1.0000
  O   O10       1.0  0.76400  0.44900  0.61300  1.0000
  O   O11       1.0  0.78600  0.26900  0.64100  1.0000
  O   O12       1.0  0.59800  0.85900  0.73900  1.0000
  O   O13       1.0  0.40100  0.35900  0.76100  1.0000
  O   O14       1.0  0.21400  0.76900  0.85900  1.0000
  O   O15       1.0  0.23600  0.94900  0.88700  1.0000
  O   O16       1.0  0.87400  0.37400  0.89100  1.0000
  S   S1        1.0  0.71200  0.13500  0.22400  1.0000
  S   S2        1.0  0.28800  0.63500  0.27600  1.0000
  S   S3        1.0  0.71200  0.36500  0.72400  1.0000
  S   S4        1.0  0.28800  0.86500  0.77600  1.0000
  Sn  Sn1       1.0  0.81100  0.74800  0.03430  1.0000
  Sn  Sn2       1.0  0.18900  0.24800  0.46600  1.0000
  Sn  Sn3       1.0  0.81100  0.75200  0.53400  1.0000
  Sn  Sn4       1.0  0.18900  0.25200  0.96600  1.0000
