data_image0
_chemical_formula_structural       B12Br2Cs6H24Se8
_chemical_formula_sum              "B12 Br2 Cs6 H24 Se8"
_cell_length_a       10.7527
_cell_length_b       10.7529
_cell_length_c       8.81516
_cell_angle_alpha    90
_cell_angle_beta     90
_cell_angle_gamma    120

_space_group_name_H-M_alt    "P 1"
_space_group_IT_number       1

loop_
  _space_group_symop_operation_xyz
  'x, y, z'

loop_
  _atom_site_type_symbol
  _atom_site_label
  _atom_site_symmetry_multiplicity
  _atom_site_fract_x
  _atom_site_fract_y
  _atom_site_fract_z
  _atom_site_occupancy
  B   B1        1.0  0.12800  0.56400  0.07990  1.0000
  B   B2        1.0  0.43600  0.56400  0.07990  1.0000
  B   B3        1.0  0.43600  0.87200  0.08000  1.0000
  B   B4        1.0  0.23100  0.46300  0.38800  1.0000
  B   B5        1.0  0.23100  0.76900  0.38800  1.0000
  B   B6        1.0  0.53700  0.76900  0.38800  1.0000
  B   B7        1.0  0.56400  0.43600  0.58000  1.0000
  B   B8        1.0  0.87200  0.43600  0.58000  1.0000
  B   B9        1.0  0.56400  0.12800  0.58000  1.0000
  B   B10       1.0  0.76900  0.53700  0.88800  1.0000
  B   B11       1.0  0.46300  0.23100  0.88800  1.0000
  B   B12       1.0  0.76900  0.23100  0.88800  1.0000
  Br  Br1       1.0  0.00000  0.00000  0.00286  1.0000
  Br  Br2       1.0  0.00000  0.00000  0.50300  1.0000
  Cs  Cs1       1.0  0.84500  0.69000  0.25500  1.0000
  Cs  Cs2       1.0  0.31000  0.15500  0.25500  1.0000
  Cs  Cs3       1.0  0.84500  0.15500  0.25500  1.0000
  Cs  Cs4       1.0  0.15500  0.31000  0.75500  1.0000
  Cs  Cs5       1.0  0.15500  0.84500  0.75500  1.0000
  Cs  Cs6       1.0  0.69000  0.84500  0.75500  1.0000
  H   H1        1.0  0.49600  0.99300  0.13000  1.0000
  H   H2        1.0  0.00699  0.50300  0.13000  1.0000
  H   H3        1.0  0.49700  0.50300  0.13000  1.0000
  H   H4        1.0  0.10700  0.70300  0.43000  1.0000
  H   H5        1.0  0.59500  0.70300  0.43000  1.0000
  H   H6        1.0  0.10700  0.40500  0.43000  1.0000
  H   H7        1.0  0.29700  0.40500  0.43000  1.0000
  H   H8        1.0  0.29700  0.89300  0.43000  1.0000
  H   H9        1.0  0.59500  0.89300  0.43000  1.0000
  H   H10       1.0  0.56800  0.13600  0.44200  1.0000
  H   H11       1.0  0.56800  0.43200  0.44200  1.0000
  H   H12       1.0  0.86400  0.43200  0.44200  1.0000
  H   H13       1.0  0.50400  0.00701  0.63000  1.0000
  H   H14       1.0  0.50300  0.49700  0.63000  1.0000
  H   H15       1.0  0.99300  0.49700  0.63000  1.0000
  H   H16       1.0  0.40500  0.29700  0.93000  1.0000
  H   H17       1.0  0.89300  0.29700  0.93000  1.0000
  H   H18       1.0  0.70300  0.59500  0.93000  1.0000
  H   H19       1.0  0.89300  0.59500  0.93000  1.0000
  H   H20       1.0  0.40500  0.10700  0.93000  1.0000
  H   H21       1.0  0.70300  0.10700  0.93000  1.0000
  H   H22       1.0  0.43200  0.86400  0.94200  1.0000
  H   H23       1.0  0.13600  0.56800  0.94200  1.0000
  H   H24       1.0  0.43200  0.56800  0.94200  1.0000
  Se  Se1       1.0  0.22600  0.45200  0.15400  1.0000
  Se  Se2       1.0  0.22600  0.77400  0.15400  1.0000
  Se  Se3       1.0  0.54800  0.77400  0.15400  1.0000
  Se  Se4       1.0  0.33300  0.66700  0.48100  1.0000
  Se  Se5       1.0  0.45200  0.22600  0.65400  1.0000
  Se  Se6       1.0  0.77400  0.22600  0.65400  1.0000
  Se  Se7       1.0  0.77400  0.54800  0.65400  1.0000
  Se  Se8       1.0  0.66700  0.33300  0.98100  1.0000
