data_image0
_chemical_formula_structural       Ba4Eu8O28Sc8
_chemical_formula_sum              "Ba4 Eu8 O28 Sc8"
_cell_length_a       5.83553
_cell_length_b       5.83553
_cell_length_c       19.9358
_cell_angle_alpha    90
_cell_angle_beta     90
_cell_angle_gamma    90

_space_group_name_H-M_alt    "P 1"
_space_group_IT_number       1

loop_
  _space_group_symop_operation_xyz
  'x, y, z'

loop_
  _atom_site_type_symbol
  _atom_site_label
  _atom_site_symmetry_multiplicity
  _atom_site_fract_x
  _atom_site_fract_y
  _atom_site_fract_z
  _atom_site_occupancy
  Ba  Ba1       1.0  0.25400  0.25400  0.00000  1.0000
  Ba  Ba2       1.0  0.74600  0.74600  0.00000  1.0000
  Ba  Ba3       1.0  0.75400  0.24600  0.50000  1.0000
  Ba  Ba4       1.0  0.24600  0.75400  0.50000  1.0000
  Eu  Eu1       1.0  0.27000  0.27000  0.18400  1.0000
  Eu  Eu2       1.0  0.73000  0.73000  0.18400  1.0000
  Eu  Eu3       1.0  0.77000  0.23000  0.31600  1.0000
  Eu  Eu4       1.0  0.23000  0.77000  0.31600  1.0000
  Eu  Eu5       1.0  0.77000  0.23000  0.68400  1.0000
  Eu  Eu6       1.0  0.23000  0.77000  0.68400  1.0000
  Eu  Eu7       1.0  0.27000  0.27000  0.81600  1.0000
  Eu  Eu8       1.0  0.73000  0.73000  0.81600  1.0000
  O   O1        1.0  0.77300  0.22700  0.00000  1.0000
  O   O2        1.0  0.22700  0.77300  0.00000  1.0000
  O   O3        1.0  0.50000  0.50000  0.09490  1.0000
  O   O4        1.0  0.50000  0.00000  0.10800  1.0000
  O   O5        1.0  0.00000  0.50000  0.10800  1.0000
  O   O6        1.0  0.00000  0.00000  0.12600  1.0000
  O   O7        1.0  0.68200  0.31800  0.20600  1.0000
  O   O8        1.0  0.31800  0.68200  0.20600  1.0000
  O   O9        1.0  0.18200  0.18200  0.29400  1.0000
  O   O10       1.0  0.81800  0.81800  0.29400  1.0000
  O   O11       1.0  0.50000  0.50000  0.37400  1.0000
  O   O12       1.0  0.50000  0.00000  0.39200  1.0000
  O   O13       1.0  0.00000  0.50000  0.39200  1.0000
  O   O14       1.0  0.00000  0.00000  0.40500  1.0000
  O   O15       1.0  0.27300  0.27300  0.50000  1.0000
  O   O16       1.0  0.72700  0.72700  0.50000  1.0000
  O   O17       1.0  0.00000  0.00000  0.59500  1.0000
  O   O18       1.0  0.50000  0.00000  0.60800  1.0000
  O   O19       1.0  0.00000  0.50000  0.60800  1.0000
  O   O20       1.0  0.50000  0.50000  0.62600  1.0000
  O   O21       1.0  0.18200  0.18200  0.70600  1.0000
  O   O22       1.0  0.81800  0.81800  0.70600  1.0000
  O   O23       1.0  0.68200  0.31800  0.79400  1.0000
  O   O24       1.0  0.31800  0.68200  0.79400  1.0000
  O   O25       1.0  0.00000  0.00000  0.87400  1.0000
  O   O26       1.0  0.50000  0.00000  0.89200  1.0000
  O   O27       1.0  0.00000  0.50000  0.89200  1.0000
  O   O28       1.0  0.50000  0.50000  0.90500  1.0000
  Sc  Sc1       1.0  0.75700  0.24300  0.10500  1.0000
  Sc  Sc2       1.0  0.24300  0.75700  0.10500  1.0000
  Sc  Sc3       1.0  0.25700  0.25700  0.39500  1.0000
  Sc  Sc4       1.0  0.74300  0.74300  0.39500  1.0000
  Sc  Sc5       1.0  0.25700  0.25700  0.60500  1.0000
  Sc  Sc6       1.0  0.74300  0.74300  0.60500  1.0000
  Sc  Sc7       1.0  0.75700  0.24300  0.89500  1.0000
  Sc  Sc8       1.0  0.24300  0.75700  0.89500  1.0000
