data_image0
_chemical_formula_structural       Cr8Li16N24Sr8
_chemical_formula_sum              "Cr8 Li16 N24 Sr8"
_cell_length_a       9.04621
_cell_length_b       7.30158
_cell_length_c       10.4112
_cell_angle_alpha    90
_cell_angle_beta     90
_cell_angle_gamma    90

_space_group_name_H-M_alt    "P 1"
_space_group_IT_number       1

loop_
  _space_group_symop_operation_xyz
  'x, y, z'

loop_
  _atom_site_type_symbol
  _atom_site_label
  _atom_site_symmetry_multiplicity
  _atom_site_fract_x
  _atom_site_fract_y
  _atom_site_fract_z
  _atom_site_occupancy
  Cr  Cr1       1.0  0.95200  0.10600  0.41800  1.0000
  Cr  Cr2       1.0  0.54800  0.89400  0.91800  1.0000
  Cr  Cr3       1.0  0.45200  0.39400  0.58200  1.0000
  Cr  Cr4       1.0  0.04780  0.60600  0.08220  1.0000
  Cr  Cr5       1.0  0.04780  0.89400  0.58200  1.0000
  Cr  Cr6       1.0  0.45200  0.10600  0.08220  1.0000
  Cr  Cr7       1.0  0.54800  0.60600  0.41800  1.0000
  Cr  Cr8       1.0  0.95200  0.39400  0.91800  1.0000
  Li  Li1       1.0  0.88300  0.09540  0.78200  1.0000
  Li  Li2       1.0  0.61700  0.90500  0.28200  1.0000
  Li  Li3       1.0  0.38300  0.40500  0.21800  1.0000
  Li  Li4       1.0  0.11700  0.59500  0.71800  1.0000
  Li  Li5       1.0  0.11700  0.90500  0.21800  1.0000
  Li  Li6       1.0  0.38300  0.09540  0.71800  1.0000
  Li  Li7       1.0  0.61700  0.59500  0.78200  1.0000
  Li  Li8       1.0  0.88300  0.40500  0.28200  1.0000
  Li  Li9       1.0  0.12200  0.29000  0.18400  1.0000
  Li  Li10      1.0  0.37800  0.71000  0.68400  1.0000
  Li  Li11      1.0  0.62200  0.21000  0.81600  1.0000
  Li  Li12      1.0  0.87800  0.79000  0.31600  1.0000
  Li  Li13      1.0  0.87800  0.71000  0.81600  1.0000
  Li  Li14      1.0  0.62200  0.29000  0.31600  1.0000
  Li  Li15      1.0  0.37800  0.79000  0.18400  1.0000
  Li  Li16      1.0  0.12200  0.21000  0.68400  1.0000
  N   N1        1.0  0.93200  0.10300  0.59700  1.0000
  N   N2        1.0  0.56800  0.89700  0.09740  1.0000
  N   N3        1.0  0.43200  0.39700  0.40300  1.0000
  N   N4        1.0  0.06780  0.60300  0.90300  1.0000
  N   N5        1.0  0.06780  0.89700  0.40300  1.0000
  N   N6        1.0  0.43200  0.10300  0.90300  1.0000
  N   N7        1.0  0.56800  0.60300  0.59700  1.0000
  N   N8        1.0  0.93200  0.39700  0.09740  1.0000
  N   N9        1.0  0.78100  0.07720  0.34400  1.0000
  N   N10       1.0  0.71900  0.92300  0.84400  1.0000
  N   N11       1.0  0.28100  0.42300  0.65600  1.0000
  N   N12       1.0  0.21900  0.57700  0.15600  1.0000
  N   N13       1.0  0.21900  0.92300  0.65600  1.0000
  N   N14       1.0  0.28100  0.07720  0.15600  1.0000
  N   N15       1.0  0.71900  0.57700  0.34400  1.0000
  N   N16       1.0  0.78100  0.42300  0.84400  1.0000
  N   N17       1.0  0.05170  0.29500  0.37400  1.0000
  N   N18       1.0  0.44800  0.70500  0.87400  1.0000
  N   N19       1.0  0.55200  0.20500  0.62600  1.0000
  N   N20       1.0  0.94800  0.79500  0.12600  1.0000
  N   N21       1.0  0.94800  0.70500  0.62600  1.0000
  N   N22       1.0  0.55200  0.29500  0.12600  1.0000
  N   N23       1.0  0.44800  0.79500  0.37400  1.0000
  N   N24       1.0  0.05170  0.20500  0.87400  1.0000
  Sr  Sr1       1.0  0.30900  0.08610  0.41700  1.0000
  Sr  Sr2       1.0  0.19100  0.91400  0.91700  1.0000
  Sr  Sr3       1.0  0.80900  0.41400  0.58300  1.0000
  Sr  Sr4       1.0  0.69100  0.58600  0.08280  1.0000
  Sr  Sr5       1.0  0.69100  0.91400  0.58300  1.0000
  Sr  Sr6       1.0  0.80900  0.08610  0.08280  1.0000
  Sr  Sr7       1.0  0.19100  0.58600  0.41700  1.0000
  Sr  Sr8       1.0  0.30900  0.41400  0.91700  1.0000
