data_image0
_chemical_formula_structural       As8Ba4O32V4
_chemical_formula_sum              "As8 Ba4 O32 V4"
_cell_length_a       6.81251
_cell_length_b       14.6192
_cell_length_c       7.45259
_cell_angle_alpha    90
_cell_angle_beta     115.878
_cell_angle_gamma    90

_space_group_name_H-M_alt    "P 1"
_space_group_IT_number       1

loop_
  _space_group_symop_operation_xyz
  'x, y, z'

loop_
  _atom_site_type_symbol
  _atom_site_label
  _atom_site_symmetry_multiplicity
  _atom_site_fract_x
  _atom_site_fract_y
  _atom_site_fract_z
  _atom_site_occupancy
  As  As1       1.0  0.72500  0.96300  0.22500  1.0000
  As  As2       1.0  0.22500  0.53700  0.22500  1.0000
  As  As3       1.0  0.11100  0.81900  0.34800  1.0000
  As  As4       1.0  0.61100  0.68100  0.34800  1.0000
  As  As5       1.0  0.88900  0.18100  0.65200  1.0000
  As  As6       1.0  0.38900  0.31900  0.65200  1.0000
  As  As7       1.0  0.27500  0.03690  0.77500  1.0000
  As  As8       1.0  0.77500  0.46300  0.77500  1.0000
  Ba  Ba1       1.0  0.27500  0.12000  0.30500  1.0000
  Ba  Ba2       1.0  0.77500  0.38000  0.30500  1.0000
  Ba  Ba3       1.0  0.22500  0.62000  0.69500  1.0000
  Ba  Ba4       1.0  0.72500  0.88000  0.69500  1.0000
  O   O1        1.0  0.07490  0.60100  0.01580  1.0000
  O   O2        1.0  0.57500  0.89900  0.01580  1.0000
  O   O3        1.0  0.31900  0.26800  0.12500  1.0000
  O   O4        1.0  0.81900  0.23200  0.12500  1.0000
  O   O5        1.0  0.10900  0.88100  0.14900  1.0000
  O   O6        1.0  0.60900  0.61900  0.14900  1.0000
  O   O7        1.0  0.35600  0.45500  0.15400  1.0000
  O   O8        1.0  0.85600  0.04460  0.15400  1.0000
  O   O9        1.0  0.48500  0.78500  0.27800  1.0000
  O   O10       1.0  0.98500  0.71500  0.27800  1.0000
  O   O11       1.0  0.07510  0.51400  0.34900  1.0000
  O   O12       1.0  0.57500  0.98600  0.34900  1.0000
  O   O13       1.0  0.43200  0.60700  0.40500  1.0000
  O   O14       1.0  0.93200  0.89300  0.40500  1.0000
  O   O15       1.0  0.17500  0.30500  0.43200  1.0000
  O   O16       1.0  0.67500  0.19500  0.43200  1.0000
  O   O17       1.0  0.82500  0.69500  0.56800  1.0000
  O   O18       1.0  0.32500  0.80500  0.56800  1.0000
  O   O19       1.0  0.56800  0.39300  0.59500  1.0000
  O   O20       1.0  0.06760  0.10700  0.59500  1.0000
  O   O21       1.0  0.42500  0.01420  0.65100  1.0000
  O   O22       1.0  0.92500  0.48600  0.65100  1.0000
  O   O23       1.0  0.51500  0.21500  0.72200  1.0000
  O   O24       1.0  0.01470  0.28500  0.72200  1.0000
  O   O25       1.0  0.14400  0.95500  0.84600  1.0000
  O   O26       1.0  0.64400  0.54500  0.84600  1.0000
  O   O27       1.0  0.89100  0.11900  0.85100  1.0000
  O   O28       1.0  0.39100  0.38100  0.85100  1.0000
  O   O29       1.0  0.68100  0.73200  0.87500  1.0000
  O   O30       1.0  0.18100  0.76800  0.87500  1.0000
  O   O31       1.0  0.42500  0.10100  0.98400  1.0000
  O   O32       1.0  0.92500  0.39900  0.98400  1.0000
  V   V1        1.0  0.30600  0.85100  0.02910  1.0000
  V   V2        1.0  0.80600  0.64900  0.02910  1.0000
  V   V3        1.0  0.69400  0.14900  0.97100  1.0000
  V   V4        1.0  0.19400  0.35100  0.97100  1.0000
