data_image0
_chemical_formula_structural       Er4Mo4Na8O32P4
_chemical_formula_sum              "Er4 Mo4 Na8 O32 P4"
_cell_length_a       6.78194
_cell_length_b       11.2519
_cell_length_c       11.2519
_cell_angle_alpha    104.587
_cell_angle_beta     107.54
_cell_angle_gamma    107.54

_space_group_name_H-M_alt    "P 1"
_space_group_IT_number       1

loop_
  _space_group_symop_operation_xyz
  'x, y, z'

loop_
  _atom_site_type_symbol
  _atom_site_label
  _atom_site_symmetry_multiplicity
  _atom_site_fract_x
  _atom_site_fract_y
  _atom_site_fract_z
  _atom_site_occupancy
  Er  Er1       1.0  0.43000  0.68000  0.18000  1.0000
  Er  Er2       1.0  0.07010  0.82000  0.32000  1.0000
  Er  Er3       1.0  0.93000  0.18000  0.68000  1.0000
  Er  Er4       1.0  0.57000  0.32000  0.82000  1.0000
  Mo  Mo1       1.0  0.25000  0.92800  0.07160  1.0000
  Mo  Mo2       1.0  0.75000  0.57200  0.42800  1.0000
  Mo  Mo3       1.0  0.25000  0.42800  0.57200  1.0000
  Mo  Mo4       1.0  0.75000  0.07160  0.92800  1.0000
  Na  Na1       1.0  0.43600  0.29100  0.09860  1.0000
  Na  Na2       1.0  0.04580  0.40100  0.20900  1.0000
  Na  Na3       1.0  0.93600  0.09860  0.29100  1.0000
  Na  Na4       1.0  0.54600  0.20900  0.40100  1.0000
  Na  Na5       1.0  0.45400  0.79100  0.59900  1.0000
  Na  Na6       1.0  0.06440  0.90100  0.70900  1.0000
  Na  Na7       1.0  0.95400  0.59900  0.79100  1.0000
  Na  Na8       1.0  0.56400  0.70900  0.90100  1.0000
  O   O1        1.0  0.73100  0.42100  0.06030  1.0000
  O   O2        1.0  0.25000  0.44000  0.07890  1.0000
  O   O3        1.0  0.91300  0.14000  0.10500  1.0000
  O   O4        1.0  0.44500  0.85000  0.10600  1.0000
  O   O5        1.0  0.41300  0.10500  0.14000  1.0000
  O   O6        1.0  0.72100  0.65500  0.14100  1.0000
  O   O7        1.0  0.05530  0.89400  0.15000  1.0000
  O   O8        1.0  0.07550  0.64100  0.15500  1.0000
  O   O9        1.0  0.77900  0.85900  0.34500  1.0000
  O   O10       1.0  0.51100  0.60600  0.35000  1.0000
  O   O11       1.0  0.42500  0.84500  0.35900  1.0000
  O   O12       1.0  0.66800  0.39500  0.36000  1.0000
  O   O13       1.0  0.98900  0.65000  0.39400  1.0000
  O   O14       1.0  0.16800  0.36000  0.39500  1.0000
  O   O15       1.0  0.23100  0.06030  0.42100  1.0000
  O   O16       1.0  0.75000  0.07890  0.44000  1.0000
  O   O17       1.0  0.25000  0.92100  0.56000  1.0000
  O   O18       1.0  0.76900  0.94000  0.57900  1.0000
  O   O19       1.0  0.83200  0.64000  0.60500  1.0000
  O   O20       1.0  0.01070  0.35000  0.60600  1.0000
  O   O21       1.0  0.33200  0.60500  0.64000  1.0000
  O   O22       1.0  0.57500  0.15500  0.64100  1.0000
  O   O23       1.0  0.48900  0.39400  0.65000  1.0000
  O   O24       1.0  0.22100  0.14100  0.65500  1.0000
  O   O25       1.0  0.92500  0.35900  0.84500  1.0000
  O   O26       1.0  0.94500  0.10600  0.85000  1.0000
  O   O27       1.0  0.27900  0.34500  0.85900  1.0000
  O   O28       1.0  0.58700  0.89500  0.86000  1.0000
  O   O29       1.0  0.55500  0.15000  0.89400  1.0000
  O   O30       1.0  0.08700  0.86000  0.89500  1.0000
  O   O31       1.0  0.75000  0.56000  0.92100  1.0000
  O   O32       1.0  0.26900  0.57900  0.94000  1.0000
  P   P1        1.0  0.81700  0.56700  0.06700  1.0000
  P   P2        1.0  0.68300  0.93300  0.43300  1.0000
  P   P3        1.0  0.31700  0.06700  0.56700  1.0000
  P   P4        1.0  0.18300  0.43300  0.93300  1.0000
