data_image0
_chemical_formula_structural       Cl20H12Ir4K8N4
_chemical_formula_sum              "Cl20 H12 Ir4 K8 N4"
_cell_length_a       13.6394
_cell_length_b       9.96978
_cell_length_c       7.18948
_cell_angle_alpha    90
_cell_angle_beta     90
_cell_angle_gamma    90

_space_group_name_H-M_alt    "P 1"
_space_group_IT_number       1

loop_
  _space_group_symop_operation_xyz
  'x, y, z'

loop_
  _atom_site_type_symbol
  _atom_site_label
  _atom_site_symmetry_multiplicity
  _atom_site_fract_x
  _atom_site_fract_y
  _atom_site_fract_z
  _atom_site_occupancy
  Cl  Cl1       1.0  0.50600  0.25000  0.05030  1.0000
  Cl  Cl2       1.0  0.78700  0.75000  0.08220  1.0000
  Cl  Cl3       1.0  0.75300  0.25000  0.11400  1.0000
  Cl  Cl4       1.0  0.11000  0.01270  0.18600  1.0000
  Cl  Cl5       1.0  0.11000  0.48700  0.18600  1.0000
  Cl  Cl6       1.0  0.61000  0.01270  0.31400  1.0000
  Cl  Cl7       1.0  0.61000  0.48700  0.31400  1.0000
  Cl  Cl8       1.0  0.25300  0.25000  0.38600  1.0000
  Cl  Cl9       1.0  0.28700  0.75000  0.41800  1.0000
  Cl  Cl10      1.0  0.00578  0.25000  0.45000  1.0000
  Cl  Cl11      1.0  0.99400  0.75000  0.55000  1.0000
  Cl  Cl12      1.0  0.71300  0.25000  0.58200  1.0000
  Cl  Cl13      1.0  0.74700  0.75000  0.61400  1.0000
  Cl  Cl14      1.0  0.39000  0.51300  0.68600  1.0000
  Cl  Cl15      1.0  0.39000  0.98700  0.68600  1.0000
  Cl  Cl16      1.0  0.89000  0.51300  0.81400  1.0000
  Cl  Cl17      1.0  0.89000  0.98700  0.81400  1.0000
  Cl  Cl18      1.0  0.24700  0.75000  0.88600  1.0000
  Cl  Cl19      1.0  0.21300  0.25000  0.91800  1.0000
  Cl  Cl20      1.0  0.49400  0.75000  0.95000  1.0000
  H   H1        1.0  0.00956  0.66600  0.07310  1.0000
  H   H2        1.0  0.00956  0.83400  0.07310  1.0000
  H   H3        1.0  0.92600  0.25000  0.08180  1.0000
  H   H4        1.0  0.42600  0.25000  0.41800  1.0000
  H   H5        1.0  0.51000  0.66600  0.42700  1.0000
  H   H6        1.0  0.51000  0.83400  0.42700  1.0000
  H   H7        1.0  0.49000  0.16600  0.57300  1.0000
  H   H8        1.0  0.49000  0.33400  0.57300  1.0000
  H   H9        1.0  0.57400  0.75000  0.58200  1.0000
  H   H10       1.0  0.07400  0.75000  0.91800  1.0000
  H   H11       1.0  0.99000  0.16600  0.92700  1.0000
  H   H12       1.0  0.99000  0.33400  0.92700  1.0000
  Ir  Ir1       1.0  0.11200  0.25000  0.18600  1.0000
  Ir  Ir2       1.0  0.61200  0.25000  0.31400  1.0000
  Ir  Ir3       1.0  0.38800  0.75000  0.68600  1.0000
  Ir  Ir4       1.0  0.88800  0.75000  0.81400  1.0000
  K   K1        1.0  0.34500  0.50000  0.12200  1.0000
  K   K2        1.0  0.34500  0.00000  0.12200  1.0000
  K   K3        1.0  0.84500  0.50000  0.37800  1.0000
  K   K4        1.0  0.84500  0.00000  0.37800  1.0000
  K   K5        1.0  0.15500  0.00012  0.62200  1.0000
  K   K6        1.0  0.15500  0.50000  0.62200  1.0000
  K   K7        1.0  0.65500  0.00012  0.87800  1.0000
  K   K8        1.0  0.65500  0.50000  0.87800  1.0000
  N   N1        1.0  0.99200  0.25000  0.01080  1.0000
  N   N2        1.0  0.49200  0.25000  0.48900  1.0000
  N   N3        1.0  0.50800  0.75000  0.51100  1.0000
  N   N4        1.0  0.00823  0.75000  0.98900  1.0000
