data_image0
_chemical_formula_structural       Ca6Cr6O32P8
_chemical_formula_sum              "Ca6 Cr6 O32 P8"
_cell_length_a       8.95693
_cell_length_b       8.96374
_cell_length_c       9.82472
_cell_angle_alpha    104.814
_cell_angle_beta     106.092
_cell_angle_gamma    110.357

_space_group_name_H-M_alt    "P 1"
_space_group_IT_number       1

loop_
  _space_group_symop_operation_xyz
  'x, y, z'

loop_
  _atom_site_type_symbol
  _atom_site_label
  _atom_site_symmetry_multiplicity
  _atom_site_fract_x
  _atom_site_fract_y
  _atom_site_fract_z
  _atom_site_occupancy
  Ca  Ca1       1.0  0.47800  0.00317  0.19600  1.0000
  Ca  Ca2       1.0  0.67800  0.65000  0.21200  1.0000
  Ca  Ca3       1.0  0.27800  0.28800  0.29300  1.0000
  Ca  Ca4       1.0  0.72200  0.71200  0.70700  1.0000
  Ca  Ca5       1.0  0.32200  0.35000  0.78800  1.0000
  Ca  Ca6       1.0  0.52200  0.99700  0.80400  1.0000
  Cr  Cr1       1.0  0.05140  0.80700  0.12100  1.0000
  Cr  Cr2       1.0  0.05320  0.51600  0.27100  1.0000
  Cr  Cr3       1.0  0.94400  0.19000  0.41900  1.0000
  Cr  Cr4       1.0  0.05630  0.81000  0.58100  1.0000
  Cr  Cr5       1.0  0.94700  0.48400  0.72900  1.0000
  Cr  Cr6       1.0  0.94900  0.19300  0.87900  1.0000
  O   O1        1.0  0.41000  0.57900  0.03500  1.0000
  O   O2        1.0  0.63000  0.96800  0.05010  1.0000
  O   O3        1.0  0.17200  0.02470  0.08260  1.0000
  O   O4        1.0  0.24100  0.73900  0.10400  1.0000
  O   O5        1.0  0.91200  0.56300  0.10500  1.0000
  O   O6        1.0  0.84200  0.84700  0.12200  1.0000
  O   O7        1.0  0.21300  0.47400  0.16800  1.0000
  O   O8        1.0  0.95800  0.17100  0.20300  1.0000
  O   O9        1.0  0.55700  0.40600  0.29000  1.0000
  O   O10       1.0  0.62400  0.88600  0.34300  1.0000
  O   O11       1.0  0.73600  0.24400  0.35000  1.0000
  O   O12       1.0  0.88000  0.54600  0.36100  1.0000
  O   O13       1.0  0.37800  0.10200  0.38900  1.0000
  O   O14       1.0  0.13000  0.87100  0.40800  1.0000
  O   O15       1.0  0.23200  0.50200  0.43900  1.0000
  O   O16       1.0  0.18000  0.18600  0.48600  1.0000
  O   O17       1.0  0.82000  0.81400  0.51400  1.0000
  O   O18       1.0  0.76800  0.49800  0.56100  1.0000
  O   O19       1.0  0.87000  0.12900  0.59200  1.0000
  O   O20       1.0  0.62200  0.89800  0.61100  1.0000
  O   O21       1.0  0.12000  0.45400  0.63900  1.0000
  O   O22       1.0  0.26400  0.75600  0.65000  1.0000
  O   O23       1.0  0.37600  0.11400  0.65700  1.0000
  O   O24       1.0  0.44300  0.59400  0.71000  1.0000
  O   O25       1.0  0.04230  0.82900  0.79700  1.0000
  O   O26       1.0  0.78700  0.52600  0.83200  1.0000
  O   O27       1.0  0.15800  0.15300  0.87800  1.0000
  O   O28       1.0  0.08850  0.43700  0.89500  1.0000
  O   O29       1.0  0.75900  0.26100  0.89600  1.0000
  O   O30       1.0  0.82800  0.97500  0.91700  1.0000
  O   O31       1.0  0.37000  0.03230  0.95000  1.0000
  O   O32       1.0  0.59000  0.42100  0.96500  1.0000
  P   P1        1.0  0.24500  0.56300  0.05580  1.0000
  P   P2        1.0  0.81300  0.99200  0.07590  1.0000
  P   P3        1.0  0.73200  0.41900  0.38900  1.0000
  P   P4        1.0  0.27100  0.06390  0.48500  1.0000
  P   P5        1.0  0.72900  0.93600  0.51500  1.0000
  P   P6        1.0  0.26800  0.58100  0.61100  1.0000
  P   P7        1.0  0.18700  0.00820  0.92400  1.0000
  P   P8        1.0  0.75500  0.43700  0.94400  1.0000
