data_image0
_chemical_formula_structural       Ba7CuF34Fe6
_chemical_formula_sum              "Ba7 Cu1 F34 Fe6"
_cell_length_a       7.46626
_cell_length_b       10.0225
_cell_length_c       10.0225
_cell_angle_alpha    67.4661
_cell_angle_beta     99.3414
_cell_angle_gamma    99.3414

_space_group_name_H-M_alt    "P 1"
_space_group_IT_number       1

loop_
  _space_group_symop_operation_xyz
  'x, y, z'

loop_
  _atom_site_type_symbol
  _atom_site_label
  _atom_site_symmetry_multiplicity
  _atom_site_fract_x
  _atom_site_fract_y
  _atom_site_fract_z
  _atom_site_occupancy
  Ba  Ba1       1.0  0.00000  0.00000  0.00000  1.0000
  Ba  Ba2       1.0  0.69700  0.56100  0.15900  1.0000
  Ba  Ba3       1.0  0.13900  0.26800  0.26800  1.0000
  Ba  Ba4       1.0  0.30300  0.84100  0.43900  1.0000
  Ba  Ba5       1.0  0.69700  0.15900  0.56100  1.0000
  Ba  Ba6       1.0  0.86100  0.73200  0.73200  1.0000
  Ba  Ba7       1.0  0.30300  0.43900  0.84100  1.0000
  Cu  Cu1       1.0  0.50000  0.50000  0.50000  1.0000
  F   F1        1.0  0.00478  0.26600  0.00494  1.0000
  F   F2        1.0  0.40000  0.77300  0.02660  1.0000
  F   F3        1.0  0.19100  0.52200  0.03280  1.0000
  F   F4        1.0  0.30000  0.11100  0.11100  1.0000
  F   F5        1.0  0.45200  0.35900  0.12100  1.0000
  F   F6        1.0  0.80200  0.79500  0.20000  1.0000
  F   F7        1.0  0.19800  0.80000  0.20500  1.0000
  F   F8        1.0  0.60000  0.97300  0.22700  1.0000
  F   F9        1.0  0.76800  0.25400  0.25400  1.0000
  F   F10       1.0  0.02900  0.51100  0.26400  1.0000
  F   F11       1.0  0.00478  0.00494  0.26600  1.0000
  F   F12       1.0  0.38900  0.54300  0.28300  1.0000
  F   F13       1.0  0.45200  0.12100  0.35900  1.0000
  F   F14       1.0  0.69900  0.44700  0.44700  1.0000
  F   F15       1.0  0.61100  0.71700  0.45700  1.0000
  F   F16       1.0  0.80900  0.96700  0.47800  1.0000
  F   F17       1.0  0.97100  0.73600  0.48900  1.0000
  F   F18       1.0  0.02900  0.26400  0.51100  1.0000
  F   F19       1.0  0.19100  0.03280  0.52200  1.0000
  F   F20       1.0  0.38900  0.28300  0.54300  1.0000
  F   F21       1.0  0.30100  0.55300  0.55300  1.0000
  F   F22       1.0  0.54800  0.87900  0.64100  1.0000
  F   F23       1.0  0.61100  0.45700  0.71700  1.0000
  F   F24       1.0  0.99500  0.99500  0.73400  1.0000
  F   F25       1.0  0.97100  0.48900  0.73600  1.0000
  F   F26       1.0  0.23200  0.74600  0.74600  1.0000
  F   F27       1.0  0.40000  0.02660  0.77300  1.0000
  F   F28       1.0  0.80200  0.20000  0.79500  1.0000
  F   F29       1.0  0.19800  0.20500  0.80000  1.0000
  F   F30       1.0  0.54800  0.64100  0.87900  1.0000
  F   F31       1.0  0.70000  0.88900  0.88900  1.0000
  F   F32       1.0  0.80900  0.47800  0.96700  1.0000
  F   F33       1.0  0.60000  0.22700  0.97300  1.0000
  F   F34       1.0  0.99500  0.73400  0.99500  1.0000
  Fe  Fe1       1.0  0.19500  0.64600  0.13700  1.0000
  Fe  Fe2       1.0  0.54500  0.17200  0.17200  1.0000
  Fe  Fe3       1.0  0.80500  0.86300  0.35400  1.0000
  Fe  Fe4       1.0  0.19500  0.13700  0.64600  1.0000
  Fe  Fe5       1.0  0.45500  0.82800  0.82800  1.0000
  Fe  Fe6       1.0  0.80500  0.35400  0.86300  1.0000
