data_image0
_chemical_formula_structural       Er4H4O32S8
_chemical_formula_sum              "Er4 H4 O32 S8"
_cell_length_a       5.37683
_cell_length_b       10.5645
_cell_length_c       10.3476
_cell_angle_alpha    90
_cell_angle_beta     105.05
_cell_angle_gamma    90

_space_group_name_H-M_alt    "P 1"
_space_group_IT_number       1

loop_
  _space_group_symop_operation_xyz
  'x, y, z'

loop_
  _atom_site_type_symbol
  _atom_site_label
  _atom_site_symmetry_multiplicity
  _atom_site_fract_x
  _atom_site_fract_y
  _atom_site_fract_z
  _atom_site_occupancy
  Er  Er1       1.0  0.89100  0.83600  0.15200  1.0000
  Er  Er2       1.0  0.60900  0.33600  0.34800  1.0000
  Er  Er3       1.0  0.39100  0.66400  0.65200  1.0000
  Er  Er4       1.0  0.10900  0.16400  0.84800  1.0000
  H   H1        1.0  0.25300  0.51300  0.10700  1.0000
  H   H2        1.0  0.24700  0.01300  0.39300  1.0000
  H   H3        1.0  0.75300  0.98700  0.60700  1.0000
  H   H4        1.0  0.74700  0.48700  0.89300  1.0000
  O   O1        1.0  0.90700  0.24200  0.00232  1.0000
  O   O2        1.0  0.25300  0.53800  0.01270  1.0000
  O   O3        1.0  0.26400  0.06230  0.04170  1.0000
  O   O4        1.0  0.54100  0.71400  0.10800  1.0000
  O   O5        1.0  0.62200  0.31500  0.13100  1.0000
  O   O6        1.0  0.65900  0.00065  0.20000  1.0000
  O   O7        1.0  0.10800  0.66200  0.23800  1.0000
  O   O8        1.0  0.24500  0.95000  0.24200  1.0000
  O   O9        1.0  0.25500  0.45000  0.25800  1.0000
  O   O10       1.0  0.39200  0.16200  0.26200  1.0000
  O   O11       1.0  0.84100  0.50100  0.30000  1.0000
  O   O12       1.0  0.87800  0.81500  0.36900  1.0000
  O   O13       1.0  0.95900  0.21400  0.39200  1.0000
  O   O14       1.0  0.23600  0.56200  0.45800  1.0000
  O   O15       1.0  0.24700  0.03850  0.48700  1.0000
  O   O16       1.0  0.59300  0.74200  0.49800  1.0000
  O   O17       1.0  0.40700  0.25800  0.50200  1.0000
  O   O18       1.0  0.75300  0.96200  0.51300  1.0000
  O   O19       1.0  0.76400  0.43800  0.54200  1.0000
  O   O20       1.0  0.04060  0.78600  0.60800  1.0000
  O   O21       1.0  0.12200  0.18500  0.63100  1.0000
  O   O22       1.0  0.15900  0.49900  0.70000  1.0000
  O   O23       1.0  0.60800  0.83800  0.73800  1.0000
  O   O24       1.0  0.74500  0.55000  0.74200  1.0000
  O   O25       1.0  0.75500  0.05010  0.75800  1.0000
  O   O26       1.0  0.89200  0.33800  0.76200  1.0000
  O   O27       1.0  0.34100  0.99900  0.80000  1.0000
  O   O28       1.0  0.37800  0.68500  0.86900  1.0000
  O   O29       1.0  0.45900  0.28600  0.89200  1.0000
  O   O30       1.0  0.73600  0.93800  0.95800  1.0000
  O   O31       1.0  0.74700  0.46200  0.98700  1.0000
  O   O32       1.0  0.09280  0.75800  0.99800  1.0000
  S   S1        1.0  0.68300  0.32000  0.00285  1.0000
  S   S2        1.0  0.39500  0.04570  0.18400  1.0000
  S   S3        1.0  0.10500  0.54600  0.31600  1.0000
  S   S4        1.0  0.81700  0.82000  0.49700  1.0000
  S   S5        1.0  0.18300  0.18000  0.50300  1.0000
  S   S6        1.0  0.89500  0.45400  0.68400  1.0000
  S   S7        1.0  0.60500  0.95400  0.81600  1.0000
  S   S8        1.0  0.31700  0.68000  0.99700  1.0000
