data_image0
_chemical_formula_structural       As8Cl6Nd10O24
_chemical_formula_sum              "As8 Cl6 Nd10 O24"
_cell_length_a       10.2252
_cell_length_b       5.43868
_cell_length_c       13.9609
_cell_angle_alpha    90
_cell_angle_beta     93.0096
_cell_angle_gamma    90

_space_group_name_H-M_alt    "P 1"
_space_group_IT_number       1

loop_
  _space_group_symop_operation_xyz
  'x, y, z'

loop_
  _atom_site_type_symbol
  _atom_site_label
  _atom_site_symmetry_multiplicity
  _atom_site_fract_x
  _atom_site_fract_y
  _atom_site_fract_z
  _atom_site_occupancy
  As  As1       1.0  0.91200  0.26000  0.13600  1.0000
  As  As2       1.0  0.38900  0.76200  0.15300  1.0000
  As  As3       1.0  0.11100  0.76200  0.34700  1.0000
  As  As4       1.0  0.58800  0.26000  0.36400  1.0000
  As  As5       1.0  0.41200  0.74000  0.63600  1.0000
  As  As6       1.0  0.88900  0.23800  0.65300  1.0000
  As  As7       1.0  0.61100  0.23800  0.84700  1.0000
  As  As8       1.0  0.08770  0.74000  0.86400  1.0000
  Cl  Cl1       1.0  0.07680  0.75300  0.08470  1.0000
  Cl  Cl2       1.0  0.25000  0.25200  0.25000  1.0000
  Cl  Cl3       1.0  0.42300  0.75300  0.41500  1.0000
  Cl  Cl4       1.0  0.57700  0.24700  0.58500  1.0000
  Cl  Cl5       1.0  0.75000  0.74800  0.75000  1.0000
  Cl  Cl6       1.0  0.92300  0.24700  0.91500  1.0000
  Nd  Nd1       1.0  0.19100  0.25600  0.03360  1.0000
  Nd  Nd2       1.0  0.58000  0.23600  0.08500  1.0000
  Nd  Nd3       1.0  0.75000  0.70700  0.25000  1.0000
  Nd  Nd4       1.0  0.92000  0.23600  0.41500  1.0000
  Nd  Nd5       1.0  0.30900  0.25600  0.46600  1.0000
  Nd  Nd6       1.0  0.69100  0.74400  0.53400  1.0000
  Nd  Nd7       1.0  0.08020  0.76400  0.58500  1.0000
  Nd  Nd8       1.0  0.25000  0.29300  0.75000  1.0000
  Nd  Nd9       1.0  0.42000  0.76400  0.91500  1.0000
  Nd  Nd10      1.0  0.80900  0.74400  0.96600  1.0000
  O   O1        1.0  0.36800  0.00000  0.05610  1.0000
  O   O2        1.0  0.38900  0.51000  0.06490  1.0000
  O   O3        1.0  0.78700  0.48500  0.09600  1.0000
  O   O4        1.0  0.80300  0.00373  0.12000  1.0000
  O   O5        1.0  0.56100  0.82600  0.15700  1.0000
  O   O6        1.0  0.60100  0.34700  0.24300  1.0000
  O   O7        1.0  0.89900  0.34700  0.25700  1.0000
  O   O8        1.0  0.93900  0.82600  0.34300  1.0000
  O   O9        1.0  0.69700  0.00373  0.38000  1.0000
  O   O10       1.0  0.71200  0.48500  0.40400  1.0000
  O   O11       1.0  0.11100  0.51000  0.43500  1.0000
  O   O12       1.0  0.13200  0.00000  0.44400  1.0000
  O   O13       1.0  0.86800  0.00025  0.55600  1.0000
  O   O14       1.0  0.88900  0.49000  0.56500  1.0000
  O   O15       1.0  0.28800  0.51500  0.59600  1.0000
  O   O16       1.0  0.30300  0.99600  0.62000  1.0000
  O   O17       1.0  0.06090  0.17400  0.65700  1.0000
  O   O18       1.0  0.10100  0.65300  0.74300  1.0000
  O   O19       1.0  0.39900  0.65300  0.75700  1.0000
  O   O20       1.0  0.43900  0.17400  0.84300  1.0000
  O   O21       1.0  0.19700  0.99600  0.88000  1.0000
  O   O22       1.0  0.21300  0.51500  0.90400  1.0000
  O   O23       1.0  0.61100  0.49000  0.93500  1.0000
  O   O24       1.0  0.63200  0.00025  0.94400  1.0000
