data_image0
_chemical_formula_structural       Fe2La10O34Ti8
_chemical_formula_sum              "Fe2 La10 O34 Ti8"
_cell_length_a       3.94207
_cell_length_b       30.9705
_cell_length_c       5.50515
_cell_angle_alpha    90
_cell_angle_beta     90
_cell_angle_gamma    90

_space_group_name_H-M_alt    "P 1"
_space_group_IT_number       1

loop_
  _space_group_symop_operation_xyz
  'x, y, z'

loop_
  _atom_site_type_symbol
  _atom_site_label
  _atom_site_symmetry_multiplicity
  _atom_site_fract_x
  _atom_site_fract_y
  _atom_site_fract_z
  _atom_site_occupancy
  Fe  Fe1       1.0  0.50000  0.50000  0.00000  1.0000
  Fe  Fe2       1.0  0.00000  0.00000  0.50000  1.0000
  La  La1       1.0  0.50000  0.00000  0.00000  1.0000
  La  La2       1.0  0.00000  0.59000  0.01550  1.0000
  La  La3       1.0  0.50000  0.21100  0.06110  1.0000
  La  La4       1.0  0.00000  0.71100  0.43900  1.0000
  La  La5       1.0  0.50000  0.08990  0.48500  1.0000
  La  La6       1.0  0.00000  0.50000  0.50000  1.0000
  La  La7       1.0  0.50000  0.91000  0.51500  1.0000
  La  La8       1.0  0.00000  0.28900  0.56100  1.0000
  La  La9       1.0  0.50000  0.78900  0.93900  1.0000
  La  La10      1.0  0.00000  0.41000  0.98500  1.0000
  O   O1        1.0  0.00000  0.50000  0.00000  1.0000
  O   O2        1.0  0.00000  0.67100  0.00385  1.0000
  O   O3        1.0  0.50000  0.91500  0.00603  1.0000
  O   O4        1.0  0.50000  0.38000  0.18500  1.0000
  O   O5        1.0  0.50000  0.72500  0.19500  1.0000
  O   O6        1.0  0.00000  0.14000  0.19700  1.0000
  O   O7        1.0  0.00000  0.96500  0.19800  1.0000
  O   O8        1.0  0.00000  0.78700  0.20500  1.0000
  O   O9        1.0  0.50000  0.55400  0.20900  1.0000
  O   O10       1.0  0.00000  0.05350  0.29100  1.0000
  O   O11       1.0  0.50000  0.28700  0.29500  1.0000
  O   O12       1.0  0.50000  0.46500  0.30200  1.0000
  O   O13       1.0  0.50000  0.64000  0.30300  1.0000
  O   O14       1.0  0.00000  0.22500  0.30500  1.0000
  O   O15       1.0  0.00000  0.88000  0.31500  1.0000
  O   O16       1.0  0.00000  0.41500  0.49400  1.0000
  O   O17       1.0  0.50000  0.17100  0.49600  1.0000
  O   O18       1.0  0.50000  0.00000  0.50000  1.0000
  O   O19       1.0  0.50000  0.82900  0.50400  1.0000
  O   O20       1.0  0.00000  0.58500  0.50600  1.0000
  O   O21       1.0  0.00000  0.12000  0.68500  1.0000
  O   O22       1.0  0.00000  0.77500  0.69500  1.0000
  O   O23       1.0  0.50000  0.36000  0.69700  1.0000
  O   O24       1.0  0.50000  0.53500  0.69800  1.0000
  O   O25       1.0  0.50000  0.71300  0.70500  1.0000
  O   O26       1.0  0.00000  0.94600  0.70900  1.0000
  O   O27       1.0  0.50000  0.44600  0.79100  1.0000
  O   O28       1.0  0.00000  0.21300  0.79500  1.0000
  O   O29       1.0  0.00000  0.03520  0.80200  1.0000
  O   O30       1.0  0.00000  0.86000  0.80300  1.0000
  O   O31       1.0  0.50000  0.27500  0.80500  1.0000
  O   O32       1.0  0.50000  0.62000  0.81500  1.0000
  O   O33       1.0  0.50000  0.08480  0.99400  1.0000
  O   O34       1.0  0.00000  0.32900  0.99600  1.0000
  Ti  Ti1       1.0  0.00000  0.90800  0.00349  1.0000
  Ti  Ti2       1.0  0.50000  0.32200  0.02350  1.0000
  Ti  Ti3       1.0  0.00000  0.82200  0.47600  1.0000
  Ti  Ti4       1.0  0.50000  0.40800  0.49700  1.0000
  Ti  Ti5       1.0  0.50000  0.59200  0.50300  1.0000
  Ti  Ti6       1.0  0.00000  0.17800  0.52400  1.0000
  Ti  Ti7       1.0  0.50000  0.67800  0.97600  1.0000
  Ti  Ti8       1.0  0.00000  0.09210  0.99700  1.0000
