data_image0
_chemical_formula_structural       C20Cl4O20Tc4
_chemical_formula_sum              "C20 Cl4 O20 Tc4"
_cell_length_a       11.3168
_cell_length_b       11.4098
_cell_length_c       5.81309
_cell_angle_alpha    90
_cell_angle_beta     90
_cell_angle_gamma    90

_space_group_name_H-M_alt    "P 1"
_space_group_IT_number       1

loop_
  _space_group_symop_operation_xyz
  'x, y, z'

loop_
  _atom_site_type_symbol
  _atom_site_label
  _atom_site_symmetry_multiplicity
  _atom_site_fract_x
  _atom_site_fract_y
  _atom_site_fract_z
  _atom_site_occupancy
  C   C1        1.0  0.22700  0.62500  0.08570  1.0000
  C   C2        1.0  0.22700  0.87500  0.08570  1.0000
  C   C3        1.0  0.97400  0.12400  0.19600  1.0000
  C   C4        1.0  0.97400  0.37600  0.19600  1.0000
  C   C5        1.0  0.02490  0.75000  0.21200  1.0000
  C   C6        1.0  0.52500  0.75000  0.28800  1.0000
  C   C7        1.0  0.47400  0.12400  0.30400  1.0000
  C   C8        1.0  0.47400  0.37600  0.30400  1.0000
  C   C9        1.0  0.72700  0.62500  0.41400  1.0000
  C   C10       1.0  0.72700  0.87500  0.41400  1.0000
  C   C11       1.0  0.27300  0.12500  0.58600  1.0000
  C   C12       1.0  0.27300  0.37500  0.58600  1.0000
  C   C13       1.0  0.52600  0.62400  0.69600  1.0000
  C   C14       1.0  0.52600  0.87600  0.69600  1.0000
  C   C15       1.0  0.47500  0.25000  0.71200  1.0000
  C   C16       1.0  0.97500  0.25000  0.78800  1.0000
  C   C17       1.0  0.02620  0.62400  0.80400  1.0000
  C   C18       1.0  0.02620  0.87600  0.80400  1.0000
  C   C19       1.0  0.77300  0.12500  0.91400  1.0000
  C   C20       1.0  0.77300  0.37500  0.91400  1.0000
  Cl  Cl1       1.0  0.24400  0.25000  0.10200  1.0000
  Cl  Cl2       1.0  0.74400  0.25000  0.39800  1.0000
  Cl  Cl3       1.0  0.25600  0.75000  0.60200  1.0000
  Cl  Cl4       1.0  0.75600  0.75000  0.89800  1.0000
  O   O1        1.0  0.46300  0.75000  0.12800  1.0000
  O   O2        1.0  0.28400  0.55200  0.16500  1.0000
  O   O3        1.0  0.28400  0.94800  0.16500  1.0000
  O   O4        1.0  0.52900  0.04800  0.23100  1.0000
  O   O5        1.0  0.52900  0.45200  0.23100  1.0000
  O   O6        1.0  0.02920  0.04800  0.26900  1.0000
  O   O7        1.0  0.02920  0.45200  0.26900  1.0000
  O   O8        1.0  0.78400  0.55200  0.33500  1.0000
  O   O9        1.0  0.78400  0.94800  0.33500  1.0000
  O   O10       1.0  0.96300  0.75000  0.37200  1.0000
  O   O11       1.0  0.03710  0.25000  0.62800  1.0000
  O   O12       1.0  0.21600  0.05190  0.66500  1.0000
  O   O13       1.0  0.21600  0.44800  0.66500  1.0000
  O   O14       1.0  0.97100  0.54800  0.73100  1.0000
  O   O15       1.0  0.97100  0.95200  0.73100  1.0000
  O   O16       1.0  0.47100  0.54800  0.76900  1.0000
  O   O17       1.0  0.47100  0.95200  0.76900  1.0000
  O   O18       1.0  0.71600  0.05190  0.83500  1.0000
  O   O19       1.0  0.71600  0.44800  0.83500  1.0000
  O   O20       1.0  0.53700  0.25000  0.87200  1.0000
  Tc  Tc1       1.0  0.87500  0.25000  0.05340  1.0000
  Tc  Tc2       1.0  0.37500  0.25000  0.44700  1.0000
  Tc  Tc3       1.0  0.62500  0.75000  0.55300  1.0000
  Tc  Tc4       1.0  0.12500  0.75000  0.94700  1.0000
