data_image0
_chemical_formula_structural       Ba8In16Se32
_chemical_formula_sum              "Ba8 In16 Se32"
_cell_length_a       13.3112
_cell_length_b       13.3112
_cell_length_c       13.4286
_cell_angle_alpha    105.321
_cell_angle_beta     105.321
_cell_angle_gamma    117.833

_space_group_name_H-M_alt    "P 1"
_space_group_IT_number       1

loop_
  _space_group_symop_operation_xyz
  'x, y, z'

loop_
  _atom_site_type_symbol
  _atom_site_label
  _atom_site_symmetry_multiplicity
  _atom_site_fract_x
  _atom_site_fract_y
  _atom_site_fract_z
  _atom_site_occupancy
  Ba  Ba1       1.0  0.87300  0.62300  0.24500  1.0000
  Ba  Ba2       1.0  0.87500  0.12500  0.25000  1.0000
  Ba  Ba3       1.0  0.37500  0.62500  0.25000  1.0000
  Ba  Ba4       1.0  0.37700  0.12700  0.25500  1.0000
  Ba  Ba5       1.0  0.62300  0.87300  0.74500  1.0000
  Ba  Ba6       1.0  0.62500  0.37500  0.75000  1.0000
  Ba  Ba7       1.0  0.12500  0.87500  0.75000  1.0000
  Ba  Ba8       1.0  0.12700  0.37700  0.75500  1.0000
  In  In1       1.0  0.46700  0.35900  0.00034  1.0000
  In  In2       1.0  0.03290  0.64100  0.00034  1.0000
  In  In3       1.0  0.11300  0.13700  0.00122  1.0000
  In  In4       1.0  0.38800  0.86400  0.00122  1.0000
  In  In5       1.0  0.13600  0.61200  0.49900  1.0000
  In  In6       1.0  0.86300  0.88700  0.49900  1.0000
  In  In7       1.0  0.64100  0.53300  0.50000  1.0000
  In  In8       1.0  0.35900  0.96700  0.50000  1.0000
  In  In9       1.0  0.64100  0.03290  0.50000  1.0000
  In  In10      1.0  0.35900  0.46700  0.50000  1.0000
  In  In11      1.0  0.13700  0.11300  0.50100  1.0000
  In  In12      1.0  0.86400  0.38800  0.50100  1.0000
  In  In13      1.0  0.61200  0.13600  0.99900  1.0000
  In  In14      1.0  0.88700  0.86300  0.99900  1.0000
  In  In15      1.0  0.96700  0.35900  0.00000  1.0000
  In  In16      1.0  0.53300  0.64100  0.00000  1.0000
  Se  Se1       1.0  0.16300  0.34900  0.00240  1.0000
  Se  Se2       1.0  0.33900  0.65300  0.00240  1.0000
  Se  Se3       1.0  0.31900  0.14800  0.00279  1.0000
  Se  Se4       1.0  0.18400  0.85400  0.00279  1.0000
  Se  Se5       1.0  0.08550  0.08500  0.17300  1.0000
  Se  Se6       1.0  0.58800  0.08820  0.17300  1.0000
  Se  Se7       1.0  0.08600  0.58600  0.17400  1.0000
  Se  Se8       1.0  0.58800  0.58800  0.17400  1.0000
  Se  Se9       1.0  0.41200  0.41200  0.32600  1.0000
  Se  Se10      1.0  0.41400  0.91400  0.32600  1.0000
  Se  Se11      1.0  0.91200  0.41200  0.32700  1.0000
  Se  Se12      1.0  0.91500  0.91400  0.32700  1.0000
  Se  Se13      1.0  0.85200  0.68100  0.49700  1.0000
  Se  Se14      1.0  0.14600  0.81600  0.49700  1.0000
  Se  Se15      1.0  0.34700  0.66100  0.49800  1.0000
  Se  Se16      1.0  0.65100  0.83700  0.49800  1.0000
  Se  Se17      1.0  0.34900  0.16300  0.50200  1.0000
  Se  Se18      1.0  0.65300  0.33900  0.50200  1.0000
  Se  Se19      1.0  0.85400  0.18400  0.50300  1.0000
  Se  Se20      1.0  0.14800  0.31900  0.50300  1.0000
  Se  Se21      1.0  0.08500  0.08550  0.67300  1.0000
  Se  Se22      1.0  0.08820  0.58800  0.67300  1.0000
  Se  Se23      1.0  0.58600  0.08600  0.67400  1.0000
  Se  Se24      1.0  0.58800  0.58800  0.67400  1.0000
  Se  Se25      1.0  0.41200  0.41200  0.82600  1.0000
  Se  Se26      1.0  0.91400  0.41400  0.82600  1.0000
  Se  Se27      1.0  0.41200  0.91200  0.82700  1.0000
  Se  Se28      1.0  0.91400  0.91500  0.82700  1.0000
  Se  Se29      1.0  0.81600  0.14600  0.99700  1.0000
  Se  Se30      1.0  0.68100  0.85200  0.99700  1.0000
  Se  Se31      1.0  0.66100  0.34700  0.99800  1.0000
  Se  Se32      1.0  0.83700  0.65100  0.99800  1.0000
