data_image0
_chemical_formula_structural       Ba32P24
_chemical_formula_sum              "Ba32 P24"
_cell_length_a       13.454
_cell_length_b       12.6813
_cell_length_c       11.3625
_cell_angle_alpha    90
_cell_angle_beta     90
_cell_angle_gamma    90

_space_group_name_H-M_alt    "P 1"
_space_group_IT_number       1

loop_
  _space_group_symop_operation_xyz
  'x, y, z'

loop_
  _atom_site_type_symbol
  _atom_site_label
  _atom_site_symmetry_multiplicity
  _atom_site_fract_x
  _atom_site_fract_y
  _atom_site_fract_z
  _atom_site_occupancy
  Ba  Ba1       1.0  0.70600  0.10700  0.00000  1.0000
  Ba  Ba2       1.0  0.41900  0.22500  0.00000  1.0000
  Ba  Ba3       1.0  0.91900  0.27500  0.00000  1.0000
  Ba  Ba4       1.0  0.20600  0.39300  0.00000  1.0000
  Ba  Ba5       1.0  0.79400  0.60700  0.00000  1.0000
  Ba  Ba6       1.0  0.08060  0.72500  0.00000  1.0000
  Ba  Ba7       1.0  0.58100  0.77500  0.00000  1.0000
  Ba  Ba8       1.0  0.29400  0.89300  0.00000  1.0000
  Ba  Ba9       1.0  0.00000  0.00000  0.18100  1.0000
  Ba  Ba10      1.0  0.50000  0.50000  0.18100  1.0000
  Ba  Ba11      1.0  0.26300  0.09900  0.28400  1.0000
  Ba  Ba12      1.0  0.76300  0.40100  0.28400  1.0000
  Ba  Ba13      1.0  0.23700  0.59900  0.28400  1.0000
  Ba  Ba14      1.0  0.73700  0.90100  0.28400  1.0000
  Ba  Ba15      1.0  0.56800  0.16900  0.31900  1.0000
  Ba  Ba16      1.0  0.06800  0.33100  0.31900  1.0000
  Ba  Ba17      1.0  0.93200  0.66900  0.31900  1.0000
  Ba  Ba18      1.0  0.43200  0.83100  0.31900  1.0000
  Ba  Ba19      1.0  0.87400  0.12100  0.50000  1.0000
  Ba  Ba20      1.0  0.37400  0.37900  0.50000  1.0000
  Ba  Ba21      1.0  0.62600  0.62100  0.50000  1.0000
  Ba  Ba22      1.0  0.12600  0.87900  0.50000  1.0000
  Ba  Ba23      1.0  0.56800  0.16900  0.68100  1.0000
  Ba  Ba24      1.0  0.06800  0.33100  0.68100  1.0000
  Ba  Ba25      1.0  0.93200  0.66900  0.68100  1.0000
  Ba  Ba26      1.0  0.43200  0.83100  0.68100  1.0000
  Ba  Ba27      1.0  0.26300  0.09900  0.71600  1.0000
  Ba  Ba28      1.0  0.76300  0.40100  0.71600  1.0000
  Ba  Ba29      1.0  0.23700  0.59900  0.71600  1.0000
  Ba  Ba30      1.0  0.73700  0.90100  0.71600  1.0000
  Ba  Ba31      1.0  0.00000  0.00000  0.81900  1.0000
  Ba  Ba32      1.0  0.50000  0.50000  0.81900  1.0000
  P   P1        1.0  0.13700  0.13900  0.00000  1.0000
  P   P2        1.0  0.63700  0.36100  0.00000  1.0000
  P   P3        1.0  0.36300  0.63900  0.00000  1.0000
  P   P4        1.0  0.86300  0.86100  0.00000  1.0000
  P   P5        1.0  0.50000  0.00000  0.10100  1.0000
  P   P6        1.0  0.00000  0.50000  0.10100  1.0000
  P   P7        1.0  0.82100  0.16200  0.23600  1.0000
  P   P8        1.0  0.32100  0.33800  0.23600  1.0000
  P   P9        1.0  0.67900  0.66200  0.23600  1.0000
  P   P10       1.0  0.17900  0.83800  0.23600  1.0000
  P   P11       1.0  0.42200  0.03420  0.50000  1.0000
  P   P12       1.0  0.11300  0.13900  0.50000  1.0000
  P   P13       1.0  0.61300  0.36100  0.50000  1.0000
  P   P14       1.0  0.92200  0.46600  0.50000  1.0000
  P   P15       1.0  0.07800  0.53400  0.50000  1.0000
  P   P16       1.0  0.38700  0.63900  0.50000  1.0000
  P   P17       1.0  0.88700  0.86100  0.50000  1.0000
  P   P18       1.0  0.57800  0.96600  0.50000  1.0000
  P   P19       1.0  0.82100  0.16200  0.76400  1.0000
  P   P20       1.0  0.32100  0.33800  0.76400  1.0000
  P   P21       1.0  0.67900  0.66200  0.76400  1.0000
  P   P22       1.0  0.17900  0.83800  0.76400  1.0000
  P   P23       1.0  0.50000  0.00000  0.89900  1.0000
  P   P24       1.0  0.00000  0.50000  0.89900  1.0000
