data_image0
_chemical_formula_structural       Br4C20Mn4O20
_chemical_formula_sum              "Br4 C20 Mn4 O20"
_cell_length_a       11.4057
_cell_length_b       11.1004
_cell_length_c       5.8948
_cell_angle_alpha    90
_cell_angle_beta     90
_cell_angle_gamma    90

_space_group_name_H-M_alt    "P 1"
_space_group_IT_number       1

loop_
  _space_group_symop_operation_xyz
  'x, y, z'

loop_
  _atom_site_type_symbol
  _atom_site_label
  _atom_site_symmetry_multiplicity
  _atom_site_fract_x
  _atom_site_fract_y
  _atom_site_fract_z
  _atom_site_occupancy
  Br  Br1       1.0  0.24900  0.25000  0.10600  1.0000
  Br  Br2       1.0  0.74900  0.25000  0.39400  1.0000
  Br  Br3       1.0  0.25100  0.75000  0.60600  1.0000
  Br  Br4       1.0  0.75100  0.75000  0.89400  1.0000
  C   C1        1.0  0.21800  0.63100  0.06750  1.0000
  C   C2        1.0  0.21800  0.86900  0.06750  1.0000
  C   C3        1.0  0.96800  0.12900  0.19100  1.0000
  C   C4        1.0  0.96800  0.37100  0.19100  1.0000
  C   C5        1.0  0.02530  0.75000  0.19800  1.0000
  C   C6        1.0  0.52500  0.75000  0.30200  1.0000
  C   C7        1.0  0.46800  0.12900  0.30900  1.0000
  C   C8        1.0  0.46800  0.37100  0.30900  1.0000
  C   C9        1.0  0.71800  0.63100  0.43200  1.0000
  C   C10       1.0  0.71800  0.86900  0.43200  1.0000
  C   C11       1.0  0.28200  0.13100  0.56800  1.0000
  C   C12       1.0  0.28200  0.36900  0.56800  1.0000
  C   C13       1.0  0.53200  0.62900  0.69100  1.0000
  C   C14       1.0  0.53200  0.87100  0.69100  1.0000
  C   C15       1.0  0.47500  0.25000  0.69800  1.0000
  C   C16       1.0  0.97500  0.25000  0.80200  1.0000
  C   C17       1.0  0.03170  0.62900  0.80900  1.0000
  C   C18       1.0  0.03170  0.87100  0.80900  1.0000
  C   C19       1.0  0.78200  0.13100  0.93200  1.0000
  C   C20       1.0  0.78200  0.36900  0.93200  1.0000
  Mn  Mn1       1.0  0.88100  0.25000  0.05060  1.0000
  Mn  Mn2       1.0  0.38100  0.25000  0.44900  1.0000
  Mn  Mn3       1.0  0.61900  0.75000  0.55100  1.0000
  Mn  Mn4       1.0  0.11900  0.75000  0.94900  1.0000
  O   O1        1.0  0.27900  0.55700  0.13600  1.0000
  O   O2        1.0  0.27900  0.94300  0.13600  1.0000
  O   O3        1.0  0.46400  0.75000  0.14600  1.0000
  O   O4        1.0  0.51900  0.04990  0.22900  1.0000
  O   O5        1.0  0.51900  0.45000  0.22900  1.0000
  O   O6        1.0  0.01920  0.04990  0.27100  1.0000
  O   O7        1.0  0.01920  0.45000  0.27100  1.0000
  O   O8        1.0  0.96400  0.75000  0.35400  1.0000
  O   O9        1.0  0.77900  0.55700  0.36400  1.0000
  O   O10       1.0  0.77900  0.94300  0.36400  1.0000
  O   O11       1.0  0.22100  0.05710  0.63600  1.0000
  O   O12       1.0  0.22100  0.44300  0.63600  1.0000
  O   O13       1.0  0.03630  0.25000  0.64600  1.0000
  O   O14       1.0  0.98100  0.55000  0.72900  1.0000
  O   O15       1.0  0.98100  0.95000  0.72900  1.0000
  O   O16       1.0  0.48100  0.55000  0.77100  1.0000
  O   O17       1.0  0.48100  0.95000  0.77100  1.0000
  O   O18       1.0  0.53600  0.25000  0.85400  1.0000
  O   O19       1.0  0.72100  0.05710  0.86400  1.0000
  O   O20       1.0  0.72100  0.44300  0.86400  1.0000
