data_image0
_chemical_formula_structural       Ba4In8O28Pr8
_chemical_formula_sum              "Ba4 In8 O28 Pr8"
_cell_length_a       5.93055
_cell_length_b       5.93055
_cell_length_c       20.673
_cell_angle_alpha    90
_cell_angle_beta     90
_cell_angle_gamma    90

_space_group_name_H-M_alt    "P 1"
_space_group_IT_number       1

loop_
  _space_group_symop_operation_xyz
  'x, y, z'

loop_
  _atom_site_type_symbol
  _atom_site_label
  _atom_site_symmetry_multiplicity
  _atom_site_fract_x
  _atom_site_fract_y
  _atom_site_fract_z
  _atom_site_occupancy
  Ba  Ba1       1.0  0.26000  0.26000  0.00000  1.0000
  Ba  Ba2       1.0  0.74000  0.74000  0.00000  1.0000
  Ba  Ba3       1.0  0.76000  0.24000  0.50000  1.0000
  Ba  Ba4       1.0  0.24000  0.76000  0.50000  1.0000
  In  In1       1.0  0.75900  0.24100  0.10200  1.0000
  In  In2       1.0  0.24100  0.75900  0.10200  1.0000
  In  In3       1.0  0.25900  0.25900  0.39800  1.0000
  In  In4       1.0  0.74100  0.74100  0.39800  1.0000
  In  In5       1.0  0.25900  0.25900  0.60200  1.0000
  In  In6       1.0  0.74100  0.74100  0.60200  1.0000
  In  In7       1.0  0.75900  0.24100  0.89800  1.0000
  In  In8       1.0  0.24100  0.75900  0.89800  1.0000
  O   O1        1.0  0.79900  0.20100  0.00000  1.0000
  O   O2        1.0  0.20100  0.79900  0.00000  1.0000
  O   O3        1.0  0.50000  0.50000  0.09130  1.0000
  O   O4        1.0  0.50000  0.00000  0.11600  1.0000
  O   O5        1.0  0.00000  0.50000  0.11600  1.0000
  O   O6        1.0  0.00000  0.00000  0.13600  1.0000
  O   O7        1.0  0.68100  0.31900  0.21100  1.0000
  O   O8        1.0  0.31900  0.68100  0.21100  1.0000
  O   O9        1.0  0.18100  0.18100  0.28900  1.0000
  O   O10       1.0  0.81900  0.81900  0.28900  1.0000
  O   O11       1.0  0.50000  0.50000  0.36400  1.0000
  O   O12       1.0  0.50000  0.00000  0.38400  1.0000
  O   O13       1.0  0.00000  0.50000  0.38400  1.0000
  O   O14       1.0  0.00000  0.00000  0.40900  1.0000
  O   O15       1.0  0.29900  0.29900  0.50000  1.0000
  O   O16       1.0  0.70100  0.70100  0.50000  1.0000
  O   O17       1.0  0.00000  0.00000  0.59100  1.0000
  O   O18       1.0  0.50000  0.00000  0.61600  1.0000
  O   O19       1.0  0.00000  0.50000  0.61600  1.0000
  O   O20       1.0  0.50000  0.50000  0.63600  1.0000
  O   O21       1.0  0.18100  0.18100  0.71100  1.0000
  O   O22       1.0  0.81900  0.81900  0.71100  1.0000
  O   O23       1.0  0.68100  0.31900  0.78900  1.0000
  O   O24       1.0  0.31900  0.68100  0.78900  1.0000
  O   O25       1.0  0.00000  0.00000  0.86400  1.0000
  O   O26       1.0  0.50000  0.00000  0.88400  1.0000
  O   O27       1.0  0.00000  0.50000  0.88400  1.0000
  O   O28       1.0  0.50000  0.50000  0.90900  1.0000
  Pr  Pr1       1.0  0.27800  0.27800  0.18500  1.0000
  Pr  Pr2       1.0  0.72200  0.72200  0.18500  1.0000
  Pr  Pr3       1.0  0.77800  0.22200  0.31500  1.0000
  Pr  Pr4       1.0  0.22200  0.77800  0.31500  1.0000
  Pr  Pr5       1.0  0.77800  0.22200  0.68500  1.0000
  Pr  Pr6       1.0  0.22200  0.77800  0.68500  1.0000
  Pr  Pr7       1.0  0.27800  0.27800  0.81500  1.0000
  Pr  Pr8       1.0  0.72200  0.72200  0.81500  1.0000
