data_image0
_chemical_formula_structural       F32I4O8Sb4
_chemical_formula_sum              "F32 I4 O8 Sb4"
_cell_length_a       5.21257
_cell_length_b       9.33107
_cell_length_c       11.7582
_cell_angle_alpha    90
_cell_angle_beta     100.386
_cell_angle_gamma    90

_space_group_name_H-M_alt    "P 1"
_space_group_IT_number       1

loop_
  _space_group_symop_operation_xyz
  'x, y, z'

loop_
  _atom_site_type_symbol
  _atom_site_label
  _atom_site_symmetry_multiplicity
  _atom_site_fract_x
  _atom_site_fract_y
  _atom_site_fract_z
  _atom_site_occupancy
  F   F1        1.0  0.71000  0.07710  0.04820  1.0000
  F   F2        1.0  0.20800  0.17100  0.04990  1.0000
  F   F3        1.0  0.21500  0.67000  0.05490  1.0000
  F   F4        1.0  0.08720  0.41400  0.15200  1.0000
  F   F5        1.0  0.61700  0.83600  0.15800  1.0000
  F   F6        1.0  0.11000  0.91100  0.16400  1.0000
  F   F7        1.0  0.00114  0.14400  0.24700  1.0000
  F   F8        1.0  0.52000  0.57700  0.24900  1.0000
  F   F9        1.0  0.48000  0.07670  0.25100  1.0000
  F   F10       1.0  0.99900  0.64400  0.25300  1.0000
  F   F11       1.0  0.89000  0.41100  0.33600  1.0000
  F   F12       1.0  0.38300  0.33600  0.34200  1.0000
  F   F13       1.0  0.91300  0.91400  0.34800  1.0000
  F   F14       1.0  0.78500  0.17000  0.44500  1.0000
  F   F15       1.0  0.79200  0.67100  0.45000  1.0000
  F   F16       1.0  0.29000  0.57700  0.45200  1.0000
  F   F17       1.0  0.71000  0.42300  0.54800  1.0000
  F   F18       1.0  0.20800  0.32900  0.55000  1.0000
  F   F19       1.0  0.21500  0.83000  0.55500  1.0000
  F   F20       1.0  0.08720  0.08580  0.65200  1.0000
  F   F21       1.0  0.61700  0.66400  0.65800  1.0000
  F   F22       1.0  0.11000  0.58900  0.66400  1.0000
  F   F23       1.0  0.00114  0.35600  0.74700  1.0000
  F   F24       1.0  0.52000  0.92300  0.74900  1.0000
  F   F25       1.0  0.48000  0.42300  0.75100  1.0000
  F   F26       1.0  0.99900  0.85600  0.75300  1.0000
  F   F27       1.0  0.89000  0.08870  0.83600  1.0000
  F   F28       1.0  0.38300  0.16400  0.84200  1.0000
  F   F29       1.0  0.91300  0.58600  0.84800  1.0000
  F   F30       1.0  0.78500  0.33000  0.94500  1.0000
  F   F31       1.0  0.79200  0.82900  0.95000  1.0000
  F   F32       1.0  0.29000  0.92300  0.95200  1.0000
  I   I1        1.0  0.79100  0.49200  0.19200  1.0000
  I   I2        1.0  0.20900  0.99200  0.30800  1.0000
  I   I3        1.0  0.79100  0.00781  0.69200  1.0000
  I   I4        1.0  0.20900  0.50800  0.80800  1.0000
  O   O1        1.0  0.71500  0.58300  0.05210  1.0000
  O   O2        1.0  0.59700  0.33100  0.15000  1.0000
  O   O3        1.0  0.40300  0.83100  0.35000  1.0000
  O   O4        1.0  0.28500  0.08290  0.44800  1.0000
  O   O5        1.0  0.71500  0.91700  0.55200  1.0000
  O   O6        1.0  0.59700  0.16900  0.65000  1.0000
  O   O7        1.0  0.40300  0.66900  0.85000  1.0000
  O   O8        1.0  0.28500  0.41700  0.94800  1.0000
  Sb  Sb1       1.0  0.49900  0.76600  0.00831  1.0000
  Sb  Sb2       1.0  0.50100  0.26600  0.49200  1.0000
  Sb  Sb3       1.0  0.49900  0.73400  0.50800  1.0000
  Sb  Sb4       1.0  0.50100  0.23400  0.99200  1.0000
