data_image0
_chemical_formula_structural       O32Se8Tb4V4
_chemical_formula_sum              "O32 Se8 Tb4 V4"
_cell_length_a       6.61284
_cell_length_b       6.98183
_cell_length_c       13.2842
_cell_angle_alpha    90
_cell_angle_beta     91.0979
_cell_angle_gamma    90

_space_group_name_H-M_alt    "P 1"
_space_group_IT_number       1

loop_
  _space_group_symop_operation_xyz
  'x, y, z'

loop_
  _atom_site_type_symbol
  _atom_site_label
  _atom_site_symmetry_multiplicity
  _atom_site_fract_x
  _atom_site_fract_y
  _atom_site_fract_z
  _atom_site_occupancy
  O   O1        1.0  0.71600  0.25000  0.04100  1.0000
  O   O2        1.0  0.68600  0.75000  0.07820  1.0000
  O   O3        1.0  0.02590  0.57600  0.09980  1.0000
  O   O4        1.0  0.02590  0.92400  0.09980  1.0000
  O   O5        1.0  0.37900  0.07380  0.10800  1.0000
  O   O6        1.0  0.37900  0.42600  0.10800  1.0000
  O   O7        1.0  0.98000  0.25000  0.22700  1.0000
  O   O8        1.0  0.59000  0.56300  0.26600  1.0000
  O   O9        1.0  0.59000  0.93700  0.26600  1.0000
  O   O10       1.0  0.19600  0.75000  0.28200  1.0000
  O   O11       1.0  0.57900  0.25000  0.38200  1.0000
  O   O12       1.0  0.91700  0.05260  0.39600  1.0000
  O   O13       1.0  0.91700  0.44700  0.39600  1.0000
  O   O14       1.0  0.70300  0.75000  0.42900  1.0000
  O   O15       1.0  0.35500  0.55300  0.43600  1.0000
  O   O16       1.0  0.35500  0.94700  0.43600  1.0000
  O   O17       1.0  0.64500  0.05310  0.56400  1.0000
  O   O18       1.0  0.64500  0.44700  0.56400  1.0000
  O   O19       1.0  0.29700  0.25000  0.57100  1.0000
  O   O20       1.0  0.08300  0.55300  0.60400  1.0000
  O   O21       1.0  0.08300  0.94700  0.60400  1.0000
  O   O22       1.0  0.42100  0.75000  0.61800  1.0000
  O   O23       1.0  0.80400  0.25000  0.71800  1.0000
  O   O24       1.0  0.41000  0.06270  0.73400  1.0000
  O   O25       1.0  0.41000  0.43700  0.73400  1.0000
  O   O26       1.0  0.02050  0.75000  0.77300  1.0000
  O   O27       1.0  0.62100  0.57400  0.89200  1.0000
  O   O28       1.0  0.62100  0.92600  0.89200  1.0000
  O   O29       1.0  0.97400  0.07650  0.90000  1.0000
  O   O30       1.0  0.97400  0.42400  0.90000  1.0000
  O   O31       1.0  0.31400  0.25000  0.92200  1.0000
  O   O32       1.0  0.28400  0.75000  0.95900  1.0000
  Se  Se1       1.0  0.55200  0.25000  0.14100  1.0000
  Se  Se2       1.0  0.88500  0.75000  0.16300  1.0000
  Se  Se3       1.0  0.05170  0.25000  0.34900  1.0000
  Se  Se4       1.0  0.19300  0.75000  0.40900  1.0000
  Se  Se5       1.0  0.80700  0.25000  0.59100  1.0000
  Se  Se6       1.0  0.94800  0.75000  0.65100  1.0000
  Se  Se7       1.0  0.11500  0.25000  0.83700  1.0000
  Se  Se8       1.0  0.44800  0.75000  0.85900  1.0000
  Tb  Tb1       1.0  0.07900  0.25000  0.06550  1.0000
  Tb  Tb2       1.0  0.36600  0.75000  0.13500  1.0000
  Tb  Tb3       1.0  0.63400  0.25000  0.86500  1.0000
  Tb  Tb4       1.0  0.92100  0.75000  0.93400  1.0000
  V   V1        1.0  0.63000  0.50900  0.38600  1.0000
  V   V2        1.0  0.63000  0.99100  0.38600  1.0000
  V   V3        1.0  0.37000  0.00881  0.61400  1.0000
  V   V4        1.0  0.37000  0.49100  0.61400  1.0000
