data_image0
_chemical_formula_structural       Gd4O32Se8V4
_chemical_formula_sum              "Gd4 O32 Se8 V4"
_cell_length_a       6.63415
_cell_length_b       6.99863
_cell_length_c       13.3245
_cell_angle_alpha    90
_cell_angle_beta     91.1949
_cell_angle_gamma    90

_space_group_name_H-M_alt    "P 1"
_space_group_IT_number       1

loop_
  _space_group_symop_operation_xyz
  'x, y, z'

loop_
  _atom_site_type_symbol
  _atom_site_label
  _atom_site_symmetry_multiplicity
  _atom_site_fract_x
  _atom_site_fract_y
  _atom_site_fract_z
  _atom_site_occupancy
  Gd  Gd1       1.0  0.08010  0.25000  0.06540  1.0000
  Gd  Gd2       1.0  0.36700  0.75000  0.13600  1.0000
  Gd  Gd3       1.0  0.63300  0.25000  0.86400  1.0000
  Gd  Gd4       1.0  0.92000  0.75000  0.93500  1.0000
  O   O1        1.0  0.71700  0.25000  0.04080  1.0000
  O   O2        1.0  0.68700  0.75000  0.07860  1.0000
  O   O3        1.0  0.02630  0.57700  0.10100  1.0000
  O   O4        1.0  0.02630  0.92300  0.10100  1.0000
  O   O5        1.0  0.38100  0.07400  0.10700  1.0000
  O   O6        1.0  0.38100  0.42600  0.10700  1.0000
  O   O7        1.0  0.98200  0.25000  0.22800  1.0000
  O   O8        1.0  0.59000  0.56200  0.26700  1.0000
  O   O9        1.0  0.59000  0.93800  0.26700  1.0000
  O   O10       1.0  0.19600  0.75000  0.28300  1.0000
  O   O11       1.0  0.57900  0.25000  0.38300  1.0000
  O   O12       1.0  0.91500  0.05260  0.39600  1.0000
  O   O13       1.0  0.91500  0.44700  0.39600  1.0000
  O   O14       1.0  0.70200  0.75000  0.42900  1.0000
  O   O15       1.0  0.35600  0.55300  0.43600  1.0000
  O   O16       1.0  0.35600  0.94700  0.43600  1.0000
  O   O17       1.0  0.64400  0.05310  0.56400  1.0000
  O   O18       1.0  0.64400  0.44700  0.56400  1.0000
  O   O19       1.0  0.29800  0.25000  0.57100  1.0000
  O   O20       1.0  0.08450  0.55300  0.60400  1.0000
  O   O21       1.0  0.08450  0.94700  0.60400  1.0000
  O   O22       1.0  0.42100  0.75000  0.61700  1.0000
  O   O23       1.0  0.80400  0.25000  0.71700  1.0000
  O   O24       1.0  0.41000  0.06220  0.73300  1.0000
  O   O25       1.0  0.41000  0.43800  0.73300  1.0000
  O   O26       1.0  0.01830  0.75000  0.77200  1.0000
  O   O27       1.0  0.61900  0.57400  0.89300  1.0000
  O   O28       1.0  0.61900  0.92600  0.89300  1.0000
  O   O29       1.0  0.97400  0.07670  0.89900  1.0000
  O   O30       1.0  0.97400  0.42300  0.89900  1.0000
  O   O31       1.0  0.31300  0.25000  0.92100  1.0000
  O   O32       1.0  0.28300  0.75000  0.95900  1.0000
  Se  Se1       1.0  0.55300  0.25000  0.14000  1.0000
  Se  Se2       1.0  0.88600  0.75000  0.16400  1.0000
  Se  Se3       1.0  0.05050  0.25000  0.35000  1.0000
  Se  Se4       1.0  0.19500  0.75000  0.40900  1.0000
  Se  Se5       1.0  0.80500  0.25000  0.59100  1.0000
  Se  Se6       1.0  0.94900  0.75000  0.65000  1.0000
  Se  Se7       1.0  0.11400  0.25000  0.83600  1.0000
  Se  Se8       1.0  0.44700  0.75000  0.86000  1.0000
  V   V1        1.0  0.62900  0.50900  0.38700  1.0000
  V   V2        1.0  0.62900  0.99100  0.38700  1.0000
  V   V3        1.0  0.37100  0.00873  0.61300  1.0000
  V   V4        1.0  0.37100  0.49100  0.61300  1.0000
