data_image0
_chemical_formula_structural       Ba4In8Nd8O28
_chemical_formula_sum              "Ba4 In8 Nd8 O28"
_cell_length_a       5.9184
_cell_length_b       5.9184
_cell_length_c       20.5659
_cell_angle_alpha    90
_cell_angle_beta     90
_cell_angle_gamma    90

_space_group_name_H-M_alt    "P 1"
_space_group_IT_number       1

loop_
  _space_group_symop_operation_xyz
  'x, y, z'

loop_
  _atom_site_type_symbol
  _atom_site_label
  _atom_site_symmetry_multiplicity
  _atom_site_fract_x
  _atom_site_fract_y
  _atom_site_fract_z
  _atom_site_occupancy
  Ba  Ba1       1.0  0.26100  0.26100  0.00000  1.0000
  Ba  Ba2       1.0  0.73900  0.73900  0.00000  1.0000
  Ba  Ba3       1.0  0.76100  0.23900  0.50000  1.0000
  Ba  Ba4       1.0  0.23900  0.76100  0.50000  1.0000
  In  In1       1.0  0.75900  0.24100  0.10300  1.0000
  In  In2       1.0  0.24100  0.75900  0.10300  1.0000
  In  In3       1.0  0.25900  0.25900  0.39700  1.0000
  In  In4       1.0  0.74100  0.74100  0.39700  1.0000
  In  In5       1.0  0.25900  0.25900  0.60300  1.0000
  In  In6       1.0  0.74100  0.74100  0.60300  1.0000
  In  In7       1.0  0.75900  0.24100  0.89700  1.0000
  In  In8       1.0  0.24100  0.75900  0.89700  1.0000
  Nd  Nd1       1.0  0.27900  0.27900  0.18600  1.0000
  Nd  Nd2       1.0  0.72100  0.72100  0.18600  1.0000
  Nd  Nd3       1.0  0.77900  0.22100  0.31400  1.0000
  Nd  Nd4       1.0  0.22100  0.77900  0.31400  1.0000
  Nd  Nd5       1.0  0.77900  0.22100  0.68600  1.0000
  Nd  Nd6       1.0  0.22100  0.77900  0.68600  1.0000
  Nd  Nd7       1.0  0.27900  0.27900  0.81400  1.0000
  Nd  Nd8       1.0  0.72100  0.72100  0.81400  1.0000
  O   O1        1.0  0.79700  0.20300  0.00000  1.0000
  O   O2        1.0  0.20300  0.79700  0.00000  1.0000
  O   O3        1.0  0.50000  0.50000  0.09150  1.0000
  O   O4        1.0  0.50000  0.00000  0.11800  1.0000
  O   O5        1.0  0.00000  0.50000  0.11800  1.0000
  O   O6        1.0  0.00000  0.00000  0.13700  1.0000
  O   O7        1.0  0.67900  0.32100  0.21200  1.0000
  O   O8        1.0  0.32100  0.67900  0.21200  1.0000
  O   O9        1.0  0.17900  0.17900  0.28800  1.0000
  O   O10       1.0  0.82100  0.82100  0.28800  1.0000
  O   O11       1.0  0.50000  0.50000  0.36300  1.0000
  O   O12       1.0  0.50000  0.00000  0.38200  1.0000
  O   O13       1.0  0.00000  0.50000  0.38200  1.0000
  O   O14       1.0  0.00000  0.00000  0.40800  1.0000
  O   O15       1.0  0.29700  0.29700  0.50000  1.0000
  O   O16       1.0  0.70300  0.70300  0.50000  1.0000
  O   O17       1.0  0.00000  0.00000  0.59200  1.0000
  O   O18       1.0  0.50000  0.00000  0.61800  1.0000
  O   O19       1.0  0.00000  0.50000  0.61800  1.0000
  O   O20       1.0  0.50000  0.50000  0.63700  1.0000
  O   O21       1.0  0.17900  0.17900  0.71200  1.0000
  O   O22       1.0  0.82100  0.82100  0.71200  1.0000
  O   O23       1.0  0.67900  0.32100  0.78800  1.0000
  O   O24       1.0  0.32100  0.67900  0.78800  1.0000
  O   O25       1.0  0.00000  0.00000  0.86300  1.0000
  O   O26       1.0  0.50000  0.00000  0.88200  1.0000
  O   O27       1.0  0.00000  0.50000  0.88200  1.0000
  O   O28       1.0  0.50000  0.50000  0.90800  1.0000
