data_image0
_chemical_formula_structural       Ba4Cr16S28
_chemical_formula_sum              "Ba4 Cr16 S28"
_cell_length_a       6.80473
_cell_length_b       22.8667
_cell_length_c       5.98824
_cell_angle_alpha    90
_cell_angle_beta     90.023
_cell_angle_gamma    90

_space_group_name_H-M_alt    "P 1"
_space_group_IT_number       1

loop_
  _space_group_symop_operation_xyz
  'x, y, z'

loop_
  _atom_site_type_symbol
  _atom_site_label
  _atom_site_symmetry_multiplicity
  _atom_site_fract_x
  _atom_site_fract_y
  _atom_site_fract_z
  _atom_site_occupancy
  Ba  Ba1       1.0  0.62700  0.82700  0.10900  1.0000
  Ba  Ba2       1.0  0.37300  0.32700  0.39100  1.0000
  Ba  Ba3       1.0  0.62700  0.67300  0.60900  1.0000
  Ba  Ba4       1.0  0.37300  0.17300  0.89100  1.0000
  Cr  Cr1       1.0  0.87100  0.25400  0.11400  1.0000
  Cr  Cr2       1.0  0.62500  0.49900  0.23500  1.0000
  Cr  Cr3       1.0  0.87100  0.12500  0.24400  1.0000
  Cr  Cr4       1.0  0.12400  0.49200  0.24600  1.0000
  Cr  Cr5       1.0  0.87600  0.99200  0.25400  1.0000
  Cr  Cr6       1.0  0.12900  0.62500  0.25600  1.0000
  Cr  Cr7       1.0  0.37500  0.99900  0.26500  1.0000
  Cr  Cr8       1.0  0.12900  0.75400  0.38600  1.0000
  Cr  Cr9       1.0  0.87100  0.24600  0.61400  1.0000
  Cr  Cr10      1.0  0.62500  0.00085  0.73500  1.0000
  Cr  Cr11      1.0  0.87100  0.37500  0.74400  1.0000
  Cr  Cr12      1.0  0.12400  0.00760  0.74600  1.0000
  Cr  Cr13      1.0  0.87600  0.50800  0.75400  1.0000
  Cr  Cr14      1.0  0.12900  0.87500  0.75600  1.0000
  Cr  Cr15      1.0  0.37500  0.50100  0.76500  1.0000
  Cr  Cr16      1.0  0.12900  0.74600  0.88600  1.0000
  S   S1        1.0  0.87200  0.44100  0.06350  1.0000
  S   S2        1.0  0.37900  0.44000  0.08080  1.0000
  S   S3        1.0  0.62800  0.05580  0.08490  1.0000
  S   S4        1.0  0.12300  0.05910  0.09510  1.0000
  S   S5        1.0  0.12800  0.83100  0.11600  1.0000
  S   S6        1.0  0.89900  0.70100  0.13800  1.0000
  S   S7        1.0  0.36100  0.70100  0.13900  1.0000
  S   S8        1.0  0.63900  0.20100  0.36100  1.0000
  S   S9        1.0  0.10100  0.20100  0.36200  1.0000
  S   S10       1.0  0.87200  0.33100  0.38400  1.0000
  S   S11       1.0  0.87700  0.55900  0.40500  1.0000
  S   S12       1.0  0.37200  0.55600  0.41500  1.0000
  S   S13       1.0  0.62100  0.94000  0.41900  1.0000
  S   S14       1.0  0.12800  0.94100  0.43700  1.0000
  S   S15       1.0  0.87200  0.05950  0.56300  1.0000
  S   S16       1.0  0.37900  0.06010  0.58100  1.0000
  S   S17       1.0  0.62800  0.44400  0.58500  1.0000
  S   S18       1.0  0.12300  0.44100  0.59500  1.0000
  S   S19       1.0  0.12800  0.66900  0.61600  1.0000
  S   S20       1.0  0.89900  0.79900  0.63800  1.0000
  S   S21       1.0  0.36100  0.79900  0.63900  1.0000
  S   S22       1.0  0.63900  0.29900  0.86100  1.0000
  S   S23       1.0  0.10100  0.29900  0.86200  1.0000
  S   S24       1.0  0.87200  0.16900  0.88400  1.0000
  S   S25       1.0  0.87700  0.94100  0.90500  1.0000
  S   S26       1.0  0.37200  0.94400  0.91500  1.0000
  S   S27       1.0  0.62100  0.56000  0.91900  1.0000
  S   S28       1.0  0.12800  0.55900  0.93700  1.0000
