data_image0
_chemical_formula_structural       I6Lu6Na4O24Te8
_chemical_formula_sum              "I6 Lu6 Na4 O24 Te8"
_cell_length_a       9.1084
_cell_length_b       5.48796
_cell_length_c       16.5234
_cell_angle_alpha    90
_cell_angle_beta     90.1218
_cell_angle_gamma    90

_space_group_name_H-M_alt    "P 1"
_space_group_IT_number       1

loop_
  _space_group_symop_operation_xyz
  'x, y, z'

loop_
  _atom_site_type_symbol
  _atom_site_label
  _atom_site_symmetry_multiplicity
  _atom_site_fract_x
  _atom_site_fract_y
  _atom_site_fract_z
  _atom_site_occupancy
  I   I1        1.0  0.50600  0.75600  0.08330  1.0000
  I   I2        1.0  0.50000  0.26000  0.25000  1.0000
  I   I3        1.0  0.49400  0.75600  0.41700  1.0000
  I   I4        1.0  0.50600  0.24400  0.58300  1.0000
  I   I5        1.0  0.50000  0.74000  0.75000  1.0000
  I   I6        1.0  0.49400  0.24400  0.91700  1.0000
  Lu  Lu1       1.0  0.00000  0.74500  0.08420  1.0000
  Lu  Lu2       1.0  0.00000  0.24500  0.25000  1.0000
  Lu  Lu3       1.0  0.00033  0.74500  0.41600  1.0000
  Lu  Lu4       1.0  0.00000  0.25500  0.58400  1.0000
  Lu  Lu5       1.0  0.00000  0.75500  0.75000  1.0000
  Lu  Lu6       1.0  0.00033  0.25500  0.91600  1.0000
  Na  Na1       1.0  0.29900  0.26100  0.08630  1.0000
  Na  Na2       1.0  0.70100  0.26100  0.41400  1.0000
  Na  Na3       1.0  0.29900  0.73900  0.58600  1.0000
  Na  Na4       1.0  0.70100  0.73900  0.91400  1.0000
  O   O1        1.0  0.15400  0.49300  0.00699  1.0000
  O   O2        1.0  0.87000  0.03790  0.01910  1.0000
  O   O3        1.0  0.87700  0.42100  0.14700  1.0000
  O   O4        1.0  0.15800  0.00812  0.15900  1.0000
  O   O5        1.0  0.86900  0.92800  0.18400  1.0000
  O   O6        1.0  0.13600  0.53700  0.18700  1.0000
  O   O7        1.0  0.86400  0.53700  0.31300  1.0000
  O   O8        1.0  0.13100  0.92800  0.31600  1.0000
  O   O9        1.0  0.84200  0.00812  0.34100  1.0000
  O   O10       1.0  0.12300  0.42100  0.35300  1.0000
  O   O11       1.0  0.13000  0.03790  0.48100  1.0000
  O   O12       1.0  0.84600  0.49300  0.49300  1.0000
  O   O13       1.0  0.15400  0.50700  0.50700  1.0000
  O   O14       1.0  0.87000  0.96200  0.51900  1.0000
  O   O15       1.0  0.87700  0.57900  0.64700  1.0000
  O   O16       1.0  0.15800  0.99200  0.65900  1.0000
  O   O17       1.0  0.86900  0.07220  0.68400  1.0000
  O   O18       1.0  0.13600  0.46300  0.68700  1.0000
  O   O19       1.0  0.86400  0.46300  0.81300  1.0000
  O   O20       1.0  0.13100  0.07220  0.81600  1.0000
  O   O21       1.0  0.84200  0.99200  0.84100  1.0000
  O   O22       1.0  0.12300  0.57900  0.85300  1.0000
  O   O23       1.0  0.13000  0.96200  0.98100  1.0000
  O   O24       1.0  0.84600  0.50700  0.99300  1.0000
  Te  Te1       1.0  0.75000  0.28500  0.06650  1.0000
  Te  Te2       1.0  0.25400  0.79000  0.23400  1.0000
  Te  Te3       1.0  0.74600  0.79000  0.26600  1.0000
  Te  Te4       1.0  0.25000  0.28500  0.43300  1.0000
  Te  Te5       1.0  0.75000  0.71500  0.56700  1.0000
  Te  Te6       1.0  0.25400  0.21000  0.73400  1.0000
  Te  Te7       1.0  0.74600  0.21000  0.76600  1.0000
  Te  Te8       1.0  0.25000  0.71500  0.93300  1.0000
