data_image0
_chemical_formula_structural       Np4O32P8Sr4
_chemical_formula_sum              "Np4 O32 P8 Sr4"
_cell_length_a       6.89266
_cell_length_b       6.89266
_cell_length_c       13.2733
_cell_angle_alpha    90
_cell_angle_beta     90
_cell_angle_gamma    80.6941

_space_group_name_H-M_alt    "P 1"
_space_group_IT_number       1

loop_
  _space_group_symop_operation_xyz
  'x, y, z'

loop_
  _atom_site_type_symbol
  _atom_site_label
  _atom_site_symmetry_multiplicity
  _atom_site_fract_x
  _atom_site_fract_y
  _atom_site_fract_z
  _atom_site_occupancy
  Np  Np1       1.0  0.27400  0.72600  0.09480  1.0000
  Np  Np2       1.0  0.77400  0.22600  0.40500  1.0000
  Np  Np3       1.0  0.22600  0.77400  0.59500  1.0000
  Np  Np4       1.0  0.72600  0.27400  0.90500  1.0000
  O   O1        1.0  0.20100  0.41500  0.06320  1.0000
  O   O2        1.0  0.58500  0.79900  0.06320  1.0000
  O   O3        1.0  0.73600  0.26400  0.07240  1.0000
  O   O4        1.0  0.22100  0.06180  0.07940  1.0000
  O   O5        1.0  0.93800  0.77900  0.07940  1.0000
  O   O6        1.0  0.50800  0.49200  0.18800  1.0000
  O   O7        1.0  0.62100  0.14400  0.24100  1.0000
  O   O8        1.0  0.85600  0.37900  0.24100  1.0000
  O   O9        1.0  0.12100  0.64400  0.25900  1.0000
  O   O10       1.0  0.35600  0.87900  0.25900  1.0000
  O   O11       1.0  0.00825  0.99200  0.31200  1.0000
  O   O12       1.0  0.43800  0.27900  0.42100  1.0000
  O   O13       1.0  0.72100  0.56200  0.42100  1.0000
  O   O14       1.0  0.23600  0.76400  0.42800  1.0000
  O   O15       1.0  0.08460  0.29900  0.43700  1.0000
  O   O16       1.0  0.70100  0.91500  0.43700  1.0000
  O   O17       1.0  0.29900  0.08460  0.56300  1.0000
  O   O18       1.0  0.91500  0.70100  0.56300  1.0000
  O   O19       1.0  0.76400  0.23600  0.57200  1.0000
  O   O20       1.0  0.27900  0.43800  0.57900  1.0000
  O   O21       1.0  0.56200  0.72100  0.57900  1.0000
  O   O22       1.0  0.99200  0.00825  0.68800  1.0000
  O   O23       1.0  0.64400  0.12100  0.74100  1.0000
  O   O24       1.0  0.87900  0.35600  0.74100  1.0000
  O   O25       1.0  0.14400  0.62100  0.75900  1.0000
  O   O26       1.0  0.37900  0.85600  0.75900  1.0000
  O   O27       1.0  0.49200  0.50800  0.81200  1.0000
  O   O28       1.0  0.06180  0.22100  0.92100  1.0000
  O   O29       1.0  0.77900  0.93800  0.92100  1.0000
  O   O30       1.0  0.26400  0.73600  0.92800  1.0000
  O   O31       1.0  0.41500  0.20100  0.93700  1.0000
  O   O32       1.0  0.79900  0.58500  0.93700  1.0000
  P   P1        1.0  0.22500  0.22500  0.00000  1.0000
  P   P2        1.0  0.77500  0.77500  0.00000  1.0000
  P   P3        1.0  0.68200  0.31800  0.18100  1.0000
  P   P4        1.0  0.18200  0.81800  0.31900  1.0000
  P   P5        1.0  0.27500  0.27500  0.50000  1.0000
  P   P6        1.0  0.72500  0.72500  0.50000  1.0000
  P   P7        1.0  0.81800  0.18200  0.68100  1.0000
  P   P8        1.0  0.31800  0.68200  0.81900  1.0000
  Sr  Sr1       1.0  0.23300  0.26700  0.25000  1.0000
  Sr  Sr2       1.0  0.73300  0.76700  0.25000  1.0000
  Sr  Sr3       1.0  0.26700  0.23300  0.75000  1.0000
  Sr  Sr4       1.0  0.76700  0.73300  0.75000  1.0000
