data_image0
_chemical_formula_structural       Ba12Cr6S27U3
_chemical_formula_sum              "Ba12 Cr6 S27 U3"
_cell_length_a       12.0145
_cell_length_b       12.0145
_cell_length_c       9.66598
_cell_angle_alpha    90
_cell_angle_beta     89.9998
_cell_angle_gamma    120

_space_group_name_H-M_alt    "P 1"
_space_group_IT_number       1

loop_
  _space_group_symop_operation_xyz
  'x, y, z'

loop_
  _atom_site_type_symbol
  _atom_site_label
  _atom_site_symmetry_multiplicity
  _atom_site_fract_x
  _atom_site_fract_y
  _atom_site_fract_z
  _atom_site_occupancy
  Ba  Ba1       1.0  0.68100  0.00000  0.00000  1.0000
  Ba  Ba2       1.0  0.31900  0.31900  0.00000  1.0000
  Ba  Ba3       1.0  0.00000  0.68100  0.00000  1.0000
  Ba  Ba4       1.0  0.04380  0.34000  0.24900  1.0000
  Ba  Ba5       1.0  0.29600  0.95600  0.24900  1.0000
  Ba  Ba6       1.0  0.66000  0.70400  0.24900  1.0000
  Ba  Ba7       1.0  0.00000  0.62600  0.50000  1.0000
  Ba  Ba8       1.0  0.37400  0.37400  0.50000  1.0000
  Ba  Ba9       1.0  0.62600  0.00000  0.50000  1.0000
  Ba  Ba10      1.0  0.70400  0.66000  0.75100  1.0000
  Ba  Ba11      1.0  0.34000  0.04380  0.75100  1.0000
  Ba  Ba12      1.0  0.95600  0.29600  0.75100  1.0000
  Cr  Cr1       1.0  0.33300  0.66700  0.08030  1.0000
  Cr  Cr2       1.0  0.00000  0.00000  0.15900  1.0000
  Cr  Cr3       1.0  0.33300  0.66700  0.39900  1.0000
  Cr  Cr4       1.0  0.66700  0.33300  0.60100  1.0000
  Cr  Cr5       1.0  0.00000  0.00000  0.84100  1.0000
  Cr  Cr6       1.0  0.66700  0.33300  0.92000  1.0000
  S   S1        1.0  0.15400  0.00000  0.00000  1.0000
  S   S2        1.0  0.00000  0.15400  0.00000  1.0000
  S   S3        1.0  0.84600  0.84600  0.00000  1.0000
  S   S4        1.0  0.49800  0.18000  0.06770  1.0000
  S   S5        1.0  0.68200  0.50200  0.06770  1.0000
  S   S6        1.0  0.82000  0.31800  0.06770  1.0000
  S   S7        1.0  0.16500  0.64700  0.23900  1.0000
  S   S8        1.0  0.35300  0.51900  0.23900  1.0000
  S   S9        1.0  0.48100  0.83500  0.23900  1.0000
  S   S10       1.0  0.17100  0.15700  0.31000  1.0000
  S   S11       1.0  0.84300  0.01390  0.31000  1.0000
  S   S12       1.0  0.98600  0.82900  0.31000  1.0000
  S   S13       1.0  0.82000  0.31300  0.44900  1.0000
  S   S14       1.0  0.68700  0.50700  0.44900  1.0000
  S   S15       1.0  0.49300  0.18000  0.44900  1.0000
  S   S16       1.0  0.50700  0.68700  0.55100  1.0000
  S   S17       1.0  0.31300  0.82000  0.55100  1.0000
  S   S18       1.0  0.18000  0.49300  0.55100  1.0000
  S   S19       1.0  0.15700  0.17100  0.69000  1.0000
  S   S20       1.0  0.01390  0.84300  0.69000  1.0000
  S   S21       1.0  0.82900  0.98600  0.69000  1.0000
  S   S22       1.0  0.51900  0.35300  0.76100  1.0000
  S   S23       1.0  0.64700  0.16500  0.76100  1.0000
  S   S24       1.0  0.83500  0.48100  0.76100  1.0000
  S   S25       1.0  0.18000  0.49800  0.93200  1.0000
  S   S26       1.0  0.31800  0.82000  0.93200  1.0000
  S   S27       1.0  0.50200  0.68200  0.93200  1.0000
  U   U1        1.0  0.66700  0.33300  0.25600  1.0000
  U   U2        1.0  0.00000  0.00000  0.50000  1.0000
  U   U3        1.0  0.33300  0.66700  0.74400  1.0000
