data_image0
_chemical_formula_structural       Br4Fe4O28Te12
_chemical_formula_sum              "Br4 Fe4 O28 Te12"
_cell_length_a       10.9074
_cell_length_b       7.36031
_cell_length_c       10.7947
_cell_angle_alpha    90
_cell_angle_beta     109.715
_cell_angle_gamma    90

_space_group_name_H-M_alt    "P 1"
_space_group_IT_number       1

loop_
  _space_group_symop_operation_xyz
  'x, y, z'

loop_
  _atom_site_type_symbol
  _atom_site_label
  _atom_site_symmetry_multiplicity
  _atom_site_fract_x
  _atom_site_fract_y
  _atom_site_fract_z
  _atom_site_occupancy
  Br  Br1       1.0  0.49300  0.20800  0.12200  1.0000
  Br  Br2       1.0  0.50700  0.70800  0.37800  1.0000
  Br  Br3       1.0  0.49300  0.29200  0.62200  1.0000
  Br  Br4       1.0  0.50700  0.79200  0.87800  1.0000
  Fe  Fe1       1.0  0.11500  0.37200  0.08850  1.0000
  Fe  Fe2       1.0  0.88500  0.87200  0.41100  1.0000
  Fe  Fe3       1.0  0.11500  0.12800  0.58900  1.0000
  Fe  Fe4       1.0  0.88500  0.62800  0.91100  1.0000
  O   O1        1.0  0.14500  0.13900  0.03280  1.0000
  O   O2        1.0  0.28500  0.83000  0.06670  1.0000
  O   O3        1.0  0.95600  0.50400  0.08730  1.0000
  O   O4        1.0  0.71200  0.49400  0.09610  1.0000
  O   O5        1.0  0.27100  0.49800  0.16500  1.0000
  O   O6        1.0  0.91100  0.11500  0.16600  1.0000
  O   O7        1.0  0.86700  0.76400  0.23400  1.0000
  O   O8        1.0  0.13300  0.26400  0.26600  1.0000
  O   O9        1.0  0.08870  0.61500  0.33400  1.0000
  O   O10       1.0  0.72900  0.99800  0.33500  1.0000
  O   O11       1.0  0.28800  0.99400  0.40400  1.0000
  O   O12       1.0  0.04450  0.00386  0.41300  1.0000
  O   O13       1.0  0.71500  0.33000  0.43300  1.0000
  O   O14       1.0  0.85500  0.63900  0.46700  1.0000
  O   O15       1.0  0.14500  0.36100  0.53300  1.0000
  O   O16       1.0  0.28500  0.67000  0.56700  1.0000
  O   O17       1.0  0.95600  0.99600  0.58700  1.0000
  O   O18       1.0  0.71200  0.00599  0.59600  1.0000
  O   O19       1.0  0.27100  0.00209  0.66500  1.0000
  O   O20       1.0  0.91100  0.38500  0.66600  1.0000
  O   O21       1.0  0.86700  0.73600  0.73400  1.0000
  O   O22       1.0  0.13300  0.23600  0.76600  1.0000
  O   O23       1.0  0.08870  0.88500  0.83400  1.0000
  O   O24       1.0  0.72900  0.50200  0.83500  1.0000
  O   O25       1.0  0.28800  0.50600  0.90400  1.0000
  O   O26       1.0  0.04450  0.49600  0.91300  1.0000
  O   O27       1.0  0.71500  0.17000  0.93300  1.0000
  O   O28       1.0  0.85500  0.86100  0.96700  1.0000
  Te  Te1       1.0  0.76200  0.97400  0.06790  1.0000
  Te  Te2       1.0  0.37800  0.60200  0.07700  1.0000
  Te  Te3       1.0  0.89800  0.50700  0.23700  1.0000
  Te  Te4       1.0  0.10200  0.00668  0.26300  1.0000
  Te  Te5       1.0  0.62200  0.10200  0.42300  1.0000
  Te  Te6       1.0  0.23800  0.47400  0.43200  1.0000
  Te  Te7       1.0  0.76200  0.52600  0.56800  1.0000
  Te  Te8       1.0  0.37800  0.89800  0.57700  1.0000
  Te  Te9       1.0  0.89800  0.99300  0.73700  1.0000
  Te  Te10      1.0  0.10200  0.49300  0.76300  1.0000
  Te  Te11      1.0  0.62200  0.39800  0.92300  1.0000
  Te  Te12      1.0  0.23800  0.02600  0.93200  1.0000
