data_image0
_chemical_formula_structural       Cl4Fe4O28Te12
_chemical_formula_sum              "Cl4 Fe4 O28 Te12"
_cell_length_a       10.6714
_cell_length_b       7.34807
_cell_length_c       10.7673
_cell_angle_alpha    90
_cell_angle_beta     111.316
_cell_angle_gamma    90

_space_group_name_H-M_alt    "P 1"
_space_group_IT_number       1

loop_
  _space_group_symop_operation_xyz
  'x, y, z'

loop_
  _atom_site_type_symbol
  _atom_site_label
  _atom_site_symmetry_multiplicity
  _atom_site_fract_x
  _atom_site_fract_y
  _atom_site_fract_z
  _atom_site_occupancy
  Cl  Cl1       1.0  0.49000  0.21300  0.11700  1.0000
  Cl  Cl2       1.0  0.51000  0.71300  0.38300  1.0000
  Cl  Cl3       1.0  0.49000  0.28700  0.61700  1.0000
  Cl  Cl4       1.0  0.51000  0.78700  0.88300  1.0000
  Fe  Fe1       1.0  0.11900  0.37100  0.09120  1.0000
  Fe  Fe2       1.0  0.88100  0.87100  0.40900  1.0000
  Fe  Fe3       1.0  0.11900  0.12900  0.59100  1.0000
  Fe  Fe4       1.0  0.88100  0.62900  0.90900  1.0000
  O   O1        1.0  0.15100  0.13700  0.03670  1.0000
  O   O2        1.0  0.30000  0.83100  0.07730  1.0000
  O   O3        1.0  0.95500  0.50400  0.08650  1.0000
  O   O4        1.0  0.70400  0.48800  0.08930  1.0000
  O   O5        1.0  0.90900  0.11600  0.16300  1.0000
  O   O6        1.0  0.28000  0.49700  0.17200  1.0000
  O   O7        1.0  0.86200  0.76300  0.23100  1.0000
  O   O8        1.0  0.13800  0.26300  0.26900  1.0000
  O   O9        1.0  0.72000  0.99700  0.32800  1.0000
  O   O10       1.0  0.09150  0.61600  0.33700  1.0000
  O   O11       1.0  0.29600  0.98800  0.41100  1.0000
  O   O12       1.0  0.04530  0.00445  0.41300  1.0000
  O   O13       1.0  0.70000  0.33100  0.42300  1.0000
  O   O14       1.0  0.84900  0.63700  0.46300  1.0000
  O   O15       1.0  0.15100  0.36300  0.53700  1.0000
  O   O16       1.0  0.30000  0.66900  0.57700  1.0000
  O   O17       1.0  0.95500  0.99600  0.58700  1.0000
  O   O18       1.0  0.70400  0.01180  0.58900  1.0000
  O   O19       1.0  0.90900  0.38400  0.66300  1.0000
  O   O20       1.0  0.28000  0.00318  0.67200  1.0000
  O   O21       1.0  0.86200  0.73700  0.73100  1.0000
  O   O22       1.0  0.13800  0.23700  0.76900  1.0000
  O   O23       1.0  0.72000  0.50300  0.82800  1.0000
  O   O24       1.0  0.09150  0.88400  0.83700  1.0000
  O   O25       1.0  0.29600  0.51200  0.91100  1.0000
  O   O26       1.0  0.04530  0.49600  0.91300  1.0000
  O   O27       1.0  0.70000  0.16900  0.92300  1.0000
  O   O28       1.0  0.84900  0.86300  0.96300  1.0000
  Te  Te1       1.0  0.75300  0.97500  0.06130  1.0000
  Te  Te2       1.0  0.39100  0.60000  0.08880  1.0000
  Te  Te3       1.0  0.89600  0.50500  0.23500  1.0000
  Te  Te4       1.0  0.10400  0.00518  0.26500  1.0000
  Te  Te5       1.0  0.60900  0.10000  0.41100  1.0000
  Te  Te6       1.0  0.24700  0.47500  0.43900  1.0000
  Te  Te7       1.0  0.75300  0.52500  0.56100  1.0000
  Te  Te8       1.0  0.39100  0.90000  0.58900  1.0000
  Te  Te9       1.0  0.89600  0.99500  0.73500  1.0000
  Te  Te10      1.0  0.10400  0.49500  0.76500  1.0000
  Te  Te11      1.0  0.60900  0.40000  0.91100  1.0000
  Te  Te12      1.0  0.24700  0.02460  0.93900  1.0000
