data_image0
_chemical_formula_structural       Ba4La8O28Sc8
_chemical_formula_sum              "Ba4 La8 O28 Sc8"
_cell_length_a       5.81635
_cell_length_b       5.81635
_cell_length_c       20.6052
_cell_angle_alpha    90
_cell_angle_beta     90
_cell_angle_gamma    90

_space_group_name_H-M_alt    "P 1"
_space_group_IT_number       1

loop_
  _space_group_symop_operation_xyz
  'x, y, z'

loop_
  _atom_site_type_symbol
  _atom_site_label
  _atom_site_symmetry_multiplicity
  _atom_site_fract_x
  _atom_site_fract_y
  _atom_site_fract_z
  _atom_site_occupancy
  Ba  Ba1       1.0  0.25900  0.25900  0.00000  1.0000
  Ba  Ba2       1.0  0.74100  0.74100  0.00000  1.0000
  Ba  Ba3       1.0  0.75900  0.24100  0.50000  1.0000
  Ba  Ba4       1.0  0.24100  0.75900  0.50000  1.0000
  La  La1       1.0  0.27100  0.27100  0.18400  1.0000
  La  La2       1.0  0.72900  0.72900  0.18400  1.0000
  La  La3       1.0  0.77100  0.22900  0.31600  1.0000
  La  La4       1.0  0.22900  0.77100  0.31600  1.0000
  La  La5       1.0  0.77100  0.22900  0.68400  1.0000
  La  La6       1.0  0.22900  0.77100  0.68400  1.0000
  La  La7       1.0  0.27100  0.27100  0.81600  1.0000
  La  La8       1.0  0.72900  0.72900  0.81600  1.0000
  O   O1        1.0  0.78300  0.21700  0.00000  1.0000
  O   O2        1.0  0.21700  0.78300  0.00000  1.0000
  O   O3        1.0  0.50000  0.50000  0.09420  1.0000
  O   O4        1.0  0.50000  0.00000  0.11100  1.0000
  O   O5        1.0  0.00000  0.50000  0.11100  1.0000
  O   O6        1.0  0.00000  0.00000  0.12600  1.0000
  O   O7        1.0  0.69300  0.30700  0.20800  1.0000
  O   O8        1.0  0.30700  0.69300  0.20800  1.0000
  O   O9        1.0  0.19300  0.19300  0.29200  1.0000
  O   O10       1.0  0.80700  0.80700  0.29200  1.0000
  O   O11       1.0  0.50000  0.50000  0.37400  1.0000
  O   O12       1.0  0.50000  0.00000  0.38900  1.0000
  O   O13       1.0  0.00000  0.50000  0.38900  1.0000
  O   O14       1.0  0.00000  0.00000  0.40600  1.0000
  O   O15       1.0  0.28300  0.28300  0.50000  1.0000
  O   O16       1.0  0.71700  0.71700  0.50000  1.0000
  O   O17       1.0  0.00000  0.00000  0.59400  1.0000
  O   O18       1.0  0.50000  0.00000  0.61100  1.0000
  O   O19       1.0  0.00000  0.50000  0.61100  1.0000
  O   O20       1.0  0.50000  0.50000  0.62600  1.0000
  O   O21       1.0  0.19300  0.19300  0.70800  1.0000
  O   O22       1.0  0.80700  0.80700  0.70800  1.0000
  O   O23       1.0  0.69300  0.30700  0.79200  1.0000
  O   O24       1.0  0.30700  0.69300  0.79200  1.0000
  O   O25       1.0  0.00000  0.00000  0.87400  1.0000
  O   O26       1.0  0.50000  0.00000  0.88900  1.0000
  O   O27       1.0  0.00000  0.50000  0.88900  1.0000
  O   O28       1.0  0.50000  0.50000  0.90600  1.0000
  Sc  Sc1       1.0  0.75600  0.24400  0.09980  1.0000
  Sc  Sc2       1.0  0.24400  0.75600  0.09980  1.0000
  Sc  Sc3       1.0  0.25600  0.25600  0.40000  1.0000
  Sc  Sc4       1.0  0.74400  0.74400  0.40000  1.0000
  Sc  Sc5       1.0  0.25600  0.25600  0.60000  1.0000
  Sc  Sc6       1.0  0.74400  0.74400  0.60000  1.0000
  Sc  Sc7       1.0  0.75600  0.24400  0.90000  1.0000
  Sc  Sc8       1.0  0.24400  0.75600  0.90000  1.0000
