data_image0
_chemical_formula_structural       Al3CePt
_chemical_formula_sum              "Al3 Ce1 Pt1"
_cell_length_a       4.36295
_cell_length_b       4.36295
_cell_length_c       6.19262
_cell_angle_alpha    110.626
_cell_angle_beta     110.626
_cell_angle_gamma    90

_space_group_name_H-M_alt    "P 1"
_space_group_IT_number       1

loop_
  _space_group_symop_operation_xyz
  'x, y, z'

loop_
  _atom_site_type_symbol
  _atom_site_label
  _atom_site_symmetry_multiplicity
  _atom_site_fract_x
  _atom_site_fract_y
  _atom_site_fract_z
  _atom_site_occupancy
  Al  Al1       1.0  0.60400  0.60400  0.20700  1.0000
  Al  Al2       1.0  0.94600  0.44600  0.89200  1.0000
  Al  Al3       1.0  0.44600  0.94600  0.89200  1.0000
  Ce  Ce1       1.0  0.19100  0.19100  0.38100  1.0000
  Pt  Pt1       1.0  0.83300  0.83300  0.66600  1.0000
