data_image0
_chemical_formula_structural       H16K8O8P4S12
_chemical_formula_sum              "H16 K8 O8 P4 S12"
_cell_length_a       7.93165
_cell_length_b       11.258
_cell_length_c       9.00388
_cell_angle_alpha    90
_cell_angle_beta     93.8723
_cell_angle_gamma    90

_space_group_name_H-M_alt    "P 1"
_space_group_IT_number       1

loop_
  _space_group_symop_operation_xyz
  'x, y, z'

loop_
  _atom_site_type_symbol
  _atom_site_label
  _atom_site_symmetry_multiplicity
  _atom_site_fract_x
  _atom_site_fract_y
  _atom_site_fract_z
  _atom_site_occupancy
  H   H1        1.0  0.84800  0.44700  0.07810  1.0000
  H   H2        1.0  0.16800  0.50100  0.08610  1.0000
  H   H3        1.0  0.07180  0.01240  0.20300  1.0000
  H   H4        1.0  0.87900  0.98400  0.20400  1.0000
  H   H5        1.0  0.62100  0.48400  0.29600  1.0000
  H   H6        1.0  0.42800  0.51200  0.29700  1.0000
  H   H7        1.0  0.33200  0.00124  0.41400  1.0000
  H   H8        1.0  0.65200  0.94700  0.42200  1.0000
  H   H9        1.0  0.34800  0.05320  0.57800  1.0000
  H   H10       1.0  0.66800  0.99900  0.58600  1.0000
  H   H11       1.0  0.57200  0.48800  0.70300  1.0000
  H   H12       1.0  0.37900  0.51600  0.70400  1.0000
  H   H13       1.0  0.12100  0.01600  0.79600  1.0000
  H   H14       1.0  0.92800  0.98800  0.79700  1.0000
  H   H15       1.0  0.83200  0.49900  0.91400  1.0000
  H   H16       1.0  0.15200  0.55300  0.92200  1.0000
  K   K1        1.0  0.55200  0.65000  0.03090  1.0000
  K   K2        1.0  0.10500  0.77300  0.09840  1.0000
  K   K3        1.0  0.39500  0.27300  0.40200  1.0000
  K   K4        1.0  0.94800  0.15000  0.46900  1.0000
  K   K5        1.0  0.05200  0.85000  0.53100  1.0000
  K   K6        1.0  0.60500  0.72700  0.59800  1.0000
  K   K7        1.0  0.89500  0.22700  0.90200  1.0000
  K   K8        1.0  0.44800  0.35000  0.96900  1.0000
  O   O1        1.0  0.22800  0.55000  0.01400  1.0000
  O   O2        1.0  0.51100  0.46300  0.24600  1.0000
  O   O3        1.0  0.98900  0.96300  0.25400  1.0000
  O   O4        1.0  0.27200  0.04990  0.48600  1.0000
  O   O5        1.0  0.72800  0.95000  0.51400  1.0000
  O   O6        1.0  0.01080  0.03740  0.74600  1.0000
  O   O7        1.0  0.48900  0.53700  0.75400  1.0000
  O   O8        1.0  0.77200  0.45000  0.98600  1.0000
  P   P1        1.0  0.47100  0.03530  0.11400  1.0000
  P   P2        1.0  0.02910  0.53500  0.38600  1.0000
  P   P3        1.0  0.97100  0.46500  0.61400  1.0000
  P   P4        1.0  0.52900  0.96500  0.88600  1.0000
  S   S1        1.0  0.24600  0.12200  0.08720  1.0000
  S   S2        1.0  0.66200  0.14800  0.17900  1.0000
  S   S3        1.0  0.45600  0.88800  0.24600  1.0000
  S   S4        1.0  0.04420  0.38800  0.25400  1.0000
  S   S5        1.0  0.83800  0.64800  0.32100  1.0000
  S   S6        1.0  0.25400  0.62200  0.41300  1.0000
  S   S7        1.0  0.74600  0.37800  0.58700  1.0000
  S   S8        1.0  0.16200  0.35200  0.67900  1.0000
  S   S9        1.0  0.95600  0.61200  0.74600  1.0000
  S   S10       1.0  0.54400  0.11200  0.75400  1.0000
  S   S11       1.0  0.33800  0.85200  0.82100  1.0000
  S   S12       1.0  0.75400  0.87800  0.91300  1.0000
