data_image0
_chemical_formula_structural       P6Rb10Se30Sn2
_chemical_formula_sum              "P6 Rb10 Se30 Sn2"
_cell_length_a       12.0209
_cell_length_b       19.62
_cell_length_c       7.45926
_cell_angle_alpha    100.085
_cell_angle_beta     107.712
_cell_angle_gamma    87.0009

_space_group_name_H-M_alt    "P 1"
_space_group_IT_number       1

loop_
  _space_group_symop_operation_xyz
  'x, y, z'

loop_
  _atom_site_type_symbol
  _atom_site_label
  _atom_site_symmetry_multiplicity
  _atom_site_fract_x
  _atom_site_fract_y
  _atom_site_fract_z
  _atom_site_occupancy
  P   P1        1.0  0.77100  0.92700  0.02710  1.0000
  P   P2        1.0  0.77700  0.56400  0.23200  1.0000
  P   P3        1.0  0.26100  0.74900  0.41200  1.0000
  P   P4        1.0  0.73900  0.25100  0.58800  1.0000
  P   P5        1.0  0.22300  0.43600  0.76800  1.0000
  P   P6        1.0  0.22900  0.07300  0.97300  1.0000
  Rb  Rb1       1.0  0.61600  0.37400  0.00188  1.0000
  Rb  Rb2       1.0  0.59500  0.11600  0.05840  1.0000
  Rb  Rb3       1.0  0.13400  0.96000  0.29500  1.0000
  Rb  Rb4       1.0  0.14300  0.54500  0.33000  1.0000
  Rb  Rb5       1.0  0.35300  0.24600  0.41500  1.0000
  Rb  Rb6       1.0  0.64700  0.75400  0.58500  1.0000
  Rb  Rb7       1.0  0.85700  0.45500  0.67000  1.0000
  Rb  Rb8       1.0  0.86600  0.04030  0.70500  1.0000
  Rb  Rb9       1.0  0.40500  0.88400  0.94200  1.0000
  Rb  Rb10      1.0  0.38400  0.62600  0.99800  1.0000
  Se  Se1       1.0  0.31800  0.39400  0.04780  1.0000
  Se  Se2       1.0  0.10500  0.15400  0.05120  1.0000
  Se  Se3       1.0  0.66600  0.76900  0.12500  1.0000
  Se  Se4       1.0  0.12700  0.71100  0.13000  1.0000
  Se  Se5       1.0  0.16500  0.36000  0.14500  1.0000
  Se  Se6       1.0  0.86900  0.46800  0.17600  1.0000
  Se  Se7       1.0  0.85400  0.02460  0.19300  1.0000
  Se  Se8       1.0  0.37300  0.05930  0.22600  1.0000
  Se  Se9       1.0  0.71000  0.88800  0.25900  1.0000
  Se  Se10      1.0  0.62400  0.55300  0.32700  1.0000
  Se  Se11      1.0  0.84800  0.23600  0.37500  1.0000
  Se  Se12      1.0  0.35700  0.83900  0.40800  1.0000
  Se  Se13      1.0  0.90300  0.64800  0.41400  1.0000
  Se  Se14      1.0  0.62400  0.33500  0.47900  1.0000
  Se  Se15      1.0  0.99500  0.83500  0.49300  1.0000
  Se  Se16      1.0  0.00513  0.16500  0.50700  1.0000
  Se  Se17      1.0  0.37600  0.66500  0.52100  1.0000
  Se  Se18      1.0  0.09720  0.35200  0.58600  1.0000
  Se  Se19      1.0  0.64300  0.16100  0.59200  1.0000
  Se  Se20      1.0  0.15200  0.76400  0.62500  1.0000
  Se  Se21      1.0  0.37600  0.44700  0.67300  1.0000
  Se  Se22      1.0  0.29000  0.11200  0.74100  1.0000
  Se  Se23      1.0  0.62700  0.94100  0.77400  1.0000
  Se  Se24      1.0  0.14600  0.97500  0.80700  1.0000
  Se  Se25      1.0  0.13100  0.53200  0.82400  1.0000
  Se  Se26      1.0  0.83500  0.64000  0.85500  1.0000
  Se  Se27      1.0  0.87300  0.28900  0.87000  1.0000
  Se  Se28      1.0  0.33400  0.23100  0.87500  1.0000
  Se  Se29      1.0  0.89500  0.84600  0.94900  1.0000
  Se  Se30      1.0  0.68200  0.60600  0.95200  1.0000
  Sn  Sn1       1.0  0.90100  0.74200  0.17000  1.0000
  Sn  Sn2       1.0  0.09850  0.25800  0.83000  1.0000
