data_image0
_chemical_formula_structural       Ba4Ca4H8O32P8
_chemical_formula_sum              "Ba4 Ca4 H8 O32 P8"
_cell_length_a       9.41169
_cell_length_b       7.90305
_cell_length_c       9.77187
_cell_angle_alpha    90
_cell_angle_beta     115.644
_cell_angle_gamma    90

_space_group_name_H-M_alt    "P 1"
_space_group_IT_number       1

loop_
  _space_group_symop_operation_xyz
  'x, y, z'

loop_
  _atom_site_type_symbol
  _atom_site_label
  _atom_site_symmetry_multiplicity
  _atom_site_fract_x
  _atom_site_fract_y
  _atom_site_fract_z
  _atom_site_occupancy
  Ba  Ba1       1.0  0.05180  0.14200  0.22300  1.0000
  Ba  Ba2       1.0  0.55200  0.35800  0.22300  1.0000
  Ba  Ba3       1.0  0.94800  0.85800  0.77700  1.0000
  Ba  Ba4       1.0  0.44800  0.64200  0.77700  1.0000
  Ca  Ca1       1.0  0.21300  0.64100  0.27800  1.0000
  Ca  Ca2       1.0  0.71300  0.85900  0.27800  1.0000
  Ca  Ca3       1.0  0.28700  0.14100  0.72200  1.0000
  Ca  Ca4       1.0  0.78700  0.35900  0.72200  1.0000
  H   H1        1.0  0.33600  0.66200  0.04860  1.0000
  H   H2        1.0  0.83600  0.83800  0.04860  1.0000
  H   H3        1.0  0.37300  0.96200  0.49100  1.0000
  H   H4        1.0  0.87300  0.53800  0.49100  1.0000
  H   H5        1.0  0.12700  0.46200  0.50900  1.0000
  H   H6        1.0  0.62700  0.03800  0.50900  1.0000
  H   H7        1.0  0.66400  0.33800  0.95100  1.0000
  H   H8        1.0  0.16400  0.16200  0.95100  1.0000
  O   O1        1.0  0.39500  0.76800  0.02430  1.0000
  O   O2        1.0  0.89500  0.73200  0.02430  1.0000
  O   O3        1.0  0.25600  0.53600  0.07540  1.0000
  O   O4        1.0  0.75600  0.96400  0.07540  1.0000
  O   O5        1.0  0.21900  0.89100  0.13900  1.0000
  O   O6        1.0  0.71900  0.60900  0.13900  1.0000
  O   O7        1.0  0.48300  0.02940  0.18400  1.0000
  O   O8        1.0  0.98300  0.47100  0.18400  1.0000
  O   O9        1.0  0.55200  0.66500  0.34900  1.0000
  O   O10       1.0  0.05170  0.83500  0.34900  1.0000
  O   O11       1.0  0.82900  0.13800  0.35800  1.0000
  O   O12       1.0  0.32900  0.36200  0.35800  1.0000
  O   O13       1.0  0.32600  0.08630  0.48400  1.0000
  O   O14       1.0  0.82600  0.41400  0.48400  1.0000
  O   O15       1.0  0.41300  0.79000  0.49600  1.0000
  O   O16       1.0  0.91300  0.71000  0.49600  1.0000
  O   O17       1.0  0.58700  0.21000  0.50400  1.0000
  O   O18       1.0  0.08700  0.29000  0.50400  1.0000
  O   O19       1.0  0.67400  0.91400  0.51600  1.0000
  O   O20       1.0  0.17400  0.58600  0.51600  1.0000
  O   O21       1.0  0.17100  0.86200  0.64200  1.0000
  O   O22       1.0  0.67100  0.63800  0.64200  1.0000
  O   O23       1.0  0.44800  0.33500  0.65100  1.0000
  O   O24       1.0  0.94800  0.16500  0.65100  1.0000
  O   O25       1.0  0.51700  0.97100  0.81600  1.0000
  O   O26       1.0  0.01730  0.52900  0.81600  1.0000
  O   O27       1.0  0.78100  0.10900  0.86100  1.0000
  O   O28       1.0  0.28100  0.39100  0.86100  1.0000
  O   O29       1.0  0.74400  0.46400  0.92500  1.0000
  O   O30       1.0  0.24400  0.03550  0.92500  1.0000
  O   O31       1.0  0.60500  0.23200  0.97600  1.0000
  O   O32       1.0  0.10500  0.26800  0.97600  1.0000
  P   P1        1.0  0.33600  0.93500  0.07460  1.0000
  P   P2        1.0  0.83600  0.56500  0.07460  1.0000
  P   P3        1.0  0.42500  0.25700  0.50000  1.0000
  P   P4        1.0  0.92500  0.24300  0.50000  1.0000
  P   P5        1.0  0.57500  0.74300  0.50000  1.0000
  P   P6        1.0  0.07490  0.75700  0.50000  1.0000
  P   P7        1.0  0.66400  0.06470  0.92500  1.0000
  P   P8        1.0  0.16400  0.43500  0.92500  1.0000
