data_image0
_chemical_formula_structural       Cd40Pt8
_chemical_formula_sum              "Cd40 Pt8"
_cell_length_a       9.96062
_cell_length_b       9.96062
_cell_length_c       9.96062
_cell_angle_alpha    90
_cell_angle_beta     90
_cell_angle_gamma    90

_space_group_name_H-M_alt    "P 1"
_space_group_IT_number       1

loop_
  _space_group_symop_operation_xyz
  'x, y, z'

loop_
  _atom_site_type_symbol
  _atom_site_label
  _atom_site_symmetry_multiplicity
  _atom_site_fract_x
  _atom_site_fract_y
  _atom_site_fract_z
  _atom_site_occupancy
  Cd  Cd1       1.0  0.23900  0.00000  0.00000  1.0000
  Cd  Cd2       1.0  0.76100  0.00000  0.00000  1.0000
  Cd  Cd3       1.0  0.00000  0.23900  0.00000  1.0000
  Cd  Cd4       1.0  0.00000  0.76100  0.00000  1.0000
  Cd  Cd5       1.0  0.29700  0.29700  0.04980  1.0000
  Cd  Cd6       1.0  0.70300  0.70300  0.04980  1.0000
  Cd  Cd7       1.0  0.50000  0.50000  0.14200  1.0000
  Cd  Cd8       1.0  0.53000  0.16900  0.16900  1.0000
  Cd  Cd9       1.0  0.83100  0.47000  0.16900  1.0000
  Cd  Cd10      1.0  0.16900  0.53000  0.16900  1.0000
  Cd  Cd11      1.0  0.47000  0.83100  0.16900  1.0000
  Cd  Cd12      1.0  0.00000  0.00000  0.23900  1.0000
  Cd  Cd13      1.0  0.29700  0.04980  0.29700  1.0000
  Cd  Cd14      1.0  0.04980  0.29700  0.29700  1.0000
  Cd  Cd15      1.0  0.95000  0.70300  0.29700  1.0000
  Cd  Cd16      1.0  0.70300  0.95000  0.29700  1.0000
  Cd  Cd17      1.0  0.61900  0.38100  0.38100  1.0000
  Cd  Cd18      1.0  0.38100  0.61900  0.38100  1.0000
  Cd  Cd19      1.0  0.83100  0.16900  0.47000  1.0000
  Cd  Cd20      1.0  0.16900  0.83100  0.47000  1.0000
  Cd  Cd21      1.0  0.50000  0.14200  0.50000  1.0000
  Cd  Cd22      1.0  0.14200  0.50000  0.50000  1.0000
  Cd  Cd23      1.0  0.85800  0.50000  0.50000  1.0000
  Cd  Cd24      1.0  0.50000  0.85800  0.50000  1.0000
  Cd  Cd25      1.0  0.16900  0.16900  0.53000  1.0000
  Cd  Cd26      1.0  0.83100  0.83100  0.53000  1.0000
  Cd  Cd27      1.0  0.38100  0.38100  0.61900  1.0000
  Cd  Cd28      1.0  0.61900  0.61900  0.61900  1.0000
  Cd  Cd29      1.0  0.70300  0.04980  0.70300  1.0000
  Cd  Cd30      1.0  0.95000  0.29700  0.70300  1.0000
  Cd  Cd31      1.0  0.04980  0.70300  0.70300  1.0000
  Cd  Cd32      1.0  0.29700  0.95000  0.70300  1.0000
  Cd  Cd33      1.0  0.00000  0.00000  0.76100  1.0000
  Cd  Cd34      1.0  0.47000  0.16900  0.83100  1.0000
  Cd  Cd35      1.0  0.16900  0.47000  0.83100  1.0000
  Cd  Cd36      1.0  0.83100  0.53000  0.83100  1.0000
  Cd  Cd37      1.0  0.53000  0.83100  0.83100  1.0000
  Cd  Cd38      1.0  0.50000  0.50000  0.85800  1.0000
  Cd  Cd39      1.0  0.70300  0.29700  0.95000  1.0000
  Cd  Cd40      1.0  0.29700  0.70300  0.95000  1.0000
  Pt  Pt1       1.0  0.80600  0.19400  0.19400  1.0000
  Pt  Pt2       1.0  0.19400  0.80600  0.19400  1.0000
  Pt  Pt3       1.0  0.33400  0.33400  0.33400  1.0000
  Pt  Pt4       1.0  0.66600  0.66600  0.33400  1.0000
  Pt  Pt5       1.0  0.66600  0.33400  0.66600  1.0000
  Pt  Pt6       1.0  0.33400  0.66600  0.66600  1.0000
  Pt  Pt7       1.0  0.19400  0.19400  0.80600  1.0000
  Pt  Pt8       1.0  0.80600  0.80600  0.80600  1.0000
