data_image0
_chemical_formula_structural       C4Gd8N24Si16
_chemical_formula_sum              "C4 Gd8 N24 Si16"
_cell_length_a       5.95767
_cell_length_b       9.93329
_cell_length_c       11.9358
_cell_angle_alpha    90
_cell_angle_beta     119.536
_cell_angle_gamma    90

_space_group_name_H-M_alt    "P 1"
_space_group_IT_number       1

loop_
  _space_group_symop_operation_xyz
  'x, y, z'

loop_
  _atom_site_type_symbol
  _atom_site_label
  _atom_site_symmetry_multiplicity
  _atom_site_fract_x
  _atom_site_fract_y
  _atom_site_fract_z
  _atom_site_occupancy
  C   C1        1.0  0.97500  0.79300  0.24700  1.0000
  C   C2        1.0  0.02520  0.29300  0.25300  1.0000
  C   C3        1.0  0.97500  0.70700  0.74700  1.0000
  C   C4        1.0  0.02520  0.20700  0.75300  1.0000
  Gd  Gd1       1.0  0.33800  0.91400  0.07910  1.0000
  Gd  Gd2       1.0  0.33400  0.56100  0.09770  1.0000
  Gd  Gd3       1.0  0.66600  0.06130  0.40200  1.0000
  Gd  Gd4       1.0  0.66200  0.41400  0.42100  1.0000
  Gd  Gd5       1.0  0.33800  0.58600  0.57900  1.0000
  Gd  Gd6       1.0  0.33400  0.93900  0.59800  1.0000
  Gd  Gd7       1.0  0.66600  0.43900  0.90200  1.0000
  Gd  Gd8       1.0  0.66200  0.08560  0.92100  1.0000
  N   N1        1.0  0.50700  0.29200  0.00216  1.0000
  N   N2        1.0  0.04560  0.21300  0.01020  1.0000
  N   N3        1.0  0.93900  0.54500  0.10100  1.0000
  N   N4        1.0  0.70000  0.05560  0.13900  1.0000
  N   N5        1.0  0.23600  0.03700  0.22000  1.0000
  N   N6        1.0  0.51700  0.26600  0.24500  1.0000
  N   N7        1.0  0.48300  0.76600  0.25500  1.0000
  N   N8        1.0  0.76400  0.53700  0.28000  1.0000
  N   N9        1.0  0.30000  0.55600  0.36100  1.0000
  N   N10       1.0  0.06060  0.04500  0.39900  1.0000
  N   N11       1.0  0.95400  0.71300  0.49000  1.0000
  N   N12       1.0  0.49300  0.79200  0.49800  1.0000
  N   N13       1.0  0.50700  0.20800  0.50200  1.0000
  N   N14       1.0  0.04560  0.28700  0.51000  1.0000
  N   N15       1.0  0.93900  0.95500  0.60100  1.0000
  N   N16       1.0  0.70000  0.44400  0.63900  1.0000
  N   N17       1.0  0.23600  0.46300  0.72000  1.0000
  N   N18       1.0  0.51700  0.23400  0.74500  1.0000
  N   N19       1.0  0.48300  0.73400  0.75500  1.0000
  N   N20       1.0  0.76400  0.96300  0.78000  1.0000
  N   N21       1.0  0.30000  0.94400  0.86100  1.0000
  N   N22       1.0  0.06060  0.45500  0.89900  1.0000
  N   N23       1.0  0.95400  0.78700  0.99000  1.0000
  N   N24       1.0  0.49300  0.70800  0.99800  1.0000
  Si  Si1       1.0  0.83300  0.71300  0.07960  1.0000
  Si  Si2       1.0  0.67800  0.23000  0.16000  1.0000
  Si  Si3       1.0  0.20100  0.20700  0.17600  1.0000
  Si  Si4       1.0  0.99300  0.98100  0.25000  1.0000
  Si  Si5       1.0  0.00667  0.48100  0.25000  1.0000
  Si  Si6       1.0  0.79900  0.70700  0.32400  1.0000
  Si  Si7       1.0  0.32200  0.73000  0.34000  1.0000
  Si  Si8       1.0  0.16700  0.21300  0.42000  1.0000
  Si  Si9       1.0  0.83300  0.78700  0.58000  1.0000
  Si  Si10      1.0  0.67800  0.27000  0.66000  1.0000
  Si  Si11      1.0  0.20100  0.29300  0.67600  1.0000
  Si  Si12      1.0  0.99300  0.51900  0.75000  1.0000
  Si  Si13      1.0  0.00667  0.01920  0.75000  1.0000
  Si  Si14      1.0  0.79900  0.79300  0.82400  1.0000
  Si  Si15      1.0  0.32200  0.77000  0.84000  1.0000
  Si  Si16      1.0  0.16700  0.28700  0.92000  1.0000
