data_image0
_chemical_formula_structural       Er8Fe16H24
_chemical_formula_sum              "Er8 Fe16 H24"
_cell_length_a       7.63092
_cell_length_b       7.63092
_cell_length_c       7.63092
_cell_angle_alpha    93.5644
_cell_angle_beta     93.5644
_cell_angle_gamma    93.5644

_space_group_name_H-M_alt    "P 1"
_space_group_IT_number       1

loop_
  _space_group_symop_operation_xyz
  'x, y, z'

loop_
  _atom_site_type_symbol
  _atom_site_label
  _atom_site_symmetry_multiplicity
  _atom_site_fract_x
  _atom_site_fract_y
  _atom_site_fract_z
  _atom_site_occupancy
  Er  Er1       1.0  0.63400  0.63400  0.13400  1.0000
  Er  Er2       1.0  0.13400  0.13400  0.13400  1.0000
  Er  Er3       1.0  0.36600  0.86600  0.36600  1.0000
  Er  Er4       1.0  0.86600  0.36600  0.36600  1.0000
  Er  Er5       1.0  0.13400  0.63400  0.63400  1.0000
  Er  Er6       1.0  0.63400  0.13400  0.63400  1.0000
  Er  Er7       1.0  0.86600  0.86600  0.86600  1.0000
  Er  Er8       1.0  0.36600  0.36600  0.86600  1.0000
  Fe  Fe1       1.0  0.50000  0.00000  0.00000  1.0000
  Fe  Fe2       1.0  0.75000  0.25000  0.00000  1.0000
  Fe  Fe3       1.0  0.00000  0.50000  0.00000  1.0000
  Fe  Fe4       1.0  0.25000  0.75000  0.00000  1.0000
  Fe  Fe5       1.0  0.00000  0.75000  0.25000  1.0000
  Fe  Fe6       1.0  0.75000  0.00000  0.25000  1.0000
  Fe  Fe7       1.0  0.25000  0.50000  0.25000  1.0000
  Fe  Fe8       1.0  0.50000  0.25000  0.25000  1.0000
  Fe  Fe9       1.0  0.75000  0.75000  0.50000  1.0000
  Fe  Fe10      1.0  0.00000  0.00000  0.50000  1.0000
  Fe  Fe11      1.0  0.50000  0.50000  0.50000  1.0000
  Fe  Fe12      1.0  0.25000  0.25000  0.50000  1.0000
  Fe  Fe13      1.0  0.75000  0.50000  0.75000  1.0000
  Fe  Fe14      1.0  0.50000  0.75000  0.75000  1.0000
  Fe  Fe15      1.0  0.25000  0.00000  0.75000  1.0000
  Fe  Fe16      1.0  0.00000  0.25000  0.75000  1.0000
  H   H1        1.0  0.84300  0.84300  0.13700  1.0000
  H   H2        1.0  0.34400  0.34400  0.13800  1.0000
  H   H3        1.0  0.65700  0.36200  0.15700  1.0000
  H   H4        1.0  0.36200  0.65700  0.15700  1.0000
  H   H5        1.0  0.15700  0.86300  0.15700  1.0000
  H   H6        1.0  0.86300  0.15700  0.15700  1.0000
  H   H7        1.0  0.84300  0.63800  0.34300  1.0000
  H   H8        1.0  0.63800  0.84300  0.34300  1.0000
  H   H9        1.0  0.13800  0.34400  0.34400  1.0000
  H   H10       1.0  0.34400  0.13800  0.34400  1.0000
  H   H11       1.0  0.65700  0.15700  0.36200  1.0000
  H   H12       1.0  0.15700  0.65700  0.36200  1.0000
  H   H13       1.0  0.84300  0.34300  0.63800  1.0000
  H   H14       1.0  0.34300  0.84300  0.63800  1.0000
  H   H15       1.0  0.65600  0.86200  0.65600  1.0000
  H   H16       1.0  0.86200  0.65600  0.65600  1.0000
  H   H17       1.0  0.36200  0.15700  0.65700  1.0000
  H   H18       1.0  0.15700  0.36200  0.65700  1.0000
  H   H19       1.0  0.84300  0.13700  0.84300  1.0000
  H   H20       1.0  0.13700  0.84300  0.84300  1.0000
  H   H21       1.0  0.63800  0.34300  0.84300  1.0000
  H   H22       1.0  0.34300  0.63800  0.84300  1.0000
  H   H23       1.0  0.65600  0.65600  0.86200  1.0000
  H   H24       1.0  0.15700  0.15700  0.86300  1.0000
