data_image0
_chemical_formula_structural       Fe4H24N8O16P4
_chemical_formula_sum              "Fe4 H24 N8 O16 P4"
_cell_length_a       9.96831
_cell_length_b       6.33827
_cell_length_c       7.46845
_cell_angle_alpha    90
_cell_angle_beta     90
_cell_angle_gamma    90

_space_group_name_H-M_alt    "P 1"
_space_group_IT_number       1

loop_
  _space_group_symop_operation_xyz
  'x, y, z'

loop_
  _atom_site_type_symbol
  _atom_site_label
  _atom_site_symmetry_multiplicity
  _atom_site_fract_x
  _atom_site_fract_y
  _atom_site_fract_z
  _atom_site_occupancy
  Fe  Fe1       1.0  0.84100  0.75000  0.08970  1.0000
  Fe  Fe2       1.0  0.34100  0.75000  0.41000  1.0000
  Fe  Fe3       1.0  0.65900  0.25000  0.59000  1.0000
  Fe  Fe4       1.0  0.15900  0.25000  0.91000  1.0000
  H   H1        1.0  0.57400  0.75000  0.09170  1.0000
  H   H2        1.0  0.37300  0.11900  0.09290  1.0000
  H   H3        1.0  0.37300  0.38100  0.09290  1.0000
  H   H4        1.0  0.04360  0.11900  0.21100  1.0000
  H   H5        1.0  0.04360  0.38100  0.21100  1.0000
  H   H6        1.0  0.68100  0.25000  0.22700  1.0000
  H   H7        1.0  0.18100  0.25000  0.27300  1.0000
  H   H8        1.0  0.54400  0.11900  0.28900  1.0000
  H   H9        1.0  0.54400  0.38100  0.28900  1.0000
  H   H10       1.0  0.87300  0.11900  0.40700  1.0000
  H   H11       1.0  0.87300  0.38100  0.40700  1.0000
  H   H12       1.0  0.07410  0.75000  0.40800  1.0000
  H   H13       1.0  0.92600  0.25000  0.59200  1.0000
  H   H14       1.0  0.12700  0.61900  0.59300  1.0000
  H   H15       1.0  0.12700  0.88100  0.59300  1.0000
  H   H16       1.0  0.45600  0.61900  0.71100  1.0000
  H   H17       1.0  0.45600  0.88100  0.71100  1.0000
  H   H18       1.0  0.81900  0.75000  0.72700  1.0000
  H   H19       1.0  0.31900  0.75000  0.77300  1.0000
  H   H20       1.0  0.95600  0.61900  0.78900  1.0000
  H   H21       1.0  0.95600  0.88100  0.78900  1.0000
  H   H22       1.0  0.62700  0.61900  0.90700  1.0000
  H   H23       1.0  0.62700  0.88100  0.90700  1.0000
  H   H24       1.0  0.42600  0.25000  0.90800  1.0000
  N   N1        1.0  0.36000  0.25000  0.01450  1.0000
  N   N2        1.0  0.10100  0.25000  0.18800  1.0000
  N   N3        1.0  0.60100  0.25000  0.31200  1.0000
  N   N4        1.0  0.86000  0.25000  0.48500  1.0000
  N   N5        1.0  0.14000  0.75000  0.51500  1.0000
  N   N6        1.0  0.39900  0.75000  0.68800  1.0000
  N   N7        1.0  0.89900  0.75000  0.81200  1.0000
  N   N8        1.0  0.64000  0.75000  0.98500  1.0000
  O   O1        1.0  0.83600  0.05840  0.08950  1.0000
  O   O2        1.0  0.83600  0.44200  0.08950  1.0000
  O   O3        1.0  0.29300  0.75000  0.15300  1.0000
  O   O4        1.0  0.03870  0.75000  0.16100  1.0000
  O   O5        1.0  0.53900  0.75000  0.33900  1.0000
  O   O6        1.0  0.79300  0.75000  0.34700  1.0000
  O   O7        1.0  0.33600  0.05840  0.41000  1.0000
  O   O8        1.0  0.33600  0.44200  0.41000  1.0000
  O   O9        1.0  0.66400  0.55800  0.59000  1.0000
  O   O10       1.0  0.66400  0.94200  0.59000  1.0000
  O   O11       1.0  0.20700  0.25000  0.65300  1.0000
  O   O12       1.0  0.46100  0.25000  0.66100  1.0000
  O   O13       1.0  0.96100  0.25000  0.83900  1.0000
  O   O14       1.0  0.70700  0.25000  0.84700  1.0000
  O   O15       1.0  0.16400  0.55800  0.91000  1.0000
  O   O16       1.0  0.16400  0.94200  0.91000  1.0000
  P   P1        1.0  0.16400  0.75000  0.03850  1.0000
  P   P2        1.0  0.66400  0.75000  0.46100  1.0000
  P   P3        1.0  0.33600  0.25000  0.53900  1.0000
  P   P4        1.0  0.83600  0.25000  0.96100  1.0000
