data_image0
_chemical_formula_structural       Ba8C8F12Gd4O24
_chemical_formula_sum              "Ba8 C8 F12 Gd4 O24"
_cell_length_a       9.43921
_cell_length_b       6.88525
_cell_length_c       11.7888
_cell_angle_alpha    90
_cell_angle_beta     90
_cell_angle_gamma    90

_space_group_name_H-M_alt    "P 1"
_space_group_IT_number       1

loop_
  _space_group_symop_operation_xyz
  'x, y, z'

loop_
  _atom_site_type_symbol
  _atom_site_label
  _atom_site_symmetry_multiplicity
  _atom_site_fract_x
  _atom_site_fract_y
  _atom_site_fract_z
  _atom_site_occupancy
  Ba  Ba1       1.0  0.37900  0.24000  0.07090  1.0000
  Ba  Ba2       1.0  0.12100  0.74000  0.07090  1.0000
  Ba  Ba3       1.0  0.62100  0.24000  0.42900  1.0000
  Ba  Ba4       1.0  0.87900  0.74000  0.42900  1.0000
  Ba  Ba5       1.0  0.12100  0.26000  0.57100  1.0000
  Ba  Ba6       1.0  0.37900  0.76000  0.57100  1.0000
  Ba  Ba7       1.0  0.87900  0.26000  0.92900  1.0000
  Ba  Ba8       1.0  0.62100  0.76000  0.92900  1.0000
  C   C1        1.0  0.69400  0.47800  0.17800  1.0000
  C   C2        1.0  0.80600  0.97800  0.17800  1.0000
  C   C3        1.0  0.30600  0.47800  0.32200  1.0000
  C   C4        1.0  0.19400  0.97800  0.32200  1.0000
  C   C5        1.0  0.80600  0.02210  0.67800  1.0000
  C   C6        1.0  0.69400  0.52200  0.67800  1.0000
  C   C7        1.0  0.19400  0.02210  0.82200  1.0000
  C   C8        1.0  0.30600  0.52200  0.82200  1.0000
  F   F1        1.0  0.09700  0.34900  0.07470  1.0000
  F   F2        1.0  0.40300  0.84900  0.07470  1.0000
  F   F3        1.0  0.50000  0.10600  0.25000  1.0000
  F   F4        1.0  0.00000  0.60600  0.25000  1.0000
  F   F5        1.0  0.90300  0.34900  0.42500  1.0000
  F   F6        1.0  0.59700  0.84900  0.42500  1.0000
  F   F7        1.0  0.40300  0.15100  0.57500  1.0000
  F   F8        1.0  0.09700  0.65100  0.57500  1.0000
  F   F9        1.0  0.00000  0.39400  0.75000  1.0000
  F   F10       1.0  0.50000  0.89400  0.75000  1.0000
  F   F11       1.0  0.59700  0.15100  0.92500  1.0000
  F   F12       1.0  0.90300  0.65100  0.92500  1.0000
  Gd  Gd1       1.0  0.00000  0.27300  0.25000  1.0000
  Gd  Gd2       1.0  0.50000  0.77300  0.25000  1.0000
  Gd  Gd3       1.0  0.50000  0.22700  0.75000  1.0000
  Gd  Gd4       1.0  0.00000  0.72700  0.75000  1.0000
  O   O1        1.0  0.91300  0.01770  0.11300  1.0000
  O   O2        1.0  0.58700  0.51800  0.11300  1.0000
  O   O3        1.0  0.79900  0.38000  0.14100  1.0000
  O   O4        1.0  0.70100  0.88000  0.14100  1.0000
  O   O5        1.0  0.18900  0.04220  0.21800  1.0000
  O   O6        1.0  0.31100  0.54200  0.21800  1.0000
  O   O7        1.0  0.81100  0.04220  0.28200  1.0000
  O   O8        1.0  0.68900  0.54200  0.28200  1.0000
  O   O9        1.0  0.20100  0.38000  0.35900  1.0000
  O   O10       1.0  0.29900  0.88000  0.35900  1.0000
  O   O11       1.0  0.08670  0.01770  0.38700  1.0000
  O   O12       1.0  0.41300  0.51800  0.38700  1.0000
  O   O13       1.0  0.58700  0.48200  0.61300  1.0000
  O   O14       1.0  0.91300  0.98200  0.61300  1.0000
  O   O15       1.0  0.70100  0.12000  0.64100  1.0000
  O   O16       1.0  0.79900  0.62000  0.64100  1.0000
  O   O17       1.0  0.31100  0.45800  0.71800  1.0000
  O   O18       1.0  0.18900  0.95800  0.71800  1.0000
  O   O19       1.0  0.68900  0.45800  0.78200  1.0000
  O   O20       1.0  0.81100  0.95800  0.78200  1.0000
  O   O21       1.0  0.29900  0.12000  0.85900  1.0000
  O   O22       1.0  0.20100  0.62000  0.85900  1.0000
  O   O23       1.0  0.41300  0.48200  0.88700  1.0000
  O   O24       1.0  0.08670  0.98200  0.88700  1.0000
