data_image0
_chemical_formula_structural       C12Dy2Fe2H16N12O8
_chemical_formula_sum              "C12 Dy2 Fe2 H16 N12 O8"
_cell_length_a       7.26727
_cell_length_b       7.23023
_cell_length_c       13.426
_cell_angle_alpha    90
_cell_angle_beta     90
_cell_angle_gamma    59.8304

_space_group_name_H-M_alt    "P 1"
_space_group_IT_number       1

loop_
  _space_group_symop_operation_xyz
  'x, y, z'

loop_
  _atom_site_type_symbol
  _atom_site_label
  _atom_site_symmetry_multiplicity
  _atom_site_fract_x
  _atom_site_fract_y
  _atom_site_fract_z
  _atom_site_occupancy
  C   C1        1.0  0.63900  0.72300  0.05710  1.0000
  C   C2        1.0  0.27000  0.08490  0.09080  1.0000
  C   C3        1.0  0.64500  0.08490  0.09080  1.0000
  C   C4        1.0  0.27000  0.08490  0.40900  1.0000
  C   C5        1.0  0.64500  0.08490  0.40900  1.0000
  C   C6        1.0  0.63900  0.72300  0.44300  1.0000
  C   C7        1.0  0.36100  0.27700  0.55700  1.0000
  C   C8        1.0  0.35500  0.91500  0.59100  1.0000
  C   C9        1.0  0.73000  0.91500  0.59100  1.0000
  C   C10       1.0  0.35500  0.91500  0.90900  1.0000
  C   C11       1.0  0.73000  0.91500  0.90900  1.0000
  C   C12       1.0  0.36100  0.27700  0.94300  1.0000
  Dy  Dy1       1.0  0.82100  0.35900  0.25000  1.0000
  Dy  Dy2       1.0  0.17900  0.64100  0.75000  1.0000
  Fe  Fe1       1.0  0.50000  0.00000  0.00000  1.0000
  Fe  Fe2       1.0  0.50000  0.00000  0.50000  1.0000
  H   H1        1.0  0.18900  0.62200  0.03610  1.0000
  H   H2        1.0  0.07860  0.84300  0.09380  1.0000
  H   H3        1.0  0.02150  0.61600  0.19000  1.0000
  H   H4        1.0  0.36200  0.61600  0.19000  1.0000
  H   H5        1.0  0.02150  0.61600  0.31000  1.0000
  H   H6        1.0  0.36200  0.61600  0.31000  1.0000
  H   H7        1.0  0.07860  0.84300  0.40600  1.0000
  H   H8        1.0  0.18900  0.62200  0.46400  1.0000
  H   H9        1.0  0.81100  0.37800  0.53600  1.0000
  H   H10       1.0  0.92100  0.15700  0.59400  1.0000
  H   H11       1.0  0.63800  0.38400  0.69000  1.0000
  H   H12       1.0  0.97800  0.38400  0.69000  1.0000
  H   H13       1.0  0.63800  0.38400  0.81000  1.0000
  H   H14       1.0  0.97800  0.38400  0.81000  1.0000
  H   H15       1.0  0.92100  0.15700  0.90600  1.0000
  H   H16       1.0  0.81100  0.37800  0.96400  1.0000
  N   N1        1.0  0.72500  0.55000  0.09050  1.0000
  N   N2        1.0  0.12300  0.14900  0.14400  1.0000
  N   N3        1.0  0.72900  0.14900  0.14400  1.0000
  N   N4        1.0  0.12300  0.14900  0.35600  1.0000
  N   N5        1.0  0.72900  0.14900  0.35600  1.0000
  N   N6        1.0  0.72500  0.55000  0.40900  1.0000
  N   N7        1.0  0.27500  0.45000  0.59100  1.0000
  N   N8        1.0  0.27100  0.85100  0.64400  1.0000
  N   N9        1.0  0.87700  0.85100  0.64400  1.0000
  N   N10       1.0  0.27100  0.85100  0.85600  1.0000
  N   N11       1.0  0.87700  0.85100  0.85600  1.0000
  N   N12       1.0  0.27500  0.45000  0.90900  1.0000
  O   O1        1.0  0.15600  0.68800  0.10300  1.0000
  O   O2        1.0  0.45400  0.58500  0.25000  1.0000
  O   O3        1.0  0.96100  0.58500  0.25000  1.0000
  O   O4        1.0  0.15600  0.68800  0.39700  1.0000
  O   O5        1.0  0.84400  0.31200  0.60300  1.0000
  O   O6        1.0  0.03870  0.41500  0.75000  1.0000
  O   O7        1.0  0.54600  0.41500  0.75000  1.0000
  O   O8        1.0  0.84400  0.31200  0.89700  1.0000
