data_image0
_chemical_formula_structural       Bi4C2
_chemical_formula_sum              "Bi4 C2"
_cell_length_a       6.77172
_cell_length_b       5.65074
_cell_length_c       3.55587
_cell_angle_alpha    90
_cell_angle_beta     90
_cell_angle_gamma    90

_space_group_name_H-M_alt    "P 1"
_space_group_IT_number       1

loop_
  _space_group_symop_operation_xyz
  'x, y, z'

loop_
  _atom_site_type_symbol
  _atom_site_label
  _atom_site_symmetry_multiplicity
  _atom_site_fract_x
  _atom_site_fract_y
  _atom_site_fract_z
  _atom_site_occupancy
  Bi  Bi1       1.0  0.15000  0.26300  0.00000  1.0000
  Bi  Bi2       1.0  0.85000  0.73700  0.00000  1.0000
  Bi  Bi3       1.0  0.65000  0.23700  0.50000  1.0000
  Bi  Bi4       1.0  0.35000  0.76300  0.50000  1.0000
  C   C1        1.0  0.50000  0.50000  0.00000  1.0000
  C   C2        1.0  0.00000  0.00000  0.50000  1.0000
