data_image0
_chemical_formula_structural       Ba10F2O30Re6
_chemical_formula_sum              "Ba10 F2 O30 Re6"
_cell_length_a       10.7904
_cell_length_b       10.7904
_cell_length_c       7.83293
_cell_angle_alpha    90
_cell_angle_beta     90
_cell_angle_gamma    120.001

_space_group_name_H-M_alt    "P 1"
_space_group_IT_number       1

loop_
  _space_group_symop_operation_xyz
  'x, y, z'

loop_
  _atom_site_type_symbol
  _atom_site_label
  _atom_site_symmetry_multiplicity
  _atom_site_fract_x
  _atom_site_fract_y
  _atom_site_fract_z
  _atom_site_occupancy
  Ba  Ba1       1.0  0.66700  0.33300  0.00037  1.0000
  Ba  Ba2       1.0  0.33300  0.66700  0.00037  1.0000
  Ba  Ba3       1.0  0.74800  0.00000  0.24100  1.0000
  Ba  Ba4       1.0  0.00000  0.74800  0.24100  1.0000
  Ba  Ba5       1.0  0.25200  0.25200  0.24100  1.0000
  Ba  Ba6       1.0  0.66700  0.33300  0.50000  1.0000
  Ba  Ba7       1.0  0.33300  0.66700  0.50000  1.0000
  Ba  Ba8       1.0  0.25200  0.00000  0.74100  1.0000
  Ba  Ba9       1.0  0.00000  0.25200  0.74100  1.0000
  Ba  Ba10      1.0  0.74800  0.74800  0.74100  1.0000
  F   F1        1.0  0.00000  0.00000  0.26800  1.0000
  F   F2        1.0  0.00000  0.00000  0.76800  1.0000
  O   O1        1.0  0.28800  0.00000  0.11600  1.0000
  O   O2        1.0  0.00000  0.28800  0.11600  1.0000
  O   O3        1.0  0.71200  0.71200  0.11600  1.0000
  O   O4        1.0  0.86700  0.44600  0.25300  1.0000
  O   O5        1.0  0.44600  0.86700  0.25300  1.0000
  O   O6        1.0  0.55400  0.42000  0.25300  1.0000
  O   O7        1.0  0.42000  0.55400  0.25300  1.0000
  O   O8        1.0  0.58000  0.13300  0.25300  1.0000
  O   O9        1.0  0.13300  0.58000  0.25300  1.0000
  O   O10       1.0  0.38600  0.13400  0.43800  1.0000
  O   O11       1.0  0.86600  0.25200  0.43800  1.0000
  O   O12       1.0  0.13400  0.38600  0.43800  1.0000
  O   O13       1.0  0.74800  0.61400  0.43800  1.0000
  O   O14       1.0  0.61400  0.74800  0.43800  1.0000
  O   O15       1.0  0.25200  0.86600  0.43800  1.0000
  O   O16       1.0  0.71200  0.00000  0.61600  1.0000
  O   O17       1.0  0.00000  0.71200  0.61600  1.0000
  O   O18       1.0  0.28800  0.28800  0.61600  1.0000
  O   O19       1.0  0.55400  0.13300  0.75300  1.0000
  O   O20       1.0  0.13300  0.55400  0.75300  1.0000
  O   O21       1.0  0.58000  0.44600  0.75300  1.0000
  O   O22       1.0  0.44600  0.58000  0.75300  1.0000
  O   O23       1.0  0.86700  0.42000  0.75300  1.0000
  O   O24       1.0  0.42000  0.86700  0.75300  1.0000
  O   O25       1.0  0.38600  0.25200  0.93800  1.0000
  O   O26       1.0  0.25200  0.38600  0.93800  1.0000
  O   O27       1.0  0.86600  0.61400  0.93800  1.0000
  O   O28       1.0  0.61400  0.86600  0.93800  1.0000
  O   O29       1.0  0.74800  0.13400  0.93800  1.0000
  O   O30       1.0  0.13400  0.74800  0.93800  1.0000
  Re  Re1       1.0  0.38900  0.00000  0.29300  1.0000
  Re  Re2       1.0  0.00000  0.38900  0.29300  1.0000
  Re  Re3       1.0  0.61100  0.61100  0.29300  1.0000
  Re  Re4       1.0  0.61100  0.00000  0.79300  1.0000
  Re  Re5       1.0  0.00000  0.61100  0.79300  1.0000
  Re  Re6       1.0  0.38900  0.38900  0.79300  1.0000
