data_image0
_chemical_formula_structural       Ca2H24N4O20S4
_chemical_formula_sum              "Ca2 H24 N4 O20 S4"
_cell_length_a       6.82655
_cell_length_b       6.82655
_cell_length_c       11.1439
_cell_angle_alpha    97.5611
_cell_angle_beta     97.5611
_cell_angle_gamma    65.6675

_space_group_name_H-M_alt    "P 1"
_space_group_IT_number       1

loop_
  _space_group_symop_operation_xyz
  'x, y, z'

loop_
  _atom_site_type_symbol
  _atom_site_label
  _atom_site_symmetry_multiplicity
  _atom_site_fract_x
  _atom_site_fract_y
  _atom_site_fract_z
  _atom_site_occupancy
  Ca  Ca1       1.0  0.92700  0.07270  0.25000  1.0000
  Ca  Ca2       1.0  0.07270  0.92700  0.75000  1.0000
  H   H1        1.0  0.03320  0.78900  0.00486  1.0000
  H   H2        1.0  0.63800  0.26600  0.03130  1.0000
  H   H3        1.0  0.81800  0.78400  0.04830  1.0000
  H   H4        1.0  0.69800  0.45400  0.09670  1.0000
  H   H5        1.0  0.16000  0.56200  0.13700  1.0000
  H   H6        1.0  0.35400  0.31300  0.18800  1.0000
  H   H7        1.0  0.68700  0.64600  0.31200  1.0000
  H   H8        1.0  0.43800  0.84000  0.36300  1.0000
  H   H9        1.0  0.54600  0.30200  0.40300  1.0000
  H   H10       1.0  0.21600  0.18200  0.45200  1.0000
  H   H11       1.0  0.73400  0.36200  0.46900  1.0000
  H   H12       1.0  0.21100  0.96700  0.49500  1.0000
  H   H13       1.0  0.78900  0.03320  0.50500  1.0000
  H   H14       1.0  0.26600  0.63800  0.53100  1.0000
  H   H15       1.0  0.78400  0.81800  0.54800  1.0000
  H   H16       1.0  0.45400  0.69800  0.59700  1.0000
  H   H17       1.0  0.56200  0.16000  0.63700  1.0000
  H   H18       1.0  0.31300  0.35400  0.68800  1.0000
  H   H19       1.0  0.64600  0.68700  0.81200  1.0000
  H   H20       1.0  0.84000  0.43800  0.86300  1.0000
  H   H21       1.0  0.30200  0.54600  0.90300  1.0000
  H   H22       1.0  0.18200  0.21600  0.95200  1.0000
  H   H23       1.0  0.36200  0.73400  0.96900  1.0000
  H   H24       1.0  0.96700  0.21100  0.99500  1.0000
  N   N1        1.0  0.25400  0.47200  0.20700  1.0000
  N   N2        1.0  0.52800  0.74600  0.29300  1.0000
  N   N3        1.0  0.47200  0.25400  0.70700  1.0000
  N   N4        1.0  0.74600  0.52800  0.79300  1.0000
  O   O1        1.0  0.95300  0.80200  0.07590  1.0000
  O   O2        1.0  0.58300  0.73100  0.07620  1.0000
  O   O3        1.0  0.75200  0.29500  0.08510  1.0000
  O   O4        1.0  0.24900  0.99500  0.15800  1.0000
  O   O5        1.0  0.57900  0.04920  0.20300  1.0000
  O   O6        1.0  0.95100  0.42100  0.29700  1.0000
  O   O7        1.0  0.00477  0.75100  0.34200  1.0000
  O   O8        1.0  0.70500  0.24800  0.41500  1.0000
  O   O9        1.0  0.26900  0.41700  0.42400  1.0000
  O   O10       1.0  0.19800  0.04670  0.42400  1.0000
  O   O11       1.0  0.80200  0.95300  0.57600  1.0000
  O   O12       1.0  0.73100  0.58300  0.57600  1.0000
  O   O13       1.0  0.29500  0.75200  0.58500  1.0000
  O   O14       1.0  0.99500  0.24900  0.65800  1.0000
  O   O15       1.0  0.04920  0.57900  0.70300  1.0000
  O   O16       1.0  0.42100  0.95100  0.79700  1.0000
  O   O17       1.0  0.75100  0.00477  0.84200  1.0000
  O   O18       1.0  0.24800  0.70500  0.91500  1.0000
  O   O19       1.0  0.41700  0.26900  0.92400  1.0000
  O   O20       1.0  0.04670  0.19800  0.92400  1.0000
  S   S1        1.0  0.48300  0.88700  0.18000  1.0000
  S   S2        1.0  0.11300  0.51700  0.32000  1.0000
  S   S3        1.0  0.88700  0.48300  0.68000  1.0000
  S   S4        1.0  0.51700  0.11300  0.82000  1.0000
