data_image0
_chemical_formula_structural       Au8F40
_chemical_formula_sum              "Au8 F40"
_cell_length_a       8.58213
_cell_length_b       14.298
_cell_length_c       4.47698
_cell_angle_alpha    90
_cell_angle_beta     90
_cell_angle_gamma    90

_space_group_name_H-M_alt    "P 1"
_space_group_IT_number       1

loop_
  _space_group_symop_operation_xyz
  'x, y, z'

loop_
  _atom_site_type_symbol
  _atom_site_label
  _atom_site_symmetry_multiplicity
  _atom_site_fract_x
  _atom_site_fract_y
  _atom_site_fract_z
  _atom_site_occupancy
  Au  Au1       1.0  0.12700  0.14000  0.07230  1.0000
  Au  Au2       1.0  0.12700  0.36000  0.07230  1.0000
  Au  Au3       1.0  0.62700  0.14000  0.42800  1.0000
  Au  Au4       1.0  0.62700  0.36000  0.42800  1.0000
  Au  Au5       1.0  0.37300  0.64000  0.57200  1.0000
  Au  Au6       1.0  0.37300  0.86000  0.57200  1.0000
  Au  Au7       1.0  0.87300  0.64000  0.92800  1.0000
  Au  Au8       1.0  0.87300  0.86000  0.92800  1.0000
  F   F1        1.0  0.77000  0.14600  0.09580  1.0000
  F   F2        1.0  0.77000  0.35400  0.09580  1.0000
  F   F3        1.0  0.75200  0.54400  0.10700  1.0000
  F   F4        1.0  0.75200  0.95600  0.10700  1.0000
  F   F5        1.0  0.75600  0.75000  0.11700  1.0000
  F   F6        1.0  0.51200  0.64500  0.23400  1.0000
  F   F7        1.0  0.51200  0.85500  0.23400  1.0000
  F   F8        1.0  0.51400  0.04260  0.23600  1.0000
  F   F9        1.0  0.51400  0.45700  0.23600  1.0000
  F   F10       1.0  0.50900  0.25000  0.24200  1.0000
  F   F11       1.0  0.00880  0.25000  0.25800  1.0000
  F   F12       1.0  0.01420  0.04260  0.26400  1.0000
  F   F13       1.0  0.01420  0.45700  0.26400  1.0000
  F   F14       1.0  0.01210  0.64500  0.26600  1.0000
  F   F15       1.0  0.01210  0.85500  0.26600  1.0000
  F   F16       1.0  0.25600  0.75000  0.38300  1.0000
  F   F17       1.0  0.25200  0.54400  0.39300  1.0000
  F   F18       1.0  0.25200  0.95600  0.39300  1.0000
  F   F19       1.0  0.27000  0.14600  0.40400  1.0000
  F   F20       1.0  0.27000  0.35400  0.40400  1.0000
  F   F21       1.0  0.73000  0.64600  0.59600  1.0000
  F   F22       1.0  0.73000  0.85400  0.59600  1.0000
  F   F23       1.0  0.74800  0.04400  0.60700  1.0000
  F   F24       1.0  0.74800  0.45600  0.60700  1.0000
  F   F25       1.0  0.74400  0.25000  0.61700  1.0000
  F   F26       1.0  0.98800  0.14500  0.73400  1.0000
  F   F27       1.0  0.98800  0.35500  0.73400  1.0000
  F   F28       1.0  0.98600  0.54300  0.73600  1.0000
  F   F29       1.0  0.98600  0.95700  0.73600  1.0000
  F   F30       1.0  0.99100  0.75000  0.74200  1.0000
  F   F31       1.0  0.49100  0.75000  0.75800  1.0000
  F   F32       1.0  0.48600  0.54300  0.76400  1.0000
  F   F33       1.0  0.48600  0.95700  0.76400  1.0000
  F   F34       1.0  0.48800  0.14500  0.76600  1.0000
  F   F35       1.0  0.48800  0.35500  0.76600  1.0000
  F   F36       1.0  0.24400  0.25000  0.88300  1.0000
  F   F37       1.0  0.24800  0.04400  0.89300  1.0000
  F   F38       1.0  0.24800  0.45600  0.89300  1.0000
  F   F39       1.0  0.23000  0.64600  0.90400  1.0000
  F   F40       1.0  0.23000  0.85400  0.90400  1.0000
