data_image0
_chemical_formula_structural       Al6F34Na2Sr7
_chemical_formula_sum              "Al6 F34 Na2 Sr7"
_cell_length_a       7.13232
_cell_length_b       9.53969
_cell_length_c       9.53969
_cell_angle_alpha    67.9334
_cell_angle_beta     99.4569
_cell_angle_gamma    99.4569

_space_group_name_H-M_alt    "P 1"
_space_group_IT_number       1

loop_
  _space_group_symop_operation_xyz
  'x, y, z'

loop_
  _atom_site_type_symbol
  _atom_site_label
  _atom_site_symmetry_multiplicity
  _atom_site_fract_x
  _atom_site_fract_y
  _atom_site_fract_z
  _atom_site_occupancy
  Al  Al1       1.0  0.19900  0.64800  0.13400  1.0000
  Al  Al2       1.0  0.54100  0.16700  0.16700  1.0000
  Al  Al3       1.0  0.80100  0.86600  0.35200  1.0000
  Al  Al4       1.0  0.19900  0.13400  0.64800  1.0000
  Al  Al5       1.0  0.45900  0.83300  0.83300  1.0000
  Al  Al6       1.0  0.80100  0.35200  0.86600  1.0000
  F   F1        1.0  0.99900  0.26300  0.00018  1.0000
  F   F2        1.0  0.37800  0.77900  0.01690  1.0000
  F   F3        1.0  0.18500  0.51900  0.03450  1.0000
  F   F4        1.0  0.30900  0.10100  0.10100  1.0000
  F   F5        1.0  0.45500  0.35100  0.11500  1.0000
  F   F6        1.0  0.79800  0.77700  0.21800  1.0000
  F   F7        1.0  0.62200  0.98300  0.22100  1.0000
  F   F8        1.0  0.20200  0.78200  0.22300  1.0000
  F   F9        1.0  0.76700  0.24500  0.24500  1.0000
  F   F10       1.0  0.03340  0.51200  0.25900  1.0000
  F   F11       1.0  0.39000  0.54900  0.26000  1.0000
  F   F12       1.0  0.99900  0.00018  0.26300  1.0000
  F   F13       1.0  0.45500  0.11500  0.35100  1.0000
  F   F14       1.0  0.71800  0.42400  0.42400  1.0000
  F   F15       1.0  0.61000  0.74000  0.45100  1.0000
  F   F16       1.0  0.81500  0.96500  0.48100  1.0000
  F   F17       1.0  0.96700  0.74100  0.48800  1.0000
  F   F18       1.0  0.03340  0.25900  0.51200  1.0000
  F   F19       1.0  0.18500  0.03450  0.51900  1.0000
  F   F20       1.0  0.39000  0.26000  0.54900  1.0000
  F   F21       1.0  0.28200  0.57600  0.57600  1.0000
  F   F22       1.0  0.54500  0.88500  0.64900  1.0000
  F   F23       1.0  0.00106  1.00000  0.73700  1.0000
  F   F24       1.0  0.61000  0.45100  0.74000  1.0000
  F   F25       1.0  0.96700  0.48800  0.74100  1.0000
  F   F26       1.0  0.23300  0.75500  0.75500  1.0000
  F   F27       1.0  0.79800  0.21800  0.77700  1.0000
  F   F28       1.0  0.37800  0.01690  0.77900  1.0000
  F   F29       1.0  0.20200  0.22300  0.78200  1.0000
  F   F30       1.0  0.54500  0.64900  0.88500  1.0000
  F   F31       1.0  0.69100  0.89900  0.89900  1.0000
  F   F32       1.0  0.81500  0.48100  0.96500  1.0000
  F   F33       1.0  0.62200  0.22100  0.98300  1.0000
  F   F34       1.0  0.00106  0.73700  0.00000  1.0000
  Na  Na1       1.0  0.00000  0.50000  0.50000  1.0000
  Na  Na2       1.0  0.50000  0.50000  0.50000  1.0000
  Sr  Sr1       1.0  0.00000  0.00000  0.00000  1.0000
  Sr  Sr2       1.0  0.69800  0.55300  0.15600  1.0000
  Sr  Sr3       1.0  0.13300  0.26200  0.26200  1.0000
  Sr  Sr4       1.0  0.30200  0.84400  0.44700  1.0000
  Sr  Sr5       1.0  0.69800  0.15600  0.55300  1.0000
  Sr  Sr6       1.0  0.86700  0.73800  0.73800  1.0000
  Sr  Sr7       1.0  0.30200  0.44700  0.84400  1.0000
