data_image0
_chemical_formula_structural       Cs4Er4O4Te4
_chemical_formula_sum              "Cs4 Er4 O4 Te4"
_cell_length_a       9.69584
_cell_length_b       7.39798
_cell_length_c       6.70491
_cell_angle_alpha    90
_cell_angle_beta     99.1215
_cell_angle_gamma    90

_space_group_name_H-M_alt    "P 1"
_space_group_IT_number       1

loop_
  _space_group_symop_operation_xyz
  'x, y, z'

loop_
  _atom_site_type_symbol
  _atom_site_label
  _atom_site_symmetry_multiplicity
  _atom_site_fract_x
  _atom_site_fract_y
  _atom_site_fract_z
  _atom_site_occupancy
  Cs  Cs1       1.0  0.86900  0.41100  0.16500  1.0000
  Cs  Cs2       1.0  0.13100  0.91100  0.33500  1.0000
  Cs  Cs3       1.0  0.86900  0.08950  0.66500  1.0000
  Cs  Cs4       1.0  0.13100  0.58900  0.83500  1.0000
  Er  Er1       1.0  0.50700  0.63500  0.20700  1.0000
  Er  Er2       1.0  0.49300  0.13500  0.29300  1.0000
  Er  Er3       1.0  0.50700  0.86500  0.70700  1.0000
  Er  Er4       1.0  0.49300  0.36500  0.79300  1.0000
  O   O1        1.0  0.56500  0.35900  0.11600  1.0000
  O   O2        1.0  0.43500  0.85900  0.38400  1.0000
  O   O3        1.0  0.56500  0.14100  0.61600  1.0000
  O   O4        1.0  0.43500  0.64100  0.88400  1.0000
  Te  Te1       1.0  0.73300  0.92000  0.12200  1.0000
  Te  Te2       1.0  0.26700  0.42000  0.37800  1.0000
  Te  Te3       1.0  0.73300  0.58000  0.62200  1.0000
  Te  Te4       1.0  0.26700  0.08030  0.87800  1.0000
