data_image0
_chemical_formula_structural       H14K2N6Na4O16P6
_chemical_formula_sum              "H14 K2 N6 Na4 O16 P6"
_cell_length_a       7.76772
_cell_length_b       7.86843
_cell_length_c       8.32929
_cell_angle_alpha    76.3087
_cell_angle_beta     83.7348
_cell_angle_gamma    77.4932

_space_group_name_H-M_alt    "P 1"
_space_group_IT_number       1

loop_
  _space_group_symop_operation_xyz
  'x, y, z'

loop_
  _atom_site_type_symbol
  _atom_site_label
  _atom_site_symmetry_multiplicity
  _atom_site_fract_x
  _atom_site_fract_y
  _atom_site_fract_z
  _atom_site_occupancy
  H   H1        1.0  0.55100  0.71300  0.10600  1.0000
  H   H2        1.0  0.24600  0.42000  0.13100  1.0000
  H   H3        1.0  0.50400  0.43000  0.23200  1.0000
  H   H4        1.0  0.28200  0.02440  0.34300  1.0000
  H   H5        1.0  0.01630  0.30300  0.37200  1.0000
  H   H6        1.0  0.26100  0.82200  0.41200  1.0000
  H   H7        1.0  0.05900  0.62300  0.46900  1.0000
  H   H8        1.0  0.94100  0.37700  0.53100  1.0000
  H   H9        1.0  0.73900  0.17800  0.58800  1.0000
  H   H10       1.0  0.98400  0.69700  0.62800  1.0000
  H   H11       1.0  0.71800  0.97600  0.65700  1.0000
  H   H12       1.0  0.49600  0.57000  0.76800  1.0000
  H   H13       1.0  0.75400  0.58000  0.86900  1.0000
  H   H14       1.0  0.44900  0.28700  0.89400  1.0000
  K   K1        1.0  0.61900  0.71600  0.45300  1.0000
  K   K2        1.0  0.38100  0.28400  0.54700  1.0000
  N   N1        1.0  0.43200  0.78100  0.05600  1.0000
  N   N2        1.0  0.21400  0.55200  0.06920  1.0000
  N   N3        1.0  0.61000  0.32900  0.22100  1.0000
  N   N4        1.0  0.39000  0.67100  0.77900  1.0000
  N   N5        1.0  0.78600  0.44800  0.93100  1.0000
  N   N6        1.0  0.56800  0.21900  0.94400  1.0000
  Na  Na1       1.0  0.84900  0.85100  0.00518  1.0000
  Na  Na2       1.0  0.93000  0.98400  0.33700  1.0000
  Na  Na3       1.0  0.06980  0.01600  0.66300  1.0000
  Na  Na4       1.0  0.15100  0.14900  0.99500  1.0000
  O   O1        1.0  0.09950  0.86300  0.13600  1.0000
  O   O2        1.0  0.76500  0.59500  0.18000  1.0000
  O   O3        1.0  0.95100  0.27300  0.19300  1.0000
  O   O4        1.0  0.35400  0.17900  0.20100  1.0000
  O   O5        1.0  0.67700  0.99200  0.21100  1.0000
  O   O6        1.0  0.30800  0.61700  0.33500  1.0000
  O   O7        1.0  0.23800  0.94000  0.44000  1.0000
  O   O8        1.0  0.04720  0.30800  0.48400  1.0000
  O   O9        1.0  0.95300  0.69200  0.51600  1.0000
  O   O10       1.0  0.76200  0.06020  0.56000  1.0000
  O   O11       1.0  0.69200  0.38300  0.66500  1.0000
  O   O12       1.0  0.32300  0.00781  0.78900  1.0000
  O   O13       1.0  0.64600  0.82100  0.79900  1.0000
  O   O14       1.0  0.04870  0.72700  0.80700  1.0000
  O   O15       1.0  0.23500  0.40500  0.82000  1.0000
  O   O16       1.0  0.90000  0.13700  0.86400  1.0000
  P   P1        1.0  0.79100  0.41500  0.13800  1.0000
  P   P2        1.0  0.55000  0.16400  0.15200  1.0000
  P   P3        1.0  0.25400  0.70800  0.16000  1.0000
  P   P4        1.0  0.74600  0.29200  0.84000  1.0000
  P   P5        1.0  0.45000  0.83600  0.84800  1.0000
  P   P6        1.0  0.20900  0.58500  0.86200  1.0000
