data_image0
_chemical_formula_structural       Be4Ca4F4Na4O24Si8
_chemical_formula_sum              "Be4 Ca4 F4 Na4 O24 Si8"
_cell_length_a       7.36555
_cell_length_b       7.37936
_cell_length_c       9.86116
_cell_angle_alpha    90
_cell_angle_beta     90
_cell_angle_gamma    90

_space_group_name_H-M_alt    "P 1"
_space_group_IT_number       1

loop_
  _space_group_symop_operation_xyz
  'x, y, z'

loop_
  _atom_site_type_symbol
  _atom_site_label
  _atom_site_symmetry_multiplicity
  _atom_site_fract_x
  _atom_site_fract_y
  _atom_site_fract_z
  _atom_site_occupancy
  Be  Be1       1.0  0.38100  0.64200  0.03310  1.0000
  Be  Be2       1.0  0.61900  0.14200  0.46700  1.0000
  Be  Be3       1.0  0.11900  0.35800  0.53300  1.0000
  Be  Be4       1.0  0.88100  0.85800  0.96700  1.0000
  Ca  Ca1       1.0  0.57900  0.85400  0.24000  1.0000
  Ca  Ca2       1.0  0.42100  0.35400  0.26000  1.0000
  Ca  Ca3       1.0  0.92100  0.14600  0.74000  1.0000
  Ca  Ca4       1.0  0.07870  0.64600  0.76000  1.0000
  F   F1        1.0  0.87900  0.85200  0.12900  1.0000
  F   F2        1.0  0.12100  0.35200  0.37100  1.0000
  F   F3        1.0  0.62100  0.14800  0.62900  1.0000
  F   F4        1.0  0.37900  0.64800  0.87100  1.0000
  Na  Na1       1.0  0.10300  0.67900  0.24600  1.0000
  Na  Na2       1.0  0.89700  0.17900  0.25400  1.0000
  Na  Na3       1.0  0.39700  0.32100  0.74600  1.0000
  Na  Na4       1.0  0.60300  0.82100  0.75400  1.0000
  O   O1        1.0  0.24600  0.49300  0.09040  1.0000
  O   O2        1.0  0.90000  0.41400  0.09280  1.0000
  O   O3        1.0  0.14700  0.15600  0.09350  1.0000
  O   O4        1.0  0.32400  0.83700  0.09620  1.0000
  O   O5        1.0  0.57900  0.58900  0.09910  1.0000
  O   O6        1.0  0.59100  0.14600  0.13700  1.0000
  O   O7        1.0  0.40900  0.64600  0.36300  1.0000
  O   O8        1.0  0.42100  0.08850  0.40100  1.0000
  O   O9        1.0  0.67600  0.33700  0.40400  1.0000
  O   O10       1.0  0.85300  0.65600  0.40700  1.0000
  O   O11       1.0  0.10000  0.91400  0.40700  1.0000
  O   O12       1.0  0.75400  0.99300  0.41000  1.0000
  O   O13       1.0  0.25400  0.50700  0.59000  1.0000
  O   O14       1.0  0.60000  0.58600  0.59300  1.0000
  O   O15       1.0  0.35300  0.84400  0.59300  1.0000
  O   O16       1.0  0.17600  0.16300  0.59600  1.0000
  O   O17       1.0  0.92100  0.41100  0.59900  1.0000
  O   O18       1.0  0.90900  0.85400  0.63700  1.0000
  O   O19       1.0  0.09130  0.35400  0.86300  1.0000
  O   O20       1.0  0.07940  0.91100  0.90100  1.0000
  O   O21       1.0  0.82400  0.66300  0.90400  1.0000
  O   O22       1.0  0.64700  0.34400  0.90700  1.0000
  O   O23       1.0  0.40000  0.08620  0.90700  1.0000
  O   O24       1.0  0.74600  0.00733  0.91000  1.0000
  Si  Si1       1.0  0.73600  0.50900  0.00047  1.0000
  Si  Si2       1.0  0.09920  0.35700  0.02450  1.0000
  Si  Si3       1.0  0.90100  0.85700  0.47600  1.0000
  Si  Si4       1.0  0.26400  0.00948  0.50000  1.0000
  Si  Si5       1.0  0.76400  0.49100  0.50000  1.0000
  Si  Si6       1.0  0.40100  0.64300  0.52400  1.0000
  Si  Si7       1.0  0.59900  0.14300  0.97600  1.0000
  Si  Si8       1.0  0.23600  0.99100  0.00000  1.0000
