data_image0
_chemical_formula_structural       As4Br12F24H4O4P4
_chemical_formula_sum              "As4 Br12 F24 H4 O4 P4"
_cell_length_a       12.5316
_cell_length_b       8.36915
_cell_length_c       8.07915
_cell_angle_alpha    90
_cell_angle_beta     90
_cell_angle_gamma    90

_space_group_name_H-M_alt    "P 1"
_space_group_IT_number       1

loop_
  _space_group_symop_operation_xyz
  'x, y, z'

loop_
  _atom_site_type_symbol
  _atom_site_label
  _atom_site_symmetry_multiplicity
  _atom_site_fract_x
  _atom_site_fract_y
  _atom_site_fract_z
  _atom_site_occupancy
  As  As1       1.0  0.06690  0.25000  0.18700  1.0000
  As  As2       1.0  0.56700  0.25000  0.31300  1.0000
  As  As3       1.0  0.43300  0.75000  0.68700  1.0000
  As  As4       1.0  0.93300  0.75000  0.81300  1.0000
  Br  Br1       1.0  0.59900  0.75000  0.09640  1.0000
  Br  Br2       1.0  0.82200  0.54300  0.24800  1.0000
  Br  Br3       1.0  0.82200  0.95700  0.24800  1.0000
  Br  Br4       1.0  0.32200  0.54300  0.25200  1.0000
  Br  Br5       1.0  0.32200  0.95700  0.25200  1.0000
  Br  Br6       1.0  0.09910  0.75000  0.40400  1.0000
  Br  Br7       1.0  0.90100  0.25000  0.59600  1.0000
  Br  Br8       1.0  0.67800  0.04300  0.74800  1.0000
  Br  Br9       1.0  0.67800  0.45700  0.74800  1.0000
  Br  Br10      1.0  0.17800  0.04300  0.75200  1.0000
  Br  Br11      1.0  0.17800  0.45700  0.75200  1.0000
  Br  Br12      1.0  0.40100  0.25000  0.90400  1.0000
  F   F1        1.0  0.98000  0.75000  0.02580  1.0000
  F   F2        1.0  0.60500  0.25000  0.10400  1.0000
  F   F3        1.0  0.19800  0.25000  0.11400  1.0000
  F   F4        1.0  0.06290  0.04000  0.18200  1.0000
  F   F5        1.0  0.06290  0.46000  0.18200  1.0000
  F   F6        1.0  0.93000  0.25000  0.24600  1.0000
  F   F7        1.0  0.43000  0.25000  0.25400  1.0000
  F   F8        1.0  0.56300  0.04000  0.31800  1.0000
  F   F9        1.0  0.56300  0.46000  0.31800  1.0000
  F   F10       1.0  0.69800  0.25000  0.38600  1.0000
  F   F11       1.0  0.10500  0.25000  0.39600  1.0000
  F   F12       1.0  0.48000  0.75000  0.47400  1.0000
  F   F13       1.0  0.52000  0.25000  0.52600  1.0000
  F   F14       1.0  0.89500  0.75000  0.60400  1.0000
  F   F15       1.0  0.30200  0.75000  0.61400  1.0000
  F   F16       1.0  0.43700  0.54000  0.68200  1.0000
  F   F17       1.0  0.43700  0.96000  0.68200  1.0000
  F   F18       1.0  0.57000  0.75000  0.74600  1.0000
  F   F19       1.0  0.07020  0.75000  0.75400  1.0000
  F   F20       1.0  0.93700  0.54000  0.81800  1.0000
  F   F21       1.0  0.93700  0.96000  0.81800  1.0000
  F   F22       1.0  0.80200  0.75000  0.88600  1.0000
  F   F23       1.0  0.39500  0.75000  0.89600  1.0000
  F   F24       1.0  0.01960  0.25000  0.97400  1.0000
  H   H1        1.0  0.09700  0.75000  0.03830  1.0000
  H   H2        1.0  0.59700  0.75000  0.46200  1.0000
  H   H3        1.0  0.40300  0.25000  0.53800  1.0000
  H   H4        1.0  0.90300  0.25000  0.96200  1.0000
  O   O1        1.0  0.17800  0.75000  0.04690  1.0000
  O   O2        1.0  0.67800  0.75000  0.45300  1.0000
  O   O3        1.0  0.32200  0.25000  0.54700  1.0000
  O   O4        1.0  0.82200  0.25000  0.95300  1.0000
  P   P1        1.0  0.22500  0.75000  0.22400  1.0000
  P   P2        1.0  0.72500  0.75000  0.27600  1.0000
  P   P3        1.0  0.27500  0.25000  0.72400  1.0000
  P   P4        1.0  0.77500  0.25000  0.77600  1.0000
