data_image0
_chemical_formula_structural       Cu2Gd4K2Mo8O32
_chemical_formula_sum              "Cu2 Gd4 K2 Mo8 O32"
_cell_length_a       5.24172
_cell_length_b       6.79917
_cell_length_c       19.3257
_cell_angle_alpha    91.1342
_cell_angle_beta     92.9434
_cell_angle_gamma    67.3272

_space_group_name_H-M_alt    "P 1"
_space_group_IT_number       1

loop_
  _space_group_symop_operation_xyz
  'x, y, z'

loop_
  _atom_site_type_symbol
  _atom_site_label
  _atom_site_symmetry_multiplicity
  _atom_site_fract_x
  _atom_site_fract_y
  _atom_site_fract_z
  _atom_site_occupancy
  Cu  Cu1       1.0  0.30900  0.38200  0.25000  1.0000
  Cu  Cu2       1.0  0.69100  0.61800  0.75000  1.0000
  Gd  Gd1       1.0  0.14600  0.70600  0.03250  1.0000
  Gd  Gd2       1.0  0.14800  0.70600  0.46800  1.0000
  Gd  Gd3       1.0  0.85200  0.29400  0.53200  1.0000
  Gd  Gd4       1.0  0.85400  0.29400  0.96800  1.0000
  K   K1        1.0  0.02990  0.94000  0.25000  1.0000
  K   K2        1.0  0.97000  0.05980  0.75000  1.0000
  Mo  Mo1       1.0  0.45400  0.12200  0.09340  1.0000
  Mo  Mo2       1.0  0.74900  0.51700  0.14900  1.0000
  Mo  Mo3       1.0  0.73400  0.51700  0.35100  1.0000
  Mo  Mo4       1.0  0.42400  0.12200  0.40700  1.0000
  Mo  Mo5       1.0  0.57600  0.87800  0.59300  1.0000
  Mo  Mo6       1.0  0.26600  0.48300  0.64900  1.0000
  Mo  Mo7       1.0  0.25100  0.48300  0.85100  1.0000
  Mo  Mo8       1.0  0.54600  0.87800  0.90700  1.0000
  O   O1        1.0  0.21900  0.03830  0.03770  1.0000
  O   O2        1.0  0.49000  0.33900  0.04270  1.0000
  O   O3        1.0  0.93900  0.47600  0.06800  1.0000
  O   O4        1.0  0.77400  0.90100  0.10400  1.0000
  O   O5        1.0  0.39700  0.70300  0.13400  1.0000
  O   O6        1.0  0.73200  0.27400  0.17300  1.0000
  O   O7        1.0  0.29600  0.17900  0.17400  1.0000
  O   O8        1.0  0.93300  0.59500  0.21600  1.0000
  O   O9        1.0  0.47100  0.59500  0.28400  1.0000
  O   O10       1.0  0.52500  0.17900  0.32600  1.0000
  O   O11       1.0  0.99500  0.27400  0.32700  1.0000
  O   O12       1.0  0.90100  0.70300  0.36600  1.0000
  O   O13       1.0  0.32500  0.90100  0.39600  1.0000
  O   O14       1.0  0.58400  0.47600  0.43200  1.0000
  O   O15       1.0  0.17100  0.33900  0.45700  1.0000
  O   O16       1.0  0.74200  0.03830  0.46200  1.0000
  O   O17       1.0  0.25800  0.96200  0.53800  1.0000
  O   O18       1.0  0.82900  0.66100  0.54300  1.0000
  O   O19       1.0  0.41600  0.52400  0.56800  1.0000
  O   O20       1.0  0.67500  0.09910  0.60400  1.0000
  O   O21       1.0  0.09930  0.29700  0.63400  1.0000
  O   O22       1.0  0.00511  0.72600  0.67300  1.0000
  O   O23       1.0  0.47500  0.82100  0.67400  1.0000
  O   O24       1.0  0.52900  0.40500  0.71600  1.0000
  O   O25       1.0  0.06680  0.40500  0.78400  1.0000
  O   O26       1.0  0.70400  0.82100  0.82600  1.0000
  O   O27       1.0  0.26800  0.72600  0.82700  1.0000
  O   O28       1.0  0.60300  0.29700  0.86600  1.0000
  O   O29       1.0  0.22600  0.09910  0.89600  1.0000
  O   O30       1.0  0.06050  0.52400  0.93200  1.0000
  O   O31       1.0  0.51000  0.66100  0.95700  1.0000
  O   O32       1.0  0.78100  0.96200  0.96200  1.0000
