data_image0
_chemical_formula_structural       Cs2O12Te4
_chemical_formula_sum              "Cs2 O12 Te4"
_cell_length_a       7.36234
_cell_length_b       7.36234
_cell_length_c       7.36234
_cell_angle_alpha    120
_cell_angle_beta     90
_cell_angle_gamma    120

_space_group_name_H-M_alt    "P 1"
_space_group_IT_number       1

loop_
  _space_group_symop_operation_xyz
  'x, y, z'

loop_
  _atom_site_type_symbol
  _atom_site_label
  _atom_site_symmetry_multiplicity
  _atom_site_fract_x
  _atom_site_fract_y
  _atom_site_fract_z
  _atom_site_occupancy
  Cs  Cs1       1.0  0.87500  0.75000  0.12500  1.0000
  Cs  Cs2       1.0  0.12500  0.25000  0.87500  1.0000
  O   O1        1.0  0.43000  0.25000  0.18000  1.0000
  O   O2        1.0  0.82000  0.25000  0.18000  1.0000
  O   O3        1.0  0.43000  0.85900  0.18000  1.0000
  O   O4        1.0  0.18000  0.35900  0.43000  1.0000
  O   O5        1.0  0.18000  0.75000  0.43000  1.0000
  O   O6        1.0  0.57000  0.75000  0.43000  1.0000
  O   O7        1.0  0.82000  0.64100  0.57000  1.0000
  O   O8        1.0  0.43000  0.25000  0.57000  1.0000
  O   O9        1.0  0.82000  0.25000  0.57000  1.0000
  O   O10       1.0  0.18000  0.75000  0.82000  1.0000
  O   O11       1.0  0.57000  0.75000  0.82000  1.0000
  O   O12       1.0  0.57000  0.14100  0.82000  1.0000
  Te  Te1       1.0  0.50000  0.00000  0.00000  1.0000
  Te  Te2       1.0  0.50000  0.00000  0.50000  1.0000
  Te  Te3       1.0  0.00000  0.50000  0.50000  1.0000
  Te  Te4       1.0  0.50000  0.50000  0.50000  1.0000
