data_image0
_chemical_formula_structural       H8Mn8O24P8
_chemical_formula_sum              "H8 Mn8 O24 P8"
_cell_length_a       7.9921
_cell_length_b       8.1784
_cell_length_c       10.349
_cell_angle_alpha    90
_cell_angle_beta     124.768
_cell_angle_gamma    90

_space_group_name_H-M_alt    "P 1"
_space_group_IT_number       1

loop_
  _space_group_symop_operation_xyz
  'x, y, z'

loop_
  _atom_site_type_symbol
  _atom_site_label
  _atom_site_symmetry_multiplicity
  _atom_site_fract_x
  _atom_site_fract_y
  _atom_site_fract_z
  _atom_site_occupancy
  H   H1        1.0  0.22000  0.91800  0.12400  1.0000
  H   H2        1.0  0.89500  0.00749  0.14000  1.0000
  H   H3        1.0  0.10500  0.50700  0.36000  1.0000
  H   H4        1.0  0.78000  0.41800  0.37600  1.0000
  H   H5        1.0  0.22000  0.58200  0.62400  1.0000
  H   H6        1.0  0.89500  0.49300  0.64000  1.0000
  H   H7        1.0  0.10500  0.99300  0.86000  1.0000
  H   H8        1.0  0.78000  0.08190  0.87600  1.0000
  Mn  Mn1       1.0  0.52700  0.70600  0.01160  1.0000
  Mn  Mn2       1.0  0.18200  0.37100  0.12500  1.0000
  Mn  Mn3       1.0  0.81800  0.87100  0.37500  1.0000
  Mn  Mn4       1.0  0.47300  0.20600  0.48800  1.0000
  Mn  Mn5       1.0  0.52700  0.79400  0.51200  1.0000
  Mn  Mn6       1.0  0.18200  0.12900  0.62500  1.0000
  Mn  Mn7       1.0  0.81800  0.62900  0.87500  1.0000
  Mn  Mn8       1.0  0.47300  0.29400  0.98800  1.0000
  O   O1        1.0  0.34400  0.17400  0.10200  1.0000
  O   O2        1.0  0.03650  0.59500  0.11800  1.0000
  O   O3        1.0  0.48000  0.51100  0.13500  1.0000
  O   O4        1.0  0.78700  0.28000  0.14000  1.0000
  O   O5        1.0  0.53500  0.91300  0.14400  1.0000
  O   O6        1.0  0.84300  0.70500  0.22700  1.0000
  O   O7        1.0  0.15700  0.20500  0.27300  1.0000
  O   O8        1.0  0.46500  0.41300  0.35600  1.0000
  O   O9        1.0  0.21300  0.78000  0.36000  1.0000
  O   O10       1.0  0.52000  0.01080  0.36500  1.0000
  O   O11       1.0  0.96400  0.09470  0.38200  1.0000
  O   O12       1.0  0.65600  0.67400  0.39800  1.0000
  O   O13       1.0  0.34400  0.32600  0.60200  1.0000
  O   O14       1.0  0.03650  0.90500  0.61800  1.0000
  O   O15       1.0  0.48000  0.98900  0.63500  1.0000
  O   O16       1.0  0.78700  0.22000  0.64000  1.0000
  O   O17       1.0  0.53500  0.58700  0.64400  1.0000
  O   O18       1.0  0.84300  0.79500  0.72700  1.0000
  O   O19       1.0  0.15700  0.29500  0.77300  1.0000
  O   O20       1.0  0.46500  0.08660  0.85600  1.0000
  O   O21       1.0  0.21300  0.72000  0.86000  1.0000
  O   O22       1.0  0.52000  0.48900  0.86500  1.0000
  O   O23       1.0  0.96400  0.40500  0.88200  1.0000
  O   O24       1.0  0.65600  0.82600  0.89800  1.0000
  P   P1        1.0  0.40100  0.00555  0.18300  1.0000
  P   P2        1.0  0.94700  0.15000  0.23200  1.0000
  P   P3        1.0  0.05260  0.65000  0.26800  1.0000
  P   P4        1.0  0.59900  0.50600  0.31700  1.0000
  P   P5        1.0  0.40100  0.49400  0.68300  1.0000
  P   P6        1.0  0.94700  0.35000  0.73200  1.0000
  P   P7        1.0  0.05260  0.85000  0.76800  1.0000
  P   P8        1.0  0.59900  0.99400  0.81700  1.0000
