data_image0
_chemical_formula_structural       Bi12O30P4Zn2
_chemical_formula_sum              "Bi12 O30 P4 Zn2"
_cell_length_a       5.42939
_cell_length_b       8.04594
_cell_length_c       16.9186
_cell_angle_alpha    103.848
_cell_angle_beta     90
_cell_angle_gamma    109.718

_space_group_name_H-M_alt    "P 1"
_space_group_IT_number       1

loop_
  _space_group_symop_operation_xyz
  'x, y, z'

loop_
  _atom_site_type_symbol
  _atom_site_label
  _atom_site_symmetry_multiplicity
  _atom_site_fract_x
  _atom_site_fract_y
  _atom_site_fract_z
  _atom_site_occupancy
  Bi  Bi1       1.0  0.12000  0.85100  0.07470  1.0000
  Bi  Bi2       1.0  0.78800  0.19600  0.09080  1.0000
  Bi  Bi3       1.0  0.35200  0.28400  0.24300  1.0000
  Bi  Bi4       1.0  0.70400  0.94200  0.25800  1.0000
  Bi  Bi5       1.0  0.89300  0.42300  0.39200  1.0000
  Bi  Bi6       1.0  0.22000  0.05320  0.40900  1.0000
  Bi  Bi7       1.0  0.16700  0.94700  0.59100  1.0000
  Bi  Bi8       1.0  0.47000  0.57700  0.60800  1.0000
  Bi  Bi9       1.0  0.76200  0.05800  0.74200  1.0000
  Bi  Bi10      1.0  0.06860  0.71600  0.75700  1.0000
  Bi  Bi11      1.0  0.59300  0.80400  0.90900  1.0000
  Bi  Bi12      1.0  0.26900  0.14900  0.92500  1.0000
  O   O1        1.0  0.45100  0.00000  0.00000  1.0000
  O   O2        1.0  0.94100  0.00000  0.00000  1.0000
  O   O3        1.0  0.48800  0.62700  0.02130  1.0000
  O   O4        1.0  0.37200  0.35400  0.08850  1.0000
  O   O5        1.0  0.26400  0.64000  0.15100  1.0000
  O   O6        1.0  0.73100  0.65700  0.15400  1.0000
  O   O7        1.0  0.46000  0.05490  0.16200  1.0000
  O   O8        1.0  0.95900  0.04660  0.16400  1.0000
  O   O9        1.0  0.81500  0.40300  0.25900  1.0000
  O   O10       1.0  0.04580  0.86300  0.29400  1.0000
  O   O11       1.0  0.51000  0.19200  0.33900  1.0000
  O   O12       1.0  0.01900  0.18900  0.34000  1.0000
  O   O13       1.0  0.35000  0.57400  0.34600  1.0000
  O   O14       1.0  0.55400  0.91400  0.40600  1.0000
  O   O15       1.0  0.76300  0.70600  0.44800  1.0000
  O   O16       1.0  0.31400  0.69900  0.49400  1.0000
  O   O17       1.0  0.61500  0.30100  0.50600  1.0000
  O   O18       1.0  0.05720  0.29400  0.55200  1.0000
  O   O19       1.0  0.64000  0.08600  0.59400  1.0000
  O   O20       1.0  0.77600  0.42600  0.65400  1.0000
  O   O21       1.0  0.83000  0.81100  0.66000  1.0000
  O   O22       1.0  0.31800  0.80800  0.66100  1.0000
  O   O23       1.0  0.18300  0.13700  0.70600  1.0000
  O   O24       1.0  0.41200  0.59700  0.74100  1.0000
  O   O25       1.0  0.91300  0.95300  0.83600  1.0000
  O   O26       1.0  0.40500  0.94500  0.83800  1.0000
  O   O27       1.0  0.07420  0.34300  0.84600  1.0000
  O   O28       1.0  0.62400  0.36000  0.84900  1.0000
  O   O29       1.0  0.01800  0.64600  0.91200  1.0000
  O   O30       1.0  0.86100  0.37300  0.97900  1.0000
  P   P1        1.0  0.46200  0.56400  0.10000  1.0000
  P   P2        1.0  0.50100  0.72400  0.42400  1.0000
  P   P3        1.0  0.77700  0.27600  0.57600  1.0000
  P   P4        1.0  0.89800  0.43600  0.90000  1.0000
  Zn  Zn1       1.0  0.00502  0.62300  0.23300  1.0000
  Zn  Zn2       1.0  0.38200  0.37700  0.76700  1.0000
