data_image0
_chemical_formula_structural       Mg12Mn4Ni8
_chemical_formula_sum              "Mg12 Mn4 Ni8"
_cell_length_a       8.08533
_cell_length_b       8.08533
_cell_length_c       8.08533
_cell_angle_alpha    120
_cell_angle_beta     90
_cell_angle_gamma    120

_space_group_name_H-M_alt    "P 1"
_space_group_IT_number       1

loop_
  _space_group_symop_operation_xyz
  'x, y, z'

loop_
  _atom_site_type_symbol
  _atom_site_label
  _atom_site_symmetry_multiplicity
  _atom_site_fract_x
  _atom_site_fract_y
  _atom_site_fract_z
  _atom_site_occupancy
  Mg  Mg1       1.0  0.32400  0.75000  0.17600  1.0000
  Mg  Mg2       1.0  0.92600  0.35300  0.17600  1.0000
  Mg  Mg3       1.0  0.92600  0.75000  0.17600  1.0000
  Mg  Mg4       1.0  0.07360  0.25000  0.42600  1.0000
  Mg  Mg5       1.0  0.67600  0.25000  0.42600  1.0000
  Mg  Mg6       1.0  0.67600  0.85300  0.42600  1.0000
  Mg  Mg7       1.0  0.92600  0.75000  0.57400  1.0000
  Mg  Mg8       1.0  0.32400  0.14700  0.57400  1.0000
  Mg  Mg9       1.0  0.32400  0.75000  0.57400  1.0000
  Mg  Mg10      1.0  0.07360  0.25000  0.82400  1.0000
  Mg  Mg11      1.0  0.07360  0.64700  0.82400  1.0000
  Mg  Mg12      1.0  0.67600  0.25000  0.82400  1.0000
  Mn  Mn1       1.0  0.50000  0.00000  0.00000  1.0000
  Mn  Mn2       1.0  0.50000  0.50000  1.00000  1.0000
  Mn  Mn3       1.0  0.00000  0.00000  0.00000  1.0000
  Mn  Mn4       1.0  0.50000  0.50000  0.50000  1.0000
  Ni  Ni1       1.0  0.70600  0.91100  0.11700  1.0000
  Ni  Ni2       1.0  0.61700  0.41100  0.20600  1.0000
  Ni  Ni3       1.0  0.29400  0.08880  0.20600  1.0000
  Ni  Ni4       1.0  0.29400  0.41100  0.20600  1.0000
  Ni  Ni5       1.0  0.70600  0.58900  0.79400  1.0000
  Ni  Ni6       1.0  0.70600  0.91100  0.79400  1.0000
  Ni  Ni7       1.0  0.38300  0.58900  0.79400  1.0000
  Ni  Ni8       1.0  0.29400  0.08880  0.88300  1.0000
