data_image0
_chemical_formula_structural       Li8O32Rb8S8
_chemical_formula_sum              "Li8 O32 Rb8 S8"
_cell_length_a       5.17002
_cell_length_b       8.87349
_cell_length_c       16.4469
_cell_angle_alpha    90.1336
_cell_angle_beta     90
_cell_angle_gamma    90

_space_group_name_H-M_alt    "P 1"
_space_group_IT_number       1

loop_
  _space_group_symop_operation_xyz
  'x, y, z'

loop_
  _atom_site_type_symbol
  _atom_site_label
  _atom_site_symmetry_multiplicity
  _atom_site_fract_x
  _atom_site_fract_y
  _atom_site_fract_z
  _atom_site_occupancy
  Li  Li1       1.0  0.27600  0.08360  0.90600  1.0000
  Li  Li2       1.0  0.77600  0.91600  0.59400  1.0000
  Li  Li3       1.0  0.72400  0.91600  0.09410  1.0000
  Li  Li4       1.0  0.22400  0.08360  0.40600  1.0000
  Li  Li5       1.0  0.26700  0.41800  0.65600  1.0000
  Li  Li6       1.0  0.76700  0.58200  0.84400  1.0000
  Li  Li7       1.0  0.73300  0.58200  0.34400  1.0000
  Li  Li8       1.0  0.23300  0.41800  0.15600  1.0000
  O   O1        1.0  0.23900  0.07680  0.52100  1.0000
  O   O2        1.0  0.73900  0.92300  0.97900  1.0000
  O   O3        1.0  0.76100  0.92300  0.47900  1.0000
  O   O4        1.0  0.26100  0.07680  0.02060  1.0000
  O   O5        1.0  0.24100  0.42400  0.77000  1.0000
  O   O6        1.0  0.74100  0.57600  0.73000  1.0000
  O   O7        1.0  0.75900  0.57600  0.23000  1.0000
  O   O8        1.0  0.25900  0.42400  0.27000  1.0000
  O   O9        1.0  0.37500  0.22100  0.63700  1.0000
  O   O10       1.0  0.87500  0.77900  0.86300  1.0000
  O   O11       1.0  0.62500  0.77900  0.36300  1.0000
  O   O12       1.0  0.12500  0.22100  0.13700  1.0000
  O   O13       1.0  0.37900  0.28100  0.88700  1.0000
  O   O14       1.0  0.87900  0.71900  0.61300  1.0000
  O   O15       1.0  0.62100  0.71900  0.11300  1.0000
  O   O16       1.0  0.12100  0.28100  0.38700  1.0000
  O   O17       1.0  0.00988  0.04940  0.64800  1.0000
  O   O18       1.0  0.51000  0.95100  0.85200  1.0000
  O   O19       1.0  0.99000  0.95100  0.35200  1.0000
  O   O20       1.0  0.49000  0.04940  0.14800  1.0000
  O   O21       1.0  0.00382  0.44700  0.89500  1.0000
  O   O22       1.0  0.50400  0.55300  0.60500  1.0000
  O   O23       1.0  0.99600  0.55300  0.10500  1.0000
  O   O24       1.0  0.49600  0.44700  0.39500  1.0000
  O   O25       1.0  0.44500  0.95300  0.63400  1.0000
  O   O26       1.0  0.94500  0.04670  0.86600  1.0000
  O   O27       1.0  0.55500  0.04670  0.36600  1.0000
  O   O28       1.0  0.05500  0.95300  0.13400  1.0000
  O   O29       1.0  0.43400  0.55100  0.88500  1.0000
  O   O30       1.0  0.93400  0.44900  0.61500  1.0000
  O   O31       1.0  0.56600  0.44900  0.11500  1.0000
  O   O32       1.0  0.06580  0.55100  0.38500  1.0000
  Rb  Rb1       1.0  0.75500  0.24000  0.75400  1.0000
  Rb  Rb2       1.0  0.25500  0.76000  0.74600  1.0000
  Rb  Rb3       1.0  0.24500  0.76000  0.24600  1.0000
  Rb  Rb4       1.0  0.74500  0.24000  0.25400  1.0000
  Rb  Rb5       1.0  0.77000  0.25900  0.00332  1.0000
  Rb  Rb6       1.0  0.27000  0.74100  0.49700  1.0000
  Rb  Rb7       1.0  0.23000  0.74100  0.99700  1.0000
  Rb  Rb8       1.0  0.73000  0.25900  0.50300  1.0000
  S   S1        1.0  0.26600  0.07570  0.61000  1.0000
  S   S2        1.0  0.76600  0.92400  0.89000  1.0000
  S   S3        1.0  0.73400  0.92400  0.39000  1.0000
  S   S4        1.0  0.23400  0.07570  0.11000  1.0000
  S   S5        1.0  0.26400  0.42500  0.85900  1.0000
  S   S6        1.0  0.76400  0.57500  0.64100  1.0000
  S   S7        1.0  0.73600  0.57500  0.14100  1.0000
  S   S8        1.0  0.23600  0.42500  0.35900  1.0000
