data_image0
_chemical_formula_structural       Ce8Na12Ni12O48
_chemical_formula_sum              "Ce8 Na12 Ni12 O48"
_cell_length_a       11.0939
_cell_length_b       11.0939
_cell_length_c       11.0939
_cell_angle_alpha    109.471
_cell_angle_beta     109.471
_cell_angle_gamma    109.471

_space_group_name_H-M_alt    "P 1"
_space_group_IT_number       1

loop_
  _space_group_symop_operation_xyz
  'x, y, z'

loop_
  _atom_site_type_symbol
  _atom_site_label
  _atom_site_symmetry_multiplicity
  _atom_site_fract_x
  _atom_site_fract_y
  _atom_site_fract_z
  _atom_site_occupancy
  Ce  Ce1       1.0  0.00000  0.00000  0.00000  1.0000
  Ce  Ce2       1.0  0.50000  0.00000  0.00000  1.0000
  Ce  Ce3       1.0  0.00000  0.50000  0.00000  1.0000
  Ce  Ce4       1.0  0.50000  0.50000  0.00000  1.0000
  Ce  Ce5       1.0  0.00000  0.00000  0.50000  1.0000
  Ce  Ce6       1.0  0.50000  0.50000  0.50000  1.0000
  Ce  Ce7       1.0  0.50000  0.00000  0.50000  1.0000
  Ce  Ce8       1.0  0.00000  0.50000  0.50000  1.0000
  Na  Na1       1.0  0.37500  0.25000  0.12500  1.0000
  Na  Na2       1.0  0.25000  0.87500  0.12500  1.0000
  Na  Na3       1.0  0.37500  0.62500  0.25000  1.0000
  Na  Na4       1.0  0.87500  0.12500  0.25000  1.0000
  Na  Na5       1.0  0.75000  0.62500  0.37500  1.0000
  Na  Na6       1.0  0.12500  0.75000  0.37500  1.0000
  Na  Na7       1.0  0.25000  0.37500  0.62500  1.0000
  Na  Na8       1.0  0.87500  0.25000  0.62500  1.0000
  Na  Na9       1.0  0.12500  0.87500  0.75000  1.0000
  Na  Na10      1.0  0.62500  0.37500  0.75000  1.0000
  Na  Na11      1.0  0.75000  0.12500  0.87500  1.0000
  Na  Na12      1.0  0.62500  0.75000  0.87500  1.0000
  Ni  Ni1       1.0  0.87500  0.75000  0.12500  1.0000
  Ni  Ni2       1.0  0.75000  0.37500  0.12500  1.0000
  Ni  Ni3       1.0  0.12500  0.37500  0.25000  1.0000
  Ni  Ni4       1.0  0.62500  0.87500  0.25000  1.0000
  Ni  Ni5       1.0  0.25000  0.12500  0.37500  1.0000
  Ni  Ni6       1.0  0.62500  0.25000  0.37500  1.0000
  Ni  Ni7       1.0  0.37500  0.75000  0.62500  1.0000
  Ni  Ni8       1.0  0.75000  0.87500  0.62500  1.0000
  Ni  Ni9       1.0  0.37500  0.12500  0.75000  1.0000
  Ni  Ni10      1.0  0.87500  0.62500  0.75000  1.0000
  Ni  Ni11      1.0  0.25000  0.62500  0.87500  1.0000
  Ni  Ni12      1.0  0.12500  0.25000  0.87500  1.0000
  O   O1        1.0  0.29200  0.40700  0.03220  1.0000
  O   O2        1.0  0.24000  0.62600  0.03220  1.0000
  O   O3        1.0  0.62600  0.88600  0.09350  1.0000
  O   O4        1.0  0.96800  0.20800  0.09350  1.0000
  O   O5        1.0  0.74000  0.20800  0.11400  1.0000
  O   O6        1.0  0.87400  0.90700  0.11400  1.0000
  O   O7        1.0  0.59300  0.38600  0.12600  1.0000
  O   O8        1.0  0.03220  0.74000  0.12600  1.0000
  O   O9        1.0  0.46800  0.09350  0.20800  1.0000
  O   O10       1.0  0.24000  0.11400  0.20800  1.0000
  O   O11       1.0  0.61400  0.70800  0.24000  1.0000
  O   O12       1.0  0.12600  0.53200  0.24000  1.0000
  O   O13       1.0  0.29200  0.38600  0.26000  1.0000
  O   O14       1.0  0.46800  0.87400  0.26000  1.0000
  O   O15       1.0  0.90700  0.53200  0.29200  1.0000
  O   O16       1.0  0.88600  0.76000  0.29200  1.0000
  O   O17       1.0  0.61400  0.40700  0.37400  1.0000
  O   O18       1.0  0.26000  0.96800  0.37400  1.0000
  O   O19       1.0  0.09350  0.12600  0.38600  1.0000
  O   O20       1.0  0.79200  0.26000  0.38600  1.0000
  O   O21       1.0  0.79200  0.03220  0.40700  1.0000
  O   O22       1.0  0.11400  0.37400  0.40700  1.0000
  O   O23       1.0  0.59300  0.70800  0.46800  1.0000
  O   O24       1.0  0.37400  0.76000  0.46800  1.0000
  O   O25       1.0  0.62600  0.24000  0.53200  1.0000
  O   O26       1.0  0.40700  0.29200  0.53200  1.0000
  O   O27       1.0  0.88600  0.62600  0.59300  1.0000
  O   O28       1.0  0.20800  0.96800  0.59300  1.0000
  O   O29       1.0  0.20800  0.74000  0.61400  1.0000
  O   O30       1.0  0.90700  0.87400  0.61400  1.0000
  O   O31       1.0  0.74000  0.03220  0.62600  1.0000
  O   O32       1.0  0.38600  0.59300  0.62600  1.0000
  O   O33       1.0  0.09350  0.46800  0.70800  1.0000
  O   O34       1.0  0.11400  0.24000  0.70800  1.0000
  O   O35       1.0  0.53200  0.12600  0.74000  1.0000
  O   O36       1.0  0.70800  0.61400  0.74000  1.0000
  O   O37       1.0  0.87400  0.46800  0.76000  1.0000
  O   O38       1.0  0.38600  0.29200  0.76000  1.0000
  O   O39       1.0  0.53200  0.90700  0.79200  1.0000
  O   O40       1.0  0.76000  0.88600  0.79200  1.0000
  O   O41       1.0  0.96800  0.26000  0.87400  1.0000
  O   O42       1.0  0.40700  0.61400  0.87400  1.0000
  O   O43       1.0  0.12600  0.09350  0.88600  1.0000
  O   O44       1.0  0.26000  0.79200  0.88600  1.0000
  O   O45       1.0  0.37400  0.11400  0.90700  1.0000
  O   O46       1.0  0.03220  0.79200  0.90700  1.0000
  O   O47       1.0  0.76000  0.37400  0.96800  1.0000
  O   O48       1.0  0.70800  0.59300  0.96800  1.0000
