data_image0
_chemical_formula_structural       C8Cs8Mo4O16S20
_chemical_formula_sum              "C8 Cs8 Mo4 O16 S20"
_cell_length_a       11.8455
_cell_length_b       11.3402
_cell_length_c       9.19825
_cell_angle_alpha    90
_cell_angle_beta     90
_cell_angle_gamma    90

_space_group_name_H-M_alt    "P 1"
_space_group_IT_number       1

loop_
  _space_group_symop_operation_xyz
  'x, y, z'

loop_
  _atom_site_type_symbol
  _atom_site_label
  _atom_site_symmetry_multiplicity
  _atom_site_fract_x
  _atom_site_fract_y
  _atom_site_fract_z
  _atom_site_occupancy
  C   C1        1.0  0.29100  0.18300  0.04180  1.0000
  C   C2        1.0  0.79100  0.31700  0.04180  1.0000
  C   C3        1.0  0.38100  0.09410  0.09570  1.0000
  C   C4        1.0  0.88100  0.40600  0.09570  1.0000
  C   C5        1.0  0.20900  0.68300  0.54200  1.0000
  C   C6        1.0  0.70900  0.81700  0.54200  1.0000
  C   C7        1.0  0.11900  0.59400  0.59600  1.0000
  C   C8        1.0  0.61900  0.90600  0.59600  1.0000
  Cs  Cs1       1.0  0.67600  0.01330  0.20500  1.0000
  Cs  Cs2       1.0  0.17600  0.48700  0.20500  1.0000
  Cs  Cs3       1.0  0.46000  0.71100  0.33900  1.0000
  Cs  Cs4       1.0  0.96000  0.78900  0.33900  1.0000
  Cs  Cs5       1.0  0.82400  0.51300  0.70500  1.0000
  Cs  Cs6       1.0  0.32400  0.98700  0.70500  1.0000
  Cs  Cs7       1.0  0.03970  0.21100  0.83900  1.0000
  Cs  Cs8       1.0  0.54000  0.28900  0.83900  1.0000
  Mo  Mo1       1.0  0.16200  0.10400  0.32200  1.0000
  Mo  Mo2       1.0  0.66200  0.39600  0.32200  1.0000
  Mo  Mo3       1.0  0.33800  0.60400  0.82200  1.0000
  Mo  Mo4       1.0  0.83800  0.89600  0.82200  1.0000
  O   O1        1.0  0.46700  0.07680  0.02120  1.0000
  O   O2        1.0  0.96700  0.42300  0.02120  1.0000
  O   O3        1.0  0.21900  0.22000  0.13600  1.0000
  O   O4        1.0  0.71900  0.28000  0.13600  1.0000
  O   O5        1.0  0.20500  0.71300  0.41100  1.0000
  O   O6        1.0  0.70500  0.78700  0.41100  1.0000
  O   O7        1.0  0.65300  0.50700  0.45000  1.0000
  O   O8        1.0  0.15300  0.99300  0.45000  1.0000
  O   O9        1.0  0.03260  0.57700  0.52100  1.0000
  O   O10       1.0  0.53300  0.92300  0.52100  1.0000
  O   O11       1.0  0.28100  0.72000  0.63600  1.0000
  O   O12       1.0  0.78100  0.78000  0.63600  1.0000
  O   O13       1.0  0.29500  0.21300  0.91100  1.0000
  O   O14       1.0  0.79500  0.28700  0.91100  1.0000
  O   O15       1.0  0.84700  0.00656  0.95000  1.0000
  O   O16       1.0  0.34700  0.49300  0.95000  1.0000
  S   S1        1.0  0.59800  0.51200  0.11300  1.0000
  S   S2        1.0  0.09750  0.98800  0.11300  1.0000
  S   S3        1.0  0.98100  0.09820  0.21000  1.0000
  S   S4        1.0  0.48100  0.40200  0.21000  1.0000
  S   S5        1.0  0.35400  0.02360  0.25700  1.0000
  S   S6        1.0  0.85400  0.47600  0.25700  1.0000
  S   S7        1.0  0.59200  0.22900  0.45200  1.0000
  S   S8        1.0  0.09150  0.27100  0.45200  1.0000
  S   S9        1.0  0.26400  0.24900  0.46700  1.0000
  S   S10       1.0  0.76400  0.25100  0.46700  1.0000
  S   S11       1.0  0.90200  0.01180  0.61300  1.0000
  S   S12       1.0  0.40200  0.48800  0.61300  1.0000
  S   S13       1.0  0.51900  0.59800  0.71000  1.0000
  S   S14       1.0  0.01880  0.90200  0.71000  1.0000
  S   S15       1.0  0.14600  0.52400  0.75700  1.0000
  S   S16       1.0  0.64600  0.97600  0.75700  1.0000
  S   S17       1.0  0.90800  0.72900  0.95200  1.0000
  S   S18       1.0  0.40800  0.77100  0.95200  1.0000
  S   S19       1.0  0.23600  0.74900  0.96700  1.0000
  S   S20       1.0  0.73600  0.75100  0.96700  1.0000
