data_image0
_chemical_formula_structural       La2Mo8Na10O32
_chemical_formula_sum              "La2 Mo8 Na10 O32"
_cell_length_a       9.94944
_cell_length_b       9.94944
_cell_length_c       9.94944
_cell_angle_alpha    109.317
_cell_angle_beta     109.548
_cell_angle_gamma    109.548

_space_group_name_H-M_alt    "P 1"
_space_group_IT_number       1

loop_
  _space_group_symop_operation_xyz
  'x, y, z'

loop_
  _atom_site_type_symbol
  _atom_site_label
  _atom_site_symmetry_multiplicity
  _atom_site_fract_x
  _atom_site_fract_y
  _atom_site_fract_z
  _atom_site_occupancy
  La  La1       1.0  0.25000  0.87500  0.12500  1.0000
  La  La2       1.0  0.75000  0.12500  0.87500  1.0000
  Mo  Mo1       1.0  0.47600  0.21600  0.04750  1.0000
  Mo  Mo2       1.0  0.16900  0.24100  0.21600  1.0000
  Mo  Mo3       1.0  0.02430  0.57200  0.24100  1.0000
  Mo  Mo4       1.0  0.66900  0.95200  0.42800  1.0000
  Mo  Mo5       1.0  0.33100  0.04750  0.57200  1.0000
  Mo  Mo6       1.0  0.97600  0.42800  0.75900  1.0000
  Mo  Mo7       1.0  0.83100  0.75900  0.78400  1.0000
  Mo  Mo8       1.0  0.52400  0.78400  0.95200  1.0000
  Na  Na1       1.0  0.33100  0.53600  0.11400  1.0000
  Na  Na2       1.0  0.92200  0.88600  0.21700  1.0000
  Na  Na3       1.0  0.83100  0.21700  0.29500  1.0000
  Na  Na4       1.0  0.75000  0.62500  0.37500  1.0000
  Na  Na5       1.0  0.57800  0.29500  0.46400  1.0000
  Na  Na6       1.0  0.42200  0.70500  0.53600  1.0000
  Na  Na7       1.0  0.25000  0.37500  0.62500  1.0000
  Na  Na8       1.0  0.16900  0.78300  0.70500  1.0000
  Na  Na9       1.0  0.07800  0.11400  0.78300  1.0000
  Na  Na10      1.0  0.66900  0.46400  0.88600  1.0000
  O   O1        1.0  0.02440  0.15200  0.00028  1.0000
  O   O2        1.0  0.35600  0.31200  0.02010  1.0000
  O   O3        1.0  0.65200  1.00000  0.02410  1.0000
  O   O4        1.0  0.42500  0.76200  0.07130  1.0000
  O   O5        1.0  0.15200  0.62800  0.15200  1.0000
  O   O6        1.0  0.92500  0.35300  0.16300  1.0000
  O   O7        1.0  0.86600  0.62400  0.19700  1.0000
  O   O8        1.0  0.31000  0.16300  0.23800  1.0000
  O   O9        1.0  0.63400  0.33200  0.25800  1.0000
  O   O10       1.0  0.29200  0.45600  0.31200  1.0000
  O   O11       1.0  0.07350  0.19700  0.33200  1.0000
  O   O12       1.0  0.79200  0.98000  0.33600  1.0000
  O   O13       1.0  0.19000  0.92900  0.35300  1.0000
  O   O14       1.0  0.52400  0.02410  0.37200  1.0000
  O   O15       1.0  0.57300  0.74200  0.37600  1.0000
  O   O16       1.0  0.14400  0.66400  0.45600  1.0000
  O   O17       1.0  0.85600  0.33600  0.54400  1.0000
  O   O18       1.0  0.42700  0.25800  0.62400  1.0000
  O   O19       1.0  0.47600  0.97600  0.62800  1.0000
  O   O20       1.0  0.81000  0.07130  0.64700  1.0000
  O   O21       1.0  0.20800  0.02010  0.66400  1.0000
  O   O22       1.0  0.92700  0.80300  0.66800  1.0000
  O   O23       1.0  0.70800  0.54400  0.68800  1.0000
  O   O24       1.0  0.36600  0.66800  0.74200  1.0000
  O   O25       1.0  0.69000  0.83700  0.76200  1.0000
  O   O26       1.0  0.13400  0.37600  0.80300  1.0000
  O   O27       1.0  0.07530  0.64700  0.83700  1.0000
  O   O28       1.0  0.84800  0.37200  0.84800  1.0000
  O   O29       1.0  0.57500  0.23800  0.92900  1.0000
  O   O30       1.0  0.34800  0.00028  0.97600  1.0000
  O   O31       1.0  0.64400  0.68800  0.98000  1.0000
  O   O32       1.0  0.97600  0.84800  0.00000  1.0000
