data_image0
_chemical_formula_structural       Cs20Sb32
_chemical_formula_sum              "Cs20 Sb32"
_cell_length_a       7.46026
_cell_length_b       11.688
_cell_length_c       28.3987
_cell_angle_alpha    90
_cell_angle_beta     97.2206
_cell_angle_gamma    90

_space_group_name_H-M_alt    "P 1"
_space_group_IT_number       1

loop_
  _space_group_symop_operation_xyz
  'x, y, z'

loop_
  _atom_site_type_symbol
  _atom_site_label
  _atom_site_symmetry_multiplicity
  _atom_site_fract_x
  _atom_site_fract_y
  _atom_site_fract_z
  _atom_site_occupancy
  Cs  Cs1       1.0  0.74300  0.39500  0.02100  1.0000
  Cs  Cs2       1.0  0.47000  0.93200  0.07510  1.0000
  Cs  Cs3       1.0  0.97700  0.68600  0.12400  1.0000
  Cs  Cs4       1.0  0.76600  0.31000  0.18800  1.0000
  Cs  Cs5       1.0  0.71000  0.96300  0.24100  1.0000
  Cs  Cs6       1.0  0.29000  0.46300  0.25900  1.0000
  Cs  Cs7       1.0  0.23400  0.81000  0.31200  1.0000
  Cs  Cs8       1.0  0.02280  0.18600  0.37600  1.0000
  Cs  Cs9       1.0  0.53000  0.43200  0.42500  1.0000
  Cs  Cs10      1.0  0.25700  0.89500  0.47900  1.0000
  Cs  Cs11      1.0  0.74300  0.10500  0.52100  1.0000
  Cs  Cs12      1.0  0.47000  0.56800  0.57500  1.0000
  Cs  Cs13      1.0  0.97700  0.81400  0.62400  1.0000
  Cs  Cs14      1.0  0.76600  0.19000  0.68800  1.0000
  Cs  Cs15      1.0  0.71000  0.53700  0.74100  1.0000
  Cs  Cs16      1.0  0.29000  0.03700  0.75900  1.0000
  Cs  Cs17      1.0  0.23400  0.69000  0.81200  1.0000
  Cs  Cs18      1.0  0.02280  0.31400  0.87600  1.0000
  Cs  Cs19      1.0  0.53000  0.06780  0.92500  1.0000
  Cs  Cs20      1.0  0.25700  0.60500  0.97900  1.0000
  Sb  Sb1       1.0  0.23600  0.25100  0.02440  1.0000
  Sb  Sb2       1.0  0.93700  0.09570  0.02770  1.0000
  Sb  Sb3       1.0  0.46800  0.53700  0.10800  1.0000
  Sb  Sb4       1.0  0.19100  0.36100  0.11300  1.0000
  Sb  Sb5       1.0  0.98900  0.02340  0.12500  1.0000
  Sb  Sb6       1.0  0.30300  0.14400  0.16400  1.0000
  Sb  Sb7       1.0  0.49000  0.69600  0.18300  1.0000
  Sb  Sb8       1.0  0.81100  0.62900  0.24400  1.0000
  Sb  Sb9       1.0  0.18900  0.12900  0.25600  1.0000
  Sb  Sb10      1.0  0.51000  0.19600  0.31700  1.0000
  Sb  Sb11      1.0  0.69700  0.64400  0.33600  1.0000
  Sb  Sb12      1.0  0.01120  0.52300  0.37500  1.0000
  Sb  Sb13      1.0  0.80900  0.86100  0.38700  1.0000
  Sb  Sb14      1.0  0.53200  0.03720  0.39200  1.0000
  Sb  Sb15      1.0  0.06260  0.59600  0.47200  1.0000
  Sb  Sb16      1.0  0.76400  0.75100  0.47600  1.0000
  Sb  Sb17      1.0  0.23600  0.24900  0.52400  1.0000
  Sb  Sb18      1.0  0.93700  0.40400  0.52800  1.0000
  Sb  Sb19      1.0  0.46800  0.96300  0.60800  1.0000
  Sb  Sb20      1.0  0.19100  0.13900  0.61300  1.0000
  Sb  Sb21      1.0  0.98900  0.47700  0.62500  1.0000
  Sb  Sb22      1.0  0.30300  0.35600  0.66400  1.0000
  Sb  Sb23      1.0  0.49000  0.80400  0.68300  1.0000
  Sb  Sb24      1.0  0.81100  0.87100  0.74400  1.0000
  Sb  Sb25      1.0  0.18900  0.37100  0.75600  1.0000
  Sb  Sb26      1.0  0.51000  0.30400  0.81700  1.0000
  Sb  Sb27      1.0  0.69700  0.85600  0.83600  1.0000
  Sb  Sb28      1.0  0.01120  0.97700  0.87500  1.0000
  Sb  Sb29      1.0  0.80900  0.63900  0.88700  1.0000
  Sb  Sb30      1.0  0.53200  0.46300  0.89200  1.0000
  Sb  Sb31      1.0  0.06260  0.90400  0.97200  1.0000
  Sb  Sb32      1.0  0.76400  0.74900  0.97600  1.0000
