data_image0
_chemical_formula_structural       Eu12Hg8Na12O48
_chemical_formula_sum              "Eu12 Hg8 Na12 O48"
_cell_length_a       11.3366
_cell_length_b       11.3366
_cell_length_c       11.3366
_cell_angle_alpha    109.471
_cell_angle_beta     109.471
_cell_angle_gamma    109.471

_space_group_name_H-M_alt    "P 1"
_space_group_IT_number       1

loop_
  _space_group_symop_operation_xyz
  'x, y, z'

loop_
  _atom_site_type_symbol
  _atom_site_label
  _atom_site_symmetry_multiplicity
  _atom_site_fract_x
  _atom_site_fract_y
  _atom_site_fract_z
  _atom_site_occupancy
  Eu  Eu1       1.0  0.25000  0.87500  0.12500  1.0000
  Eu  Eu2       1.0  0.37500  0.25000  0.12500  1.0000
  Eu  Eu3       1.0  0.37500  0.62500  0.25000  1.0000
  Eu  Eu4       1.0  0.87500  0.12500  0.25000  1.0000
  Eu  Eu5       1.0  0.75000  0.62500  0.37500  1.0000
  Eu  Eu6       1.0  0.12500  0.75000  0.37500  1.0000
  Eu  Eu7       1.0  0.87500  0.25000  0.62500  1.0000
  Eu  Eu8       1.0  0.25000  0.37500  0.62500  1.0000
  Eu  Eu9       1.0  0.12500  0.87500  0.75000  1.0000
  Eu  Eu10      1.0  0.62500  0.37500  0.75000  1.0000
  Eu  Eu11      1.0  0.75000  0.12500  0.87500  1.0000
  Eu  Eu12      1.0  0.62500  0.75000  0.87500  1.0000
  Hg  Hg1       1.0  0.00000  0.00000  0.00000  1.0000
  Hg  Hg2       1.0  0.50000  0.00000  0.00000  1.0000
  Hg  Hg3       1.0  0.00000  0.50000  0.00000  1.0000
  Hg  Hg4       1.0  0.50000  0.50000  0.00000  1.0000
  Hg  Hg5       1.0  0.00000  0.00000  0.50000  1.0000
  Hg  Hg6       1.0  0.50000  0.50000  0.50000  1.0000
  Hg  Hg7       1.0  0.50000  0.00000  0.50000  1.0000
  Hg  Hg8       1.0  1.00000  0.50000  0.50000  1.0000
  Na  Na1       1.0  0.75000  0.37500  0.12500  1.0000
  Na  Na2       1.0  0.87500  0.75000  0.12500  1.0000
  Na  Na3       1.0  0.12500  0.37500  0.25000  1.0000
  Na  Na4       1.0  0.62500  0.87500  0.25000  1.0000
  Na  Na5       1.0  0.25000  0.12500  0.37500  1.0000
  Na  Na6       1.0  0.62500  0.25000  0.37500  1.0000
  Na  Na7       1.0  0.75000  0.87500  0.62500  1.0000
  Na  Na8       1.0  0.37500  0.75000  0.62500  1.0000
  Na  Na9       1.0  0.37500  0.12500  0.75000  1.0000
  Na  Na10      1.0  0.87500  0.62500  0.75000  1.0000
  Na  Na11      1.0  0.25000  0.62500  0.87500  1.0000
  Na  Na12      1.0  0.12500  0.25000  0.87500  1.0000
  O   O1        1.0  0.33700  0.42200  0.04200  1.0000
  O   O2        1.0  0.20500  0.62000  0.04200  1.0000
  O   O3        1.0  0.95800  0.16300  0.07830  1.0000
  O   O4        1.0  0.62000  0.91600  0.07830  1.0000
  O   O5        1.0  0.88000  0.92200  0.08430  1.0000
  O   O6        1.0  0.70500  0.16300  0.08430  1.0000
  O   O7        1.0  0.57800  0.41600  0.12000  1.0000
  O   O8        1.0  0.04200  0.70500  0.12000  1.0000
  O   O9        1.0  0.20500  0.08430  0.16300  1.0000
  O   O10       1.0  0.45800  0.07830  0.16300  1.0000
  O   O11       1.0  0.58400  0.66300  0.20500  1.0000
  O   O12       1.0  0.12000  0.54200  0.20500  1.0000
  O   O13       1.0  0.33700  0.41600  0.29500  1.0000
  O   O14       1.0  0.45800  0.88000  0.29500  1.0000
  O   O15       1.0  0.91600  0.79500  0.33700  1.0000
  O   O16       1.0  0.92200  0.54200  0.33700  1.0000
  O   O17       1.0  0.58400  0.42200  0.38000  1.0000
  O   O18       1.0  0.29500  0.95800  0.38000  1.0000
  O   O19       1.0  0.07830  0.12000  0.41600  1.0000
  O   O20       1.0  0.83700  0.29500  0.41600  1.0000
  O   O21       1.0  0.83700  0.04200  0.42200  1.0000
  O   O22       1.0  0.08430  0.38000  0.42200  1.0000
  O   O23       1.0  0.57800  0.66300  0.45800  1.0000
  O   O24       1.0  0.38000  0.79500  0.45800  1.0000
  O   O25       1.0  0.62000  0.20500  0.54200  1.0000
  O   O26       1.0  0.42200  0.33700  0.54200  1.0000
  O   O27       1.0  0.91600  0.62000  0.57800  1.0000
  O   O28       1.0  0.16300  0.95800  0.57800  1.0000
  O   O29       1.0  0.16300  0.70500  0.58400  1.0000
  O   O30       1.0  0.92200  0.88000  0.58400  1.0000
  O   O31       1.0  0.70500  0.04200  0.62000  1.0000
  O   O32       1.0  0.41600  0.57800  0.62000  1.0000
  O   O33       1.0  0.07830  0.45800  0.66300  1.0000
  O   O34       1.0  0.08430  0.20500  0.66300  1.0000
  O   O35       1.0  0.54200  0.12000  0.70500  1.0000
  O   O36       1.0  0.66300  0.58400  0.70500  1.0000
  O   O37       1.0  0.88000  0.45800  0.79500  1.0000
  O   O38       1.0  0.41600  0.33700  0.79500  1.0000
  O   O39       1.0  0.54200  0.92200  0.83700  1.0000
  O   O40       1.0  0.79500  0.91600  0.83700  1.0000
  O   O41       1.0  0.95800  0.29500  0.88000  1.0000
  O   O42       1.0  0.42200  0.58400  0.88000  1.0000
  O   O43       1.0  0.29500  0.83700  0.91600  1.0000
  O   O44       1.0  0.12000  0.07830  0.91600  1.0000
  O   O45       1.0  0.04200  0.83700  0.92200  1.0000
  O   O46       1.0  0.38000  0.08430  0.92200  1.0000
  O   O47       1.0  0.79500  0.38000  0.95800  1.0000
  O   O48       1.0  0.66300  0.57800  0.95800  1.0000
