data_image0
_chemical_formula_structural       Al8Cs24O24
_chemical_formula_sum              "Al8 Cs24 O24"
_cell_length_a       7.23238
_cell_length_b       12.5573
_cell_length_c       14.3388
_cell_angle_alpha    90
_cell_angle_beta     91.6185
_cell_angle_gamma    90

_space_group_name_H-M_alt    "P 1"
_space_group_IT_number       1

loop_
  _space_group_symop_operation_xyz
  'x, y, z'

loop_
  _atom_site_type_symbol
  _atom_site_label
  _atom_site_symmetry_multiplicity
  _atom_site_fract_x
  _atom_site_fract_y
  _atom_site_fract_z
  _atom_site_occupancy
  Al  Al1       1.0  0.58400  0.54500  0.07140  1.0000
  Al  Al2       1.0  0.08330  0.95500  0.07160  1.0000
  Al  Al3       1.0  0.91700  0.45500  0.42800  1.0000
  Al  Al4       1.0  0.41600  0.04480  0.42900  1.0000
  Al  Al5       1.0  0.58400  0.95500  0.57100  1.0000
  Al  Al6       1.0  0.08330  0.54500  0.57200  1.0000
  Al  Al7       1.0  0.91700  0.04470  0.92800  1.0000
  Al  Al8       1.0  0.41600  0.45500  0.92900  1.0000
  Cs  Cs1       1.0  0.66700  0.80600  0.03350  1.0000
  Cs  Cs2       1.0  0.16600  0.69400  0.03410  1.0000
  Cs  Cs3       1.0  0.15100  0.43500  0.13900  1.0000
  Cs  Cs4       1.0  0.64900  0.06450  0.14000  1.0000
  Cs  Cs5       1.0  0.67500  0.34500  0.24200  1.0000
  Cs  Cs6       1.0  0.17500  0.15400  0.24200  1.0000
  Cs  Cs7       1.0  0.82500  0.65400  0.25800  1.0000
  Cs  Cs8       1.0  0.32500  0.84500  0.25800  1.0000
  Cs  Cs9       1.0  0.35100  0.56500  0.36000  1.0000
  Cs  Cs10      1.0  0.84900  0.93500  0.36100  1.0000
  Cs  Cs11      1.0  0.83400  0.19400  0.46600  1.0000
  Cs  Cs12      1.0  0.33300  0.30600  0.46600  1.0000
  Cs  Cs13      1.0  0.66700  0.69400  0.53400  1.0000
  Cs  Cs14      1.0  0.16600  0.80600  0.53400  1.0000
  Cs  Cs15      1.0  0.15100  0.06490  0.63900  1.0000
  Cs  Cs16      1.0  0.64900  0.43500  0.64000  1.0000
  Cs  Cs17      1.0  0.67500  0.15500  0.74200  1.0000
  Cs  Cs18      1.0  0.17500  0.34600  0.74200  1.0000
  Cs  Cs19      1.0  0.82500  0.84600  0.75800  1.0000
  Cs  Cs20      1.0  0.32500  0.65500  0.75800  1.0000
  Cs  Cs21      1.0  0.35100  0.93500  0.86000  1.0000
  Cs  Cs22      1.0  0.84900  0.56500  0.86100  1.0000
  Cs  Cs23      1.0  0.83400  0.30600  0.96600  1.0000
  Cs  Cs24      1.0  0.33300  0.19400  0.96600  1.0000
  O   O1        1.0  0.50500  0.40900  0.04410  1.0000
  O   O2        1.0  0.00346  0.09120  0.04420  1.0000
  O   O3        1.0  0.82500  0.55800  0.08320  1.0000
  O   O4        1.0  0.32500  0.94400  0.08480  1.0000
  O   O5        1.0  0.96500  0.89400  0.16400  1.0000
  O   O6        1.0  0.46500  0.60400  0.16500  1.0000
  O   O7        1.0  0.53500  0.10400  0.33500  1.0000
  O   O8        1.0  0.03540  0.39400  0.33600  1.0000
  O   O9        1.0  0.67500  0.44400  0.41500  1.0000
  O   O10       1.0  0.17500  0.05780  0.41700  1.0000
  O   O11       1.0  0.99700  0.59100  0.45600  1.0000
  O   O12       1.0  0.49500  0.90900  0.45600  1.0000
  O   O13       1.0  0.50500  0.09110  0.54400  1.0000
  O   O14       1.0  0.00346  0.40900  0.54400  1.0000
  O   O15       1.0  0.82500  0.94200  0.58300  1.0000
  O   O16       1.0  0.32500  0.55600  0.58500  1.0000
  O   O17       1.0  0.96500  0.60600  0.66400  1.0000
  O   O18       1.0  0.46500  0.89600  0.66500  1.0000
  O   O19       1.0  0.53500  0.39600  0.83500  1.0000
  O   O20       1.0  0.03540  0.10600  0.83600  1.0000
  O   O21       1.0  0.67500  0.05560  0.91500  1.0000
  O   O22       1.0  0.17500  0.44200  0.91700  1.0000
  O   O23       1.0  0.99700  0.90900  0.95600  1.0000
  O   O24       1.0  0.49500  0.59100  0.95600  1.0000
