data_image0
_chemical_formula_structural       Al39Rh12
_chemical_formula_sum              "Al39 Rh12"
_cell_length_a       8.41771
_cell_length_b       8.90353
_cell_length_c       12.8075
_cell_angle_alpha    105.775
_cell_angle_beta     90
_cell_angle_gamma    118.211

_space_group_name_H-M_alt    "P 1"
_space_group_IT_number       1

loop_
  _space_group_symop_operation_xyz
  'x, y, z'

loop_
  _atom_site_type_symbol
  _atom_site_label
  _atom_site_symmetry_multiplicity
  _atom_site_fract_x
  _atom_site_fract_y
  _atom_site_fract_z
  _atom_site_occupancy
  Al  Al1       1.0  0.25100  0.00000  0.00000  1.0000
  Al  Al2       1.0  0.74900  0.00000  0.00000  1.0000
  Al  Al3       1.0  0.75400  0.50900  0.01520  1.0000
  Al  Al4       1.0  0.15400  0.74200  0.11000  1.0000
  Al  Al5       1.0  0.58800  0.74200  0.11000  1.0000
  Al  Al6       1.0  0.40700  0.36800  0.11400  1.0000
  Al  Al7       1.0  0.96100  0.36800  0.11400  1.0000
  Al  Al8       1.0  0.52100  0.04180  0.17000  1.0000
  Al  Al9       1.0  0.06850  0.13700  0.17500  1.0000
  Al  Al10      1.0  0.91000  0.81900  0.21300  1.0000
  Al  Al11      1.0  0.70300  0.40700  0.23300  1.0000
  Al  Al12      1.0  0.33600  0.67200  0.29900  1.0000
  Al  Al13      1.0  0.26200  0.98400  0.32600  1.0000
  Al  Al14      1.0  0.72200  0.98400  0.32600  1.0000
  Al  Al15      1.0  0.40000  0.35600  0.33000  1.0000
  Al  Al16      1.0  0.95600  0.35600  0.33000  1.0000
  Al  Al17      1.0  0.92200  0.84400  0.41800  1.0000
  Al  Al18      1.0  0.13900  0.72700  0.48100  1.0000
  Al  Al19      1.0  0.58800  0.72700  0.48100  1.0000
  Al  Al20      1.0  0.76000  0.52100  0.49000  1.0000
  Al  Al21      1.0  0.50000  0.00000  0.50000  1.0000
  Al  Al22      1.0  0.24000  0.47900  0.51000  1.0000
  Al  Al23      1.0  0.41200  0.27300  0.51900  1.0000
  Al  Al24      1.0  0.86100  0.27300  0.51900  1.0000
  Al  Al25      1.0  0.07800  0.15600  0.58200  1.0000
  Al  Al26      1.0  0.04410  0.64400  0.67000  1.0000
  Al  Al27      1.0  0.60000  0.64400  0.67000  1.0000
  Al  Al28      1.0  0.27800  0.01610  0.67400  1.0000
  Al  Al29      1.0  0.73800  0.01610  0.67400  1.0000
  Al  Al30      1.0  0.66400  0.32800  0.70100  1.0000
  Al  Al31      1.0  0.29700  0.59300  0.76700  1.0000
  Al  Al32      1.0  0.09050  0.18100  0.78700  1.0000
  Al  Al33      1.0  0.93200  0.86300  0.82500  1.0000
  Al  Al34      1.0  0.47900  0.95800  0.83000  1.0000
  Al  Al35      1.0  0.03870  0.63200  0.88600  1.0000
  Al  Al36      1.0  0.59300  0.63200  0.88600  1.0000
  Al  Al37      1.0  0.41200  0.25800  0.89000  1.0000
  Al  Al38      1.0  0.84600  0.25800  0.89000  1.0000
  Al  Al39      1.0  0.24600  0.49100  0.98500  1.0000
  Rh  Rh1       1.0  0.90800  0.81700  0.01650  1.0000
  Rh  Rh2       1.0  0.60200  0.20500  0.02100  1.0000
  Rh  Rh3       1.0  0.04250  0.64600  0.27900  1.0000
  Rh  Rh4       1.0  0.60400  0.64600  0.27900  1.0000
  Rh  Rh5       1.0  0.60300  0.20700  0.37500  1.0000
  Rh  Rh6       1.0  0.08220  0.16400  0.38400  1.0000
  Rh  Rh7       1.0  0.91800  0.83600  0.61600  1.0000
  Rh  Rh8       1.0  0.39700  0.79300  0.62500  1.0000
  Rh  Rh9       1.0  0.39600  0.35400  0.72100  1.0000
  Rh  Rh10      1.0  0.95700  0.35400  0.72100  1.0000
  Rh  Rh11      1.0  0.39800  0.79500  0.97900  1.0000
  Rh  Rh12      1.0  0.09170  0.18300  0.98400  1.0000
