data_image0
_chemical_formula_structural       K4O28Sc4Si8Sr4
_chemical_formula_sum              "K4 O28 Sc4 Si8 Sr4"
_cell_length_a       9.43588
_cell_length_b       5.46629
_cell_length_c       12.4896
_cell_angle_alpha    90
_cell_angle_beta     104.398
_cell_angle_gamma    90

_space_group_name_H-M_alt    "P 1"
_space_group_IT_number       1

loop_
  _space_group_symop_operation_xyz
  'x, y, z'

loop_
  _atom_site_type_symbol
  _atom_site_label
  _atom_site_symmetry_multiplicity
  _atom_site_fract_x
  _atom_site_fract_y
  _atom_site_fract_z
  _atom_site_occupancy
  K   K1        1.0  0.13100  0.26700  0.14300  1.0000
  K   K2        1.0  0.36900  0.76700  0.35700  1.0000
  K   K3        1.0  0.63100  0.23300  0.64300  1.0000
  K   K4        1.0  0.86900  0.73300  0.85700  1.0000
  O   O1        1.0  0.35400  0.09340  0.02540  1.0000
  O   O2        1.0  0.07900  0.76700  0.05750  1.0000
  O   O3        1.0  0.39800  0.56500  0.09230  1.0000
  O   O4        1.0  0.85700  0.53300  0.12300  1.0000
  O   O5        1.0  0.62500  0.25200  0.14100  1.0000
  O   O6        1.0  0.89100  0.01290  0.15500  1.0000
  O   O7        1.0  0.40700  0.19500  0.23500  1.0000
  O   O8        1.0  0.09270  0.69500  0.26500  1.0000
  O   O9        1.0  0.60900  0.51300  0.34500  1.0000
  O   O10       1.0  0.87500  0.75200  0.35900  1.0000
  O   O11       1.0  0.64300  0.03280  0.37700  1.0000
  O   O12       1.0  0.10200  0.06490  0.40800  1.0000
  O   O13       1.0  0.42100  0.26700  0.44200  1.0000
  O   O14       1.0  0.14600  0.59300  0.47500  1.0000
  O   O15       1.0  0.85400  0.40700  0.52500  1.0000
  O   O16       1.0  0.57900  0.73300  0.55800  1.0000
  O   O17       1.0  0.89800  0.93500  0.59200  1.0000
  O   O18       1.0  0.35700  0.96700  0.62300  1.0000
  O   O19       1.0  0.12500  0.24800  0.64100  1.0000
  O   O20       1.0  0.39100  0.48700  0.65500  1.0000
  O   O21       1.0  0.90700  0.30500  0.73500  1.0000
  O   O22       1.0  0.59300  0.80500  0.76500  1.0000
  O   O23       1.0  0.10900  0.98700  0.84500  1.0000
  O   O24       1.0  0.37500  0.74800  0.85900  1.0000
  O   O25       1.0  0.14300  0.46700  0.87700  1.0000
  O   O26       1.0  0.60200  0.43500  0.90800  1.0000
  O   O27       1.0  0.92100  0.23300  0.94200  1.0000
  O   O28       1.0  0.64600  0.90700  0.97500  1.0000
  Sc  Sc1       1.0  0.75700  0.23500  0.02330  1.0000
  Sc  Sc2       1.0  0.74300  0.73500  0.47700  1.0000
  Sc  Sc3       1.0  0.25700  0.26500  0.52300  1.0000
  Sc  Sc4       1.0  0.24300  0.76500  0.97700  1.0000
  Si  Si1       1.0  0.44700  0.28000  0.11700  1.0000
  Si  Si2       1.0  0.97500  0.75700  0.14300  1.0000
  Si  Si3       1.0  0.52500  0.25700  0.35700  1.0000
  Si  Si4       1.0  0.05330  0.78000  0.38300  1.0000
  Si  Si5       1.0  0.94700  0.22000  0.61700  1.0000
  Si  Si6       1.0  0.47500  0.74300  0.64300  1.0000
  Si  Si7       1.0  0.02500  0.24300  0.85700  1.0000
  Si  Si8       1.0  0.55300  0.72000  0.88300  1.0000
  Sr  Sr1       1.0  0.64500  0.77200  0.17600  1.0000
  Sr  Sr2       1.0  0.85500  0.27200  0.32400  1.0000
  Sr  Sr3       1.0  0.14500  0.72800  0.67600  1.0000
  Sr  Sr4       1.0  0.35500  0.22800  0.82400  1.0000
