data_image0
_chemical_formula_structural       As21Nb27Pd3
_chemical_formula_sum              "As21 Nb27 Pd3"
_cell_length_a       16.7604
_cell_length_b       16.7603
_cell_length_c       3.59687
_cell_angle_alpha    90
_cell_angle_beta     90
_cell_angle_gamma    119.998

_space_group_name_H-M_alt    "P 1"
_space_group_IT_number       1

loop_
  _space_group_symop_operation_xyz
  'x, y, z'

loop_
  _atom_site_type_symbol
  _atom_site_label
  _atom_site_symmetry_multiplicity
  _atom_site_fract_x
  _atom_site_fract_y
  _atom_site_fract_z
  _atom_site_occupancy
  As  As1       1.0  0.26800  0.07300  0.00000  1.0000
  As  As2       1.0  0.48900  0.11500  0.00000  1.0000
  As  As3       1.0  0.71100  0.15700  0.00000  1.0000
  As  As4       1.0  0.92700  0.19500  0.00000  1.0000
  As  As5       1.0  0.44700  0.28900  0.00000  1.0000
  As  As6       1.0  0.66700  0.33300  0.00000  1.0000
  As  As7       1.0  0.88500  0.37300  0.00000  1.0000
  As  As8       1.0  0.62700  0.51100  0.00000  1.0000
  As  As9       1.0  0.84300  0.55300  0.00000  1.0000
  As  As10      1.0  0.80500  0.73200  0.00000  1.0000
  As  As11      1.0  0.00000  0.00000  0.50000  1.0000
  As  As12      1.0  0.19400  0.26300  0.50000  1.0000
  As  As13      1.0  0.15700  0.44800  0.50000  1.0000
  As  As14      1.0  0.37300  0.48700  0.50000  1.0000
  As  As15      1.0  0.11400  0.62700  0.50000  1.0000
  As  As16      1.0  0.33300  0.66700  0.50000  1.0000
  As  As17      1.0  0.55200  0.70900  0.50000  1.0000
  As  As18      1.0  0.06940  0.80600  0.50000  1.0000
  As  As19      1.0  0.29100  0.84300  0.50000  1.0000
  As  As20      1.0  0.51300  0.88600  0.50000  1.0000
  As  As21      1.0  0.73700  0.93100  0.50000  1.0000
  Nb  Nb1       1.0  0.87400  0.00428  0.00000  1.0000
  Nb  Nb2       1.0  0.13000  0.12600  0.00000  1.0000
  Nb  Nb3       1.0  0.11700  0.31800  0.00000  1.0000
  Nb  Nb4       1.0  0.32600  0.35500  0.00000  1.0000
  Nb  Nb5       1.0  0.07240  0.49500  0.00000  1.0000
  Nb  Nb6       1.0  0.28800  0.53300  0.00000  1.0000
  Nb  Nb7       1.0  0.50500  0.57700  0.00000  1.0000
  Nb  Nb8       1.0  0.02930  0.67400  0.00000  1.0000
  Nb  Nb9       1.0  0.24600  0.71200  0.00000  1.0000
  Nb  Nb10      1.0  0.46700  0.75400  0.00000  1.0000
  Nb  Nb11      1.0  0.68200  0.79900  0.00000  1.0000
  Nb  Nb12      1.0  0.99600  0.87000  0.00000  1.0000
  Nb  Nb13      1.0  0.20100  0.88300  0.00000  1.0000
  Nb  Nb14      1.0  0.42300  0.92800  0.00000  1.0000
  Nb  Nb15      1.0  0.64500  0.97100  0.00000  1.0000
  Nb  Nb16      1.0  0.35600  0.02980  0.50000  1.0000
  Nb  Nb17      1.0  0.57800  0.07280  0.50000  1.0000
  Nb  Nb18      1.0  0.79800  0.11200  0.50000  1.0000
  Nb  Nb19      1.0  0.31400  0.20200  0.50000  1.0000
  Nb  Nb20      1.0  0.53400  0.24600  0.50000  1.0000
  Nb  Nb21      1.0  0.75400  0.28800  0.50000  1.0000
  Nb  Nb22      1.0  0.97000  0.32600  0.50000  1.0000
  Nb  Nb23      1.0  0.49500  0.42200  0.50000  1.0000
  Nb  Nb24      1.0  0.71200  0.46600  0.50000  1.0000
  Nb  Nb25      1.0  0.92700  0.50500  0.50000  1.0000
  Nb  Nb26      1.0  0.67400  0.64400  0.50000  1.0000
  Nb  Nb27      1.0  0.88800  0.68600  0.50000  1.0000
  Pd  Pd1       1.0  0.00519  0.15500  0.50000  1.0000
  Pd  Pd2       1.0  0.84500  0.85000  0.50000  1.0000
  Pd  Pd3       1.0  0.15000  0.99500  0.50000  1.0000
