data_image0
_chemical_formula_structural       O18P6Y2
_chemical_formula_sum              "O18 P6 Y2"
_cell_length_a       7.63004
_cell_length_b       7.63004
_cell_length_c       9.55803
_cell_angle_alpha    53.4498
_cell_angle_beta     126.55
_cell_angle_gamma    127.046

_space_group_name_H-M_alt    "P 1"
_space_group_IT_number       1

loop_
  _space_group_symop_operation_xyz
  'x, y, z'

loop_
  _atom_site_type_symbol
  _atom_site_label
  _atom_site_symmetry_multiplicity
  _atom_site_fract_x
  _atom_site_fract_y
  _atom_site_fract_z
  _atom_site_occupancy
  O   O1        1.0  0.30600  0.86800  0.35200  1.0000
  O   O2        1.0  0.13200  0.69400  0.85200  1.0000
  O   O3        1.0  0.17900  0.17800  0.41800  1.0000
  O   O4        1.0  0.82200  0.82100  0.91800  1.0000
  O   O5        1.0  0.98800  0.06890  0.62000  1.0000
  O   O6        1.0  0.93100  0.01150  0.12000  1.0000
  O   O7        1.0  0.37800  0.51900  0.65300  1.0000
  O   O8        1.0  0.48100  0.62200  0.15300  1.0000
  O   O9        1.0  0.64700  0.23700  0.48200  1.0000
  O   O10       1.0  0.76300  0.35300  0.98200  1.0000
  O   O11       1.0  0.69700  0.53400  0.56400  1.0000
  O   O12       1.0  0.46600  0.30300  0.06360  1.0000
  O   O13       1.0  0.73900  0.07600  0.29700  1.0000
  O   O14       1.0  0.92400  0.26100  0.79700  1.0000
  O   O15       1.0  0.04030  0.46100  0.34700  1.0000
  O   O16       1.0  0.53900  0.96000  0.84700  1.0000
  O   O17       1.0  0.02410  0.60500  0.51800  1.0000
  O   O18       1.0  0.39500  0.97600  0.01830  1.0000
  P   P1        1.0  0.20500  0.62000  0.47300  1.0000
  P   P2        1.0  0.38000  0.79500  0.97300  1.0000
  P   P3        1.0  0.00154  0.18900  0.43200  1.0000
  P   P4        1.0  0.81100  0.99800  0.93200  1.0000
  P   P5        1.0  0.80300  0.40600  0.58100  1.0000
  P   P6        1.0  0.59400  0.19700  0.08110  1.0000
  Y   Y1        1.0  0.77400  0.69000  0.74000  1.0000
  Y   Y2        1.0  0.31000  0.22600  0.24000  1.0000
