data_image0
_chemical_formula_structural       Ba2O32Ta15
_chemical_formula_sum              "Ba2 O32 Ta15"
_cell_length_a       7.78391
_cell_length_b       7.78391
_cell_length_c       12.6548
_cell_angle_alpha    90
_cell_angle_beta     107.912
_cell_angle_gamma    60

_space_group_name_H-M_alt    "P 1"
_space_group_IT_number       1

loop_
  _space_group_symop_operation_xyz
  'x, y, z'

loop_
  _atom_site_type_symbol
  _atom_site_label
  _atom_site_symmetry_multiplicity
  _atom_site_fract_x
  _atom_site_fract_y
  _atom_site_fract_z
  _atom_site_occupancy
  Ba  Ba1       1.0  0.72200  0.63900  0.08250  1.0000
  Ba  Ba2       1.0  0.27800  0.36100  0.91700  1.0000
  O   O1        1.0  0.04290  0.76800  0.09500  1.0000
  O   O2        1.0  0.28400  0.94800  0.09500  1.0000
  O   O3        1.0  0.86300  0.18900  0.09500  1.0000
  O   O4        1.0  0.17700  0.35200  0.11700  1.0000
  O   O5        1.0  0.46900  0.47100  0.11700  1.0000
  O   O6        1.0  0.58800  0.05990  0.11700  1.0000
  O   O7        1.0  0.52500  0.23800  0.28700  1.0000
  O   O8        1.0  0.09770  0.53600  0.29300  1.0000
  O   O9        1.0  0.65900  0.80500  0.29300  1.0000
  O   O10       1.0  0.82900  0.36600  0.29300  1.0000
  O   O11       1.0  0.26600  0.07270  0.31100  1.0000
  O   O12       1.0  0.38300  0.66100  0.31100  1.0000
  O   O13       1.0  0.97100  0.95600  0.31100  1.0000
  O   O14       1.0  0.42800  0.23300  0.49800  1.0000
  O   O15       1.0  0.73100  0.33900  0.49800  1.0000
  O   O16       1.0  0.83800  0.92900  0.49800  1.0000
  O   O17       1.0  0.16200  0.07060  0.50200  1.0000
  O   O18       1.0  0.26900  0.66100  0.50200  1.0000
  O   O19       1.0  0.57200  0.76700  0.50200  1.0000
  O   O20       1.0  0.02850  0.04420  0.68900  1.0000
  O   O21       1.0  0.61700  0.33900  0.68900  1.0000
  O   O22       1.0  0.73400  0.92700  0.68900  1.0000
  O   O23       1.0  0.17100  0.63400  0.70700  1.0000
  O   O24       1.0  0.34100  0.19500  0.70700  1.0000
  O   O25       1.0  0.90200  0.46400  0.70700  1.0000
  O   O26       1.0  0.47500  0.76200  0.71300  1.0000
  O   O27       1.0  0.41200  0.94000  0.88300  1.0000
  O   O28       1.0  0.53100  0.52900  0.88300  1.0000
  O   O29       1.0  0.82300  0.64800  0.88300  1.0000
  O   O30       1.0  0.13700  0.81100  0.90500  1.0000
  O   O31       1.0  0.71600  0.05210  0.90500  1.0000
  O   O32       1.0  0.95700  0.23200  0.90500  1.0000
  Ta  Ta1       1.0  0.00000  0.00000  0.00000  1.0000
  Ta  Ta2       1.0  0.27400  0.53000  0.20100  1.0000
  Ta  Ta3       1.0  0.39600  0.07390  0.20100  1.0000
  Ta  Ta4       1.0  0.73100  0.19600  0.20100  1.0000
  Ta  Ta5       1.0  0.12600  0.31500  0.40200  1.0000
  Ta  Ta6       1.0  0.71700  0.55900  0.40200  1.0000
  Ta  Ta7       1.0  0.96100  0.72400  0.40200  1.0000
  Ta  Ta8       1.0  0.27700  0.86100  0.41600  1.0000
  Ta  Ta9       1.0  0.72300  0.13900  0.58400  1.0000
  Ta  Ta10      1.0  0.03900  0.27600  0.59800  1.0000
  Ta  Ta11      1.0  0.28300  0.44100  0.59800  1.0000
  Ta  Ta12      1.0  0.87400  0.68500  0.59800  1.0000
  Ta  Ta13      1.0  0.26900  0.80400  0.79900  1.0000
  Ta  Ta14      1.0  0.60400  0.92600  0.79900  1.0000
  Ta  Ta15      1.0  0.72600  0.47000  0.79900  1.0000
