data_image0
_chemical_formula_structural       Au12Eu8O48Tl12
_chemical_formula_sum              "Au12 Eu8 O48 Tl12"
_cell_length_a       11.3558
_cell_length_b       11.3558
_cell_length_c       11.3558
_cell_angle_alpha    109.471
_cell_angle_beta     109.471
_cell_angle_gamma    109.471

_space_group_name_H-M_alt    "P 1"
_space_group_IT_number       1

loop_
  _space_group_symop_operation_xyz
  'x, y, z'

loop_
  _atom_site_type_symbol
  _atom_site_label
  _atom_site_symmetry_multiplicity
  _atom_site_fract_x
  _atom_site_fract_y
  _atom_site_fract_z
  _atom_site_occupancy
  Au  Au1       1.0  0.37500  0.25000  0.12500  1.0000
  Au  Au2       1.0  0.25000  0.87500  0.12500  1.0000
  Au  Au3       1.0  0.87500  0.12500  0.25000  1.0000
  Au  Au4       1.0  0.37500  0.62500  0.25000  1.0000
  Au  Au5       1.0  0.75000  0.62500  0.37500  1.0000
  Au  Au6       1.0  0.12500  0.75000  0.37500  1.0000
  Au  Au7       1.0  0.87500  0.25000  0.62500  1.0000
  Au  Au8       1.0  0.25000  0.37500  0.62500  1.0000
  Au  Au9       1.0  0.62500  0.37500  0.75000  1.0000
  Au  Au10      1.0  0.12500  0.87500  0.75000  1.0000
  Au  Au11      1.0  0.75000  0.12500  0.87500  1.0000
  Au  Au12      1.0  0.62500  0.75000  0.87500  1.0000
  Eu  Eu1       1.0  0.00000  0.00000  0.00000  1.0000
  Eu  Eu2       1.0  0.50000  0.00000  0.00000  1.0000
  Eu  Eu3       1.0  0.00000  0.50000  0.00000  1.0000
  Eu  Eu4       1.0  0.50000  0.50000  0.00000  1.0000
  Eu  Eu5       1.0  0.00000  0.00000  0.50000  1.0000
  Eu  Eu6       1.0  0.50000  0.00000  0.50000  1.0000
  Eu  Eu7       1.0  0.00000  0.50000  0.50000  1.0000
  Eu  Eu8       1.0  0.50000  0.50000  0.50000  1.0000
  O   O1        1.0  0.93700  0.17700  0.05580  1.0000
  O   O2        1.0  0.61900  0.87900  0.05580  1.0000
  O   O3        1.0  0.24000  0.61900  0.06300  1.0000
  O   O4        1.0  0.32300  0.44400  0.06300  1.0000
  O   O5        1.0  0.55600  0.37900  0.11900  1.0000
  O   O6        1.0  0.06300  0.74000  0.11900  1.0000
  O   O7        1.0  0.74000  0.17700  0.12100  1.0000
  O   O8        1.0  0.88100  0.94400  0.12100  1.0000
  O   O9        1.0  0.24000  0.12100  0.17700  1.0000
  O   O10       1.0  0.43700  0.05580  0.17700  1.0000
  O   O11       1.0  0.62100  0.67700  0.24000  1.0000
  O   O12       1.0  0.11900  0.56300  0.24000  1.0000
  O   O13       1.0  0.32300  0.37900  0.26000  1.0000
  O   O14       1.0  0.43700  0.88100  0.26000  1.0000
  O   O15       1.0  0.87900  0.76000  0.32300  1.0000
  O   O16       1.0  0.94400  0.56300  0.32300  1.0000
  O   O17       1.0  0.05580  0.11900  0.37900  1.0000
  O   O18       1.0  0.82300  0.26000  0.37900  1.0000
  O   O19       1.0  0.62100  0.44400  0.38100  1.0000
  O   O20       1.0  0.26000  0.93700  0.38100  1.0000
  O   O21       1.0  0.38100  0.76000  0.43700  1.0000
  O   O22       1.0  0.55600  0.67700  0.43700  1.0000
  O   O23       1.0  0.82300  0.06300  0.44400  1.0000
  O   O24       1.0  0.12100  0.38100  0.44400  1.0000
  O   O25       1.0  0.87900  0.61900  0.55600  1.0000
  O   O26       1.0  0.17700  0.93700  0.55600  1.0000
  O   O27       1.0  0.61900  0.24000  0.56300  1.0000
  O   O28       1.0  0.44400  0.32300  0.56300  1.0000
  O   O29       1.0  0.74000  0.06300  0.61900  1.0000
  O   O30       1.0  0.37900  0.55600  0.61900  1.0000
  O   O31       1.0  0.17700  0.74000  0.62100  1.0000
  O   O32       1.0  0.94400  0.88100  0.62100  1.0000
  O   O33       1.0  0.05580  0.43700  0.67700  1.0000
  O   O34       1.0  0.12100  0.24000  0.67700  1.0000
  O   O35       1.0  0.56300  0.11900  0.74000  1.0000
  O   O36       1.0  0.67700  0.62100  0.74000  1.0000
  O   O37       1.0  0.37900  0.32300  0.76000  1.0000
  O   O38       1.0  0.88100  0.43700  0.76000  1.0000
  O   O39       1.0  0.56300  0.94400  0.82300  1.0000
  O   O40       1.0  0.76000  0.87900  0.82300  1.0000
  O   O41       1.0  0.11900  0.05580  0.87900  1.0000
  O   O42       1.0  0.26000  0.82300  0.87900  1.0000
  O   O43       1.0  0.93700  0.26000  0.88100  1.0000
  O   O44       1.0  0.44400  0.62100  0.88100  1.0000
  O   O45       1.0  0.67700  0.55600  0.93700  1.0000
  O   O46       1.0  0.76000  0.38100  0.93700  1.0000
  O   O47       1.0  0.06300  0.82300  0.94400  1.0000
  O   O48       1.0  0.38100  0.12100  0.94400  1.0000
  Tl  Tl1       1.0  0.87500  0.75000  0.12500  1.0000
  Tl  Tl2       1.0  0.75000  0.37500  0.12500  1.0000
  Tl  Tl3       1.0  0.12500  0.37500  0.25000  1.0000
  Tl  Tl4       1.0  0.62500  0.87500  0.25000  1.0000
  Tl  Tl5       1.0  0.25000  0.12500  0.37500  1.0000
  Tl  Tl6       1.0  0.62500  0.25000  0.37500  1.0000
  Tl  Tl7       1.0  0.37500  0.75000  0.62500  1.0000
  Tl  Tl8       1.0  0.75000  0.87500  0.62500  1.0000
  Tl  Tl9       1.0  0.37500  0.12500  0.75000  1.0000
  Tl  Tl10      1.0  0.87500  0.62500  0.75000  1.0000
  Tl  Tl11      1.0  0.25000  0.62500  0.87500  1.0000
  Tl  Tl12      1.0  0.12500  0.25000  0.87500  1.0000
