data_image0
_chemical_formula_structural       B4Ga32Ir16
_chemical_formula_sum              "B4 Ga32 Ir16"
_cell_length_a       12.2556
_cell_length_b       8.62064
_cell_length_c       8.62064
_cell_angle_alpha    90
_cell_angle_beta     110.591
_cell_angle_gamma    110.591

_space_group_name_H-M_alt    "P 1"
_space_group_IT_number       1

loop_
  _space_group_symop_operation_xyz
  'x, y, z'

loop_
  _atom_site_type_symbol
  _atom_site_label
  _atom_site_symmetry_multiplicity
  _atom_site_fract_x
  _atom_site_fract_y
  _atom_site_fract_z
  _atom_site_occupancy
  B   B1        1.0  0.75000  0.87500  0.12500  1.0000
  B   B2        1.0  0.25000  0.62500  0.37500  1.0000
  B   B3        1.0  0.75000  0.37500  0.62500  1.0000
  B   B4        1.0  0.25000  0.12500  0.87500  1.0000
  Ga  Ga1       1.0  0.38200  0.47500  0.00588  1.0000
  Ga  Ga2       1.0  0.11800  0.62400  0.02490  1.0000
  Ga  Ga3       1.0  0.11800  0.12400  0.09300  1.0000
  Ga  Ga4       1.0  0.61800  0.09300  0.12400  1.0000
  Ga  Ga5       1.0  0.87600  0.65200  0.12700  1.0000
  Ga  Ga6       1.0  0.37600  0.74900  0.15200  1.0000
  Ga  Ga7       1.0  0.37600  0.24900  0.22400  1.0000
  Ga  Ga8       1.0  0.87600  0.22400  0.24900  1.0000
  Ga  Ga9       1.0  0.12400  0.84800  0.25100  1.0000
  Ga  Ga10      1.0  0.62400  0.37300  0.27600  1.0000
  Ga  Ga11      1.0  0.62400  0.87300  0.34800  1.0000
  Ga  Ga12      1.0  0.12400  0.27600  0.37300  1.0000
  Ga  Ga13      1.0  0.38200  0.97500  0.37600  1.0000
  Ga  Ga14      1.0  0.88200  0.50600  0.40700  1.0000
  Ga  Ga15      1.0  0.88200  0.00588  0.47500  1.0000
  Ga  Ga16      1.0  0.61800  0.59300  0.49400  1.0000
  Ga  Ga17      1.0  0.38200  0.40700  0.50600  1.0000
  Ga  Ga18      1.0  0.11800  0.99400  0.52500  1.0000
  Ga  Ga19      1.0  0.11800  0.49400  0.59300  1.0000
  Ga  Ga20      1.0  0.61800  0.02490  0.62400  1.0000
  Ga  Ga21      1.0  0.87600  0.72400  0.62700  1.0000
  Ga  Ga22      1.0  0.37600  0.12700  0.65200  1.0000
  Ga  Ga23      1.0  0.37600  0.62700  0.72400  1.0000
  Ga  Ga24      1.0  0.87600  0.15200  0.74900  1.0000
  Ga  Ga25      1.0  0.12400  0.77600  0.75100  1.0000
  Ga  Ga26      1.0  0.62400  0.75100  0.77600  1.0000
  Ga  Ga27      1.0  0.62400  0.25100  0.84800  1.0000
  Ga  Ga28      1.0  0.12400  0.34800  0.87300  1.0000
  Ga  Ga29      1.0  0.38200  0.90700  0.87600  1.0000
  Ga  Ga30      1.0  0.88200  0.87600  0.90700  1.0000
  Ga  Ga31      1.0  0.88200  0.37600  0.97500  1.0000
  Ga  Ga32      1.0  0.61800  0.52500  0.99400  1.0000
  Ir  Ir1       1.0  0.54600  0.77300  0.02300  1.0000
  Ir  Ir2       1.0  0.25000  0.94900  0.05080  1.0000
  Ir  Ir3       1.0  0.25000  0.44900  0.19900  1.0000
  Ir  Ir4       1.0  0.95400  0.97700  0.22700  1.0000
  Ir  Ir5       1.0  0.04610  0.52300  0.27300  1.0000
  Ir  Ir6       1.0  0.75000  0.69900  0.30100  1.0000
  Ir  Ir7       1.0  0.75000  0.19900  0.44900  1.0000
  Ir  Ir8       1.0  0.45400  0.72700  0.47700  1.0000
  Ir  Ir9       1.0  0.54600  0.27300  0.52300  1.0000
  Ir  Ir10      1.0  0.25000  0.80100  0.55100  1.0000
  Ir  Ir11      1.0  0.25000  0.30100  0.69900  1.0000
  Ir  Ir12      1.0  0.95400  0.47700  0.72700  1.0000
  Ir  Ir13      1.0  0.04610  0.02300  0.77300  1.0000
  Ir  Ir14      1.0  0.75000  0.55100  0.80100  1.0000
  Ir  Ir15      1.0  0.75000  0.05080  0.94900  1.0000
  Ir  Ir16      1.0  0.45400  0.22700  0.97700  1.0000
