data_image0
_chemical_formula_structural       F12O8Os4
_chemical_formula_sum              "F12 O8 Os4"
_cell_length_a       5.16667
_cell_length_b       4.80724
_cell_length_c       11.6185
_cell_angle_alpha    90
_cell_angle_beta     98.7332
_cell_angle_gamma    90

_space_group_name_H-M_alt    "P 1"
_space_group_IT_number       1

loop_
  _space_group_symop_operation_xyz
  'x, y, z'

loop_
  _atom_site_type_symbol
  _atom_site_label
  _atom_site_symmetry_multiplicity
  _atom_site_fract_x
  _atom_site_fract_y
  _atom_site_fract_z
  _atom_site_occupancy
  F   F1        1.0  0.94200  0.69400  0.09920  1.0000
  F   F2        1.0  0.85100  0.15100  0.18300  1.0000
  F   F3        1.0  0.74000  0.64300  0.29400  1.0000
  F   F4        1.0  0.64900  0.15500  0.38700  1.0000
  F   F5        1.0  0.12800  0.35600  0.40800  1.0000
  F   F6        1.0  0.03320  0.82300  0.49500  1.0000
  F   F7        1.0  0.94200  0.30600  0.59900  1.0000
  F   F8        1.0  0.85100  0.84900  0.68300  1.0000
  F   F9        1.0  0.74000  0.35700  0.79400  1.0000
  F   F10       1.0  0.64900  0.84500  0.88700  1.0000
  F   F11       1.0  0.12800  0.64400  0.90800  1.0000
  F   F12       1.0  0.03320  0.17700  0.99500  1.0000
  O   O1        1.0  0.55800  0.37400  0.00283  1.0000
  O   O2        1.0  0.40800  0.87600  0.09010  1.0000
  O   O3        1.0  0.33600  0.34700  0.20100  1.0000
  O   O4        1.0  0.25100  0.85700  0.29900  1.0000
  O   O5        1.0  0.55800  0.62600  0.50300  1.0000
  O   O6        1.0  0.40800  0.12400  0.59000  1.0000
  O   O7        1.0  0.33600  0.65300  0.70100  1.0000
  O   O8        1.0  0.25100  0.14300  0.79900  1.0000
  Os  Os1       1.0  0.19500  0.02980  0.17000  1.0000
  Os  Os2       1.0  0.80700  0.49000  0.44500  1.0000
  Os  Os3       1.0  0.19500  0.97000  0.67000  1.0000
  Os  Os4       1.0  0.80700  0.51000  0.94500  1.0000
