data_image0
_chemical_formula_structural       Fe4Mo8O32Tl4
_chemical_formula_sum              "Fe4 Mo8 O32 Tl4"
_cell_length_a       14.6643
_cell_length_b       5.684
_cell_length_c       8.69114
_cell_angle_alpha    90
_cell_angle_beta     90
_cell_angle_gamma    90

_space_group_name_H-M_alt    "P 1"
_space_group_IT_number       1

loop_
  _space_group_symop_operation_xyz
  'x, y, z'

loop_
  _atom_site_type_symbol
  _atom_site_label
  _atom_site_symmetry_multiplicity
  _atom_site_fract_x
  _atom_site_fract_y
  _atom_site_fract_z
  _atom_site_occupancy
  Fe  Fe1       1.0  0.11500  0.25000  0.19200  1.0000
  Fe  Fe2       1.0  0.61500  0.25000  0.30800  1.0000
  Fe  Fe3       1.0  0.38500  0.75000  0.69200  1.0000
  Fe  Fe4       1.0  0.88500  0.75000  0.80800  1.0000
  Mo  Mo1       1.0  0.78200  0.25000  0.00177  1.0000
  Mo  Mo2       1.0  0.96600  0.75000  0.20800  1.0000
  Mo  Mo3       1.0  0.46600  0.75000  0.29200  1.0000
  Mo  Mo4       1.0  0.28200  0.25000  0.49800  1.0000
  Mo  Mo5       1.0  0.71800  0.75000  0.50200  1.0000
  Mo  Mo6       1.0  0.53400  0.25000  0.70800  1.0000
  Mo  Mo7       1.0  0.03370  0.25000  0.79200  1.0000
  Mo  Mo8       1.0  0.21800  0.75000  0.99800  1.0000
  O   O1        1.0  0.95100  0.75000  0.00535  1.0000
  O   O2        1.0  0.67600  0.25000  0.10800  1.0000
  O   O3        1.0  0.20300  0.01320  0.11100  1.0000
  O   O4        1.0  0.20300  0.48700  0.11100  1.0000
  O   O5        1.0  0.86900  0.25000  0.13800  1.0000
  O   O6        1.0  0.36100  0.75000  0.19600  1.0000
  O   O7        1.0  0.53000  0.00235  0.22600  1.0000
  O   O8        1.0  0.53000  0.49800  0.22600  1.0000
  O   O9        1.0  0.03050  0.00235  0.27400  1.0000
  O   O10       1.0  0.03050  0.49800  0.27400  1.0000
  O   O11       1.0  0.86100  0.75000  0.30400  1.0000
  O   O12       1.0  0.36900  0.25000  0.36200  1.0000
  O   O13       1.0  0.70300  0.01320  0.38900  1.0000
  O   O14       1.0  0.70300  0.48700  0.38900  1.0000
  O   O15       1.0  0.17600  0.25000  0.39200  1.0000
  O   O16       1.0  0.45100  0.75000  0.49500  1.0000
  O   O17       1.0  0.54900  0.25000  0.50500  1.0000
  O   O18       1.0  0.82400  0.75000  0.60800  1.0000
  O   O19       1.0  0.29700  0.51300  0.61100  1.0000
  O   O20       1.0  0.29700  0.98700  0.61100  1.0000
  O   O21       1.0  0.63100  0.75000  0.63800  1.0000
  O   O22       1.0  0.13900  0.25000  0.69600  1.0000
  O   O23       1.0  0.97000  0.50200  0.72600  1.0000
  O   O24       1.0  0.97000  0.99800  0.72600  1.0000
  O   O25       1.0  0.47000  0.50200  0.77400  1.0000
  O   O26       1.0  0.47000  0.99800  0.77400  1.0000
  O   O27       1.0  0.63900  0.25000  0.80400  1.0000
  O   O28       1.0  0.13100  0.75000  0.86200  1.0000
  O   O29       1.0  0.79700  0.51300  0.88900  1.0000
  O   O30       1.0  0.79700  0.98700  0.88900  1.0000
  O   O31       1.0  0.32400  0.75000  0.89200  1.0000
  O   O32       1.0  0.04880  0.25000  0.99500  1.0000
  Tl  Tl1       1.0  0.37900  0.25000  0.05510  1.0000
  Tl  Tl2       1.0  0.87900  0.25000  0.44500  1.0000
  Tl  Tl3       1.0  0.12100  0.75000  0.55500  1.0000
  Tl  Tl4       1.0  0.62100  0.75000  0.94500  1.0000
