data_image0
_chemical_formula_structural       O36P8Sr4V8
_chemical_formula_sum              "O36 P8 Sr4 V8"
_cell_length_a       14.2845
_cell_length_b       6.56604
_cell_length_c       7.44782
_cell_angle_alpha    90
_cell_angle_beta     90
_cell_angle_gamma    90

_space_group_name_H-M_alt    "P 1"
_space_group_IT_number       1

loop_
  _space_group_symop_operation_xyz
  'x, y, z'

loop_
  _atom_site_type_symbol
  _atom_site_label
  _atom_site_symmetry_multiplicity
  _atom_site_fract_x
  _atom_site_fract_y
  _atom_site_fract_z
  _atom_site_occupancy
  O   O1        1.0  0.49200  0.75000  0.00707  1.0000
  O   O2        1.0  0.73700  0.25000  0.03440  1.0000
  O   O3        1.0  0.12500  0.56000  0.11100  1.0000
  O   O4        1.0  0.12500  0.94000  0.11100  1.0000
  O   O5        1.0  0.94200  0.75000  0.11900  1.0000
  O   O6        1.0  0.37000  0.06370  0.13500  1.0000
  O   O7        1.0  0.37000  0.43600  0.13500  1.0000
  O   O8        1.0  0.98800  0.25000  0.17600  1.0000
  O   O9        1.0  0.75000  0.75000  0.21100  1.0000
  O   O10       1.0  0.25000  0.75000  0.28900  1.0000
  O   O11       1.0  0.48800  0.25000  0.32400  1.0000
  O   O12       1.0  0.87000  0.06370  0.36500  1.0000
  O   O13       1.0  0.87000  0.43600  0.36500  1.0000
  O   O14       1.0  0.44200  0.75000  0.38100  1.0000
  O   O15       1.0  0.62500  0.56000  0.38900  1.0000
  O   O16       1.0  0.62500  0.94000  0.38900  1.0000
  O   O17       1.0  0.23700  0.25000  0.46600  1.0000
  O   O18       1.0  0.99200  0.75000  0.49300  1.0000
  O   O19       1.0  0.00844  0.25000  0.50700  1.0000
  O   O20       1.0  0.76300  0.75000  0.53400  1.0000
  O   O21       1.0  0.37500  0.06010  0.61100  1.0000
  O   O22       1.0  0.37500  0.44000  0.61100  1.0000
  O   O23       1.0  0.55800  0.25000  0.61900  1.0000
  O   O24       1.0  0.13000  0.56400  0.63500  1.0000
  O   O25       1.0  0.13000  0.93600  0.63500  1.0000
  O   O26       1.0  0.51200  0.75000  0.67600  1.0000
  O   O27       1.0  0.75000  0.25000  0.71100  1.0000
  O   O28       1.0  0.25000  0.25000  0.78900  1.0000
  O   O29       1.0  0.01170  0.75000  0.82400  1.0000
  O   O30       1.0  0.63000  0.56400  0.86500  1.0000
  O   O31       1.0  0.63000  0.93600  0.86500  1.0000
  O   O32       1.0  0.05770  0.25000  0.88100  1.0000
  O   O33       1.0  0.87500  0.06010  0.88900  1.0000
  O   O34       1.0  0.87500  0.44000  0.88900  1.0000
  O   O35       1.0  0.26300  0.75000  0.96600  1.0000
  O   O36       1.0  0.50800  0.25000  0.99300  1.0000
  P   P1        1.0  0.18900  0.75000  0.11700  1.0000
  P   P2        1.0  0.43500  0.25000  0.14000  1.0000
  P   P3        1.0  0.93500  0.25000  0.36000  1.0000
  P   P4        1.0  0.68900  0.75000  0.38300  1.0000
  P   P5        1.0  0.31100  0.25000  0.61700  1.0000
  P   P6        1.0  0.06450  0.75000  0.64000  1.0000
  P   P7        1.0  0.56500  0.75000  0.86000  1.0000
  P   P8        1.0  0.81100  0.25000  0.88300  1.0000
  Sr  Sr1       1.0  0.21700  0.25000  0.12400  1.0000
  Sr  Sr2       1.0  0.71700  0.25000  0.37600  1.0000
  Sr  Sr3       1.0  0.28300  0.75000  0.62400  1.0000
  Sr  Sr4       1.0  0.78300  0.75000  0.87600  1.0000
  V   V1        1.0  0.00000  0.00000  0.00000  1.0000
  V   V2        1.0  0.00000  0.50000  0.00000  1.0000
  V   V3        1.0  0.38100  0.75000  0.15300  1.0000
  V   V4        1.0  0.88100  0.75000  0.34700  1.0000
  V   V5        1.0  0.50000  0.00000  0.50000  1.0000
  V   V6        1.0  0.50000  0.50000  0.50000  1.0000
  V   V7        1.0  0.11900  0.25000  0.65300  1.0000
  V   V8        1.0  0.61900  0.25000  0.84700  1.0000
