data_image0
_chemical_formula_structural       Mo20O32Sr4
_chemical_formula_sum              "Mo20 O32 Sr4"
_cell_length_a       7.56944
_cell_length_b       9.18702
_cell_length_c       9.9905
_cell_angle_alpha    90
_cell_angle_beta     109.331
_cell_angle_gamma    90

_space_group_name_H-M_alt    "P 1"
_space_group_IT_number       1

loop_
  _space_group_symop_operation_xyz
  'x, y, z'

loop_
  _atom_site_type_symbol
  _atom_site_label
  _atom_site_symmetry_multiplicity
  _atom_site_fract_x
  _atom_site_fract_y
  _atom_site_fract_z
  _atom_site_occupancy
  Mo  Mo1       1.0  0.39000  0.38600  0.01660  1.0000
  Mo  Mo2       1.0  0.99800  0.62200  0.08630  1.0000
  Mo  Mo3       1.0  0.82300  0.37300  0.11300  1.0000
  Mo  Mo4       1.0  0.38000  0.61600  0.18000  1.0000
  Mo  Mo5       1.0  0.18700  0.36900  0.20000  1.0000
  Mo  Mo6       1.0  0.81300  0.86900  0.30000  1.0000
  Mo  Mo7       1.0  0.62000  0.11600  0.32000  1.0000
  Mo  Mo8       1.0  0.17700  0.87300  0.38700  1.0000
  Mo  Mo9       1.0  0.00217  0.12200  0.41400  1.0000
  Mo  Mo10      1.0  0.61000  0.88600  0.48300  1.0000
  Mo  Mo11      1.0  0.39000  0.11400  0.51700  1.0000
  Mo  Mo12      1.0  0.99800  0.87800  0.58600  1.0000
  Mo  Mo13      1.0  0.82300  0.12700  0.61300  1.0000
  Mo  Mo14      1.0  0.38000  0.88400  0.68000  1.0000
  Mo  Mo15      1.0  0.18700  0.13100  0.70000  1.0000
  Mo  Mo16      1.0  0.81300  0.63100  0.80000  1.0000
  Mo  Mo17      1.0  0.62000  0.38400  0.82000  1.0000
  Mo  Mo18      1.0  0.17700  0.62700  0.88700  1.0000
  Mo  Mo19      1.0  0.00217  0.37800  0.91400  1.0000
  Mo  Mo20      1.0  0.61000  0.61400  0.98300  1.0000
  O   O1        1.0  0.40100  0.74700  0.01920  1.0000
  O   O2        1.0  0.99500  0.22300  0.06400  1.0000
  O   O3        1.0  0.79800  0.75200  0.11800  1.0000
  O   O4        1.0  0.60500  0.99400  0.15900  1.0000
  O   O5        1.0  0.61600  0.49800  0.17000  1.0000
  O   O6        1.0  0.39700  0.24000  0.17300  1.0000
  O   O7        1.0  0.20200  0.75400  0.21600  1.0000
  O   O8        1.0  0.99200  0.00101  0.23500  1.0000
  O   O9        1.0  0.00835  0.50100  0.26500  1.0000
  O   O10       1.0  0.79800  0.25400  0.28400  1.0000
  O   O11       1.0  0.60300  0.74000  0.32700  1.0000
  O   O12       1.0  0.38400  0.99800  0.33000  1.0000
  O   O13       1.0  0.39500  0.49400  0.34100  1.0000
  O   O14       1.0  0.20200  0.25200  0.38200  1.0000
  O   O15       1.0  0.00475  0.72300  0.43600  1.0000
  O   O16       1.0  0.59900  0.24700  0.48100  1.0000
  O   O17       1.0  0.40100  0.75300  0.51900  1.0000
  O   O18       1.0  0.99500  0.27700  0.56400  1.0000
  O   O19       1.0  0.79800  0.74800  0.61800  1.0000
  O   O20       1.0  0.60500  0.50600  0.65900  1.0000
  O   O21       1.0  0.61600  0.00150  0.67000  1.0000
  O   O22       1.0  0.39700  0.26000  0.67300  1.0000
  O   O23       1.0  0.20200  0.74600  0.71600  1.0000
  O   O24       1.0  0.99200  0.49900  0.73500  1.0000
  O   O25       1.0  0.00835  0.99900  0.76500  1.0000
  O   O26       1.0  0.79800  0.24600  0.78400  1.0000
  O   O27       1.0  0.60300  0.76000  0.82700  1.0000
  O   O28       1.0  0.38400  0.50200  0.83000  1.0000
  O   O29       1.0  0.39500  0.00591  0.84100  1.0000
  O   O30       1.0  0.20200  0.24800  0.88200  1.0000
  O   O31       1.0  0.00475  0.77700  0.93600  1.0000
  O   O32       1.0  0.59900  0.25300  0.98100  1.0000
  Sr  Sr1       1.0  0.25400  0.99600  0.03860  1.0000
  Sr  Sr2       1.0  0.74600  0.49600  0.46100  1.0000
  Sr  Sr3       1.0  0.25400  0.50400  0.53900  1.0000
  Sr  Sr4       1.0  0.74600  0.00398  0.96100  1.0000
