data_image0
_chemical_formula_structural       B24Cl24Cs4
_chemical_formula_sum              "B24 Cl24 Cs4"
_cell_length_a       9.63778
_cell_length_b       9.63778
_cell_length_c       16.2245
_cell_angle_alpha    107.278
_cell_angle_beta     72.7217
_cell_angle_gamma    120

_space_group_name_H-M_alt    "P 1"
_space_group_IT_number       1

loop_
  _space_group_symop_operation_xyz
  'x, y, z'

loop_
  _atom_site_type_symbol
  _atom_site_label
  _atom_site_symmetry_multiplicity
  _atom_site_fract_x
  _atom_site_fract_y
  _atom_site_fract_z
  _atom_site_occupancy
  B   B1        1.0  0.02470  0.19400  0.02150  1.0000
  B   B2        1.0  0.80600  0.85300  0.02150  1.0000
  B   B3        1.0  0.14700  0.97500  0.02150  1.0000
  B   B4        1.0  0.87400  0.04930  0.08890  1.0000
  B   B5        1.0  0.08660  0.12600  0.08890  1.0000
  B   B6        1.0  0.95100  0.91300  0.08890  1.0000
  B   B7        1.0  0.44000  0.35200  0.41100  1.0000
  B   B8        1.0  0.64800  0.49900  0.41100  1.0000
  B   B9        1.0  0.50100  0.56000  0.41100  1.0000
  B   B10       1.0  0.55300  0.34700  0.47900  1.0000
  B   B11       1.0  0.31500  0.44700  0.47900  1.0000
  B   B12       1.0  0.65300  0.68500  0.47900  1.0000
  B   B13       1.0  0.34700  0.31500  0.52100  1.0000
  B   B14       1.0  0.68500  0.55300  0.52100  1.0000
  B   B15       1.0  0.44700  0.65300  0.52100  1.0000
  B   B16       1.0  0.49900  0.44000  0.58900  1.0000
  B   B17       1.0  0.35200  0.50100  0.58900  1.0000
  B   B18       1.0  0.56000  0.64800  0.58900  1.0000
  B   B19       1.0  0.04930  0.08660  0.91100  1.0000
  B   B20       1.0  0.91300  0.87400  0.91100  1.0000
  B   B21       1.0  0.12600  0.95100  0.91100  1.0000
  B   B22       1.0  0.85300  0.02470  0.97800  1.0000
  B   B23       1.0  0.19400  0.14700  0.97800  1.0000
  B   B24       1.0  0.97500  0.80600  0.97800  1.0000
  Cl  Cl1       1.0  0.05080  0.39900  0.04660  1.0000
  Cl  Cl2       1.0  0.60100  0.69800  0.04660  1.0000
  Cl  Cl3       1.0  0.30200  0.94900  0.04660  1.0000
  Cl  Cl4       1.0  0.74000  0.09950  0.18200  1.0000
  Cl  Cl5       1.0  0.17800  0.26000  0.18200  1.0000
  Cl  Cl6       1.0  0.90000  0.82200  0.18200  1.0000
  Cl  Cl7       1.0  0.37500  0.19500  0.31800  1.0000
  Cl  Cl8       1.0  0.80500  0.49800  0.31800  1.0000
  Cl  Cl9       1.0  0.50200  0.62500  0.31800  1.0000
  Cl  Cl10      1.0  0.60900  0.18500  0.45500  1.0000
  Cl  Cl11      1.0  0.12100  0.39100  0.45500  1.0000
  Cl  Cl12      1.0  0.81500  0.87900  0.45500  1.0000
  Cl  Cl13      1.0  0.18500  0.12100  0.54500  1.0000
  Cl  Cl14      1.0  0.87900  0.60900  0.54500  1.0000
  Cl  Cl15      1.0  0.39100  0.81500  0.54500  1.0000
  Cl  Cl16      1.0  0.49800  0.37500  0.68200  1.0000
  Cl  Cl17      1.0  0.19500  0.50200  0.68200  1.0000
  Cl  Cl18      1.0  0.62500  0.80500  0.68200  1.0000
  Cl  Cl19      1.0  0.09950  0.17800  0.81800  1.0000
  Cl  Cl20      1.0  0.82200  0.74000  0.81800  1.0000
  Cl  Cl21      1.0  0.26000  0.90000  0.81800  1.0000
  Cl  Cl22      1.0  0.69800  0.05080  0.95300  1.0000
  Cl  Cl23      1.0  0.39900  0.30200  0.95300  1.0000
  Cl  Cl24      1.0  0.94900  0.60100  0.95300  1.0000
  Cs  Cs1       1.0  0.62800  0.37200  0.11700  1.0000
  Cs  Cs2       1.0  0.21000  0.79000  0.36900  1.0000
  Cs  Cs3       1.0  0.79000  0.21000  0.63100  1.0000
  Cs  Cs4       1.0  0.37200  0.62800  0.88300  1.0000
