data_image0
_chemical_formula_structural       C12Cd4H12Na4O24
_chemical_formula_sum              "C12 Cd4 H12 Na4 O24"
_cell_length_a       6.34813
_cell_length_b       7.16822
_cell_length_c       14.1168
_cell_angle_alpha    90
_cell_angle_beta     90
_cell_angle_gamma    90

_space_group_name_H-M_alt    "P 1"
_space_group_IT_number       1

loop_
  _space_group_symop_operation_xyz
  'x, y, z'

loop_
  _atom_site_type_symbol
  _atom_site_label
  _atom_site_symmetry_multiplicity
  _atom_site_fract_x
  _atom_site_fract_y
  _atom_site_fract_z
  _atom_site_occupancy
  C   C1        1.0  0.86300  0.30000  0.08710  1.0000
  C   C2        1.0  0.63700  0.70000  0.08710  1.0000
  C   C3        1.0  0.50000  0.10300  0.25000  1.0000
  C   C4        1.0  0.00000  0.89700  0.25000  1.0000
  C   C5        1.0  0.13700  0.30000  0.41300  1.0000
  C   C6        1.0  0.36300  0.70000  0.41300  1.0000
  C   C7        1.0  0.63700  0.30000  0.58700  1.0000
  C   C8        1.0  0.86300  0.70000  0.58700  1.0000
  C   C9        1.0  0.00000  0.10300  0.75000  1.0000
  C   C10       1.0  0.50000  0.89700  0.75000  1.0000
  C   C11       1.0  0.36300  0.30000  0.91300  1.0000
  C   C12       1.0  0.13700  0.70000  0.91300  1.0000
  Cd  Cd1       1.0  0.25000  0.00000  0.07200  1.0000
  Cd  Cd2       1.0  0.75000  0.00000  0.42800  1.0000
  Cd  Cd3       1.0  0.25000  0.00000  0.57200  1.0000
  Cd  Cd4       1.0  0.75000  0.00000  0.92800  1.0000
  H   H1        1.0  0.69800  0.33600  0.06950  1.0000
  H   H2        1.0  0.80200  0.66400  0.06950  1.0000
  H   H3        1.0  0.00000  0.05220  0.25000  1.0000
  H   H4        1.0  0.50000  0.94800  0.25000  1.0000
  H   H5        1.0  0.30200  0.33600  0.43100  1.0000
  H   H6        1.0  0.19800  0.66400  0.43100  1.0000
  H   H7        1.0  0.80200  0.33600  0.56900  1.0000
  H   H8        1.0  0.69800  0.66400  0.56900  1.0000
  H   H9        1.0  0.50000  0.05220  0.75000  1.0000
  H   H10       1.0  0.00000  0.94800  0.75000  1.0000
  H   H11       1.0  0.19800  0.33600  0.93100  1.0000
  H   H12       1.0  0.30200  0.66400  0.93100  1.0000
  Na  Na1       1.0  0.25000  0.50000  0.22300  1.0000
  Na  Na2       1.0  0.75000  0.50000  0.27700  1.0000
  Na  Na3       1.0  0.25000  0.50000  0.72300  1.0000
  Na  Na4       1.0  0.75000  0.50000  0.77700  1.0000
  O   O1        1.0  0.94000  0.16000  0.04150  1.0000
  O   O2        1.0  0.56000  0.84000  0.04150  1.0000
  O   O3        1.0  0.95900  0.39200  0.14800  1.0000
  O   O4        1.0  0.54100  0.60800  0.14800  1.0000
  O   O5        1.0  0.39100  0.18700  0.18800  1.0000
  O   O6        1.0  0.10900  0.81300  0.18800  1.0000
  O   O7        1.0  0.60900  0.18700  0.31200  1.0000
  O   O8        1.0  0.89100  0.81300  0.31200  1.0000
  O   O9        1.0  0.04090  0.39200  0.35200  1.0000
  O   O10       1.0  0.45900  0.60800  0.35200  1.0000
  O   O11       1.0  0.06020  0.16000  0.45800  1.0000
  O   O12       1.0  0.44000  0.84000  0.45800  1.0000
  O   O13       1.0  0.56000  0.16000  0.54200  1.0000
  O   O14       1.0  0.94000  0.84000  0.54200  1.0000
  O   O15       1.0  0.54100  0.39200  0.64800  1.0000
  O   O16       1.0  0.95900  0.60800  0.64800  1.0000
  O   O17       1.0  0.10900  0.18700  0.68800  1.0000
  O   O18       1.0  0.39100  0.81300  0.68800  1.0000
  O   O19       1.0  0.89100  0.18700  0.81200  1.0000
  O   O20       1.0  0.60900  0.81300  0.81200  1.0000
  O   O21       1.0  0.45900  0.39200  0.85200  1.0000
  O   O22       1.0  0.04090  0.60800  0.85200  1.0000
  O   O23       1.0  0.44000  0.16000  0.95800  1.0000
  O   O24       1.0  0.06020  0.84000  0.95800  1.0000
