data_image0
_chemical_formula_structural       Ba24Ga8Sb24
_chemical_formula_sum              "Ba24 Ga8 Sb24"
_cell_length_a       14.2759
_cell_length_b       21.4209
_cell_length_c       7.22513
_cell_angle_alpha    90
_cell_angle_beta     90
_cell_angle_gamma    90

_space_group_name_H-M_alt    "P 1"
_space_group_IT_number       1

loop_
  _space_group_symop_operation_xyz
  'x, y, z'

loop_
  _atom_site_type_symbol
  _atom_site_label
  _atom_site_symmetry_multiplicity
  _atom_site_fract_x
  _atom_site_fract_y
  _atom_site_fract_z
  _atom_site_occupancy
  Ba  Ba1       1.0  0.01600  0.25000  0.17700  1.0000
  Ba  Ba2       1.0  0.73800  0.07650  0.19500  1.0000
  Ba  Ba3       1.0  0.73800  0.42400  0.19500  1.0000
  Ba  Ba4       1.0  0.26500  0.75000  0.20000  1.0000
  Ba  Ba5       1.0  0.99100  0.57600  0.23000  1.0000
  Ba  Ba6       1.0  0.99100  0.92400  0.23000  1.0000
  Ba  Ba7       1.0  0.49100  0.57600  0.27000  1.0000
  Ba  Ba8       1.0  0.49100  0.92400  0.27000  1.0000
  Ba  Ba9       1.0  0.76500  0.75000  0.30000  1.0000
  Ba  Ba10      1.0  0.23800  0.07650  0.30500  1.0000
  Ba  Ba11      1.0  0.23800  0.42400  0.30500  1.0000
  Ba  Ba12      1.0  0.51600  0.25000  0.32300  1.0000
  Ba  Ba13      1.0  0.48400  0.75000  0.67700  1.0000
  Ba  Ba14      1.0  0.76200  0.57600  0.69500  1.0000
  Ba  Ba15      1.0  0.76200  0.92400  0.69500  1.0000
  Ba  Ba16      1.0  0.23500  0.25000  0.70000  1.0000
  Ba  Ba17      1.0  0.50900  0.07640  0.73000  1.0000
  Ba  Ba18      1.0  0.50900  0.42400  0.73000  1.0000
  Ba  Ba19      1.0  0.00910  0.07640  0.77000  1.0000
  Ba  Ba20      1.0  0.00910  0.42400  0.77000  1.0000
  Ba  Ba21      1.0  0.73500  0.25000  0.80000  1.0000
  Ba  Ba22      1.0  0.26200  0.57600  0.80500  1.0000
  Ba  Ba23      1.0  0.26200  0.92400  0.80500  1.0000
  Ba  Ba24      1.0  0.98400  0.75000  0.82300  1.0000
  Ga  Ga1       1.0  0.37300  0.16300  0.01500  1.0000
  Ga  Ga2       1.0  0.37300  0.33700  0.01500  1.0000
  Ga  Ga3       1.0  0.87300  0.16300  0.48500  1.0000
  Ga  Ga4       1.0  0.87300  0.33700  0.48500  1.0000
  Ga  Ga5       1.0  0.12700  0.66300  0.51500  1.0000
  Ga  Ga6       1.0  0.12700  0.83700  0.51500  1.0000
  Ga  Ga7       1.0  0.62700  0.66300  0.98500  1.0000
  Ga  Ga8       1.0  0.62700  0.83700  0.98500  1.0000
  Sb  Sb1       1.0  0.51800  0.75000  0.18100  1.0000
  Sb  Sb2       1.0  0.74200  0.59000  0.20000  1.0000
  Sb  Sb3       1.0  0.74200  0.91000  0.20000  1.0000
  Sb  Sb4       1.0  0.26700  0.25000  0.20900  1.0000
  Sb  Sb5       1.0  0.48800  0.08950  0.23200  1.0000
  Sb  Sb6       1.0  0.48800  0.41000  0.23200  1.0000
  Sb  Sb7       1.0  0.98800  0.08950  0.26800  1.0000
  Sb  Sb8       1.0  0.98800  0.41000  0.26800  1.0000
  Sb  Sb9       1.0  0.76700  0.25000  0.29100  1.0000
  Sb  Sb10      1.0  0.24200  0.59000  0.30000  1.0000
  Sb  Sb11      1.0  0.24200  0.91000  0.30000  1.0000
  Sb  Sb12      1.0  0.01850  0.75000  0.31900  1.0000
  Sb  Sb13      1.0  0.98200  0.25000  0.68100  1.0000
  Sb  Sb14      1.0  0.75800  0.08950  0.70000  1.0000
  Sb  Sb15      1.0  0.75800  0.41000  0.70000  1.0000
  Sb  Sb16      1.0  0.23300  0.75000  0.70900  1.0000
  Sb  Sb17      1.0  0.01220  0.59000  0.73200  1.0000
  Sb  Sb18      1.0  0.01220  0.91000  0.73200  1.0000
  Sb  Sb19      1.0  0.51200  0.59000  0.76800  1.0000
  Sb  Sb20      1.0  0.51200  0.91000  0.76800  1.0000
  Sb  Sb21      1.0  0.73300  0.75000  0.79100  1.0000
  Sb  Sb22      1.0  0.25800  0.08950  0.80000  1.0000
  Sb  Sb23      1.0  0.25800  0.41000  0.80000  1.0000
  Sb  Sb24      1.0  0.48200  0.25000  0.81900  1.0000
