data_image0
_chemical_formula_structural       B24Br24Cs4
_chemical_formula_sum              "B24 Br24 Cs4"
_cell_length_a       10.0609
_cell_length_b       10.0609
_cell_length_c       17.039
_cell_angle_alpha    107.171
_cell_angle_beta     72.8286
_cell_angle_gamma    120

_space_group_name_H-M_alt    "P 1"
_space_group_IT_number       1

loop_
  _space_group_symop_operation_xyz
  'x, y, z'

loop_
  _atom_site_type_symbol
  _atom_site_label
  _atom_site_symmetry_multiplicity
  _atom_site_fract_x
  _atom_site_fract_y
  _atom_site_fract_z
  _atom_site_occupancy
  B   B1        1.0  0.02590  0.18600  0.02030  1.0000
  B   B2        1.0  0.81400  0.86000  0.02030  1.0000
  B   B3        1.0  0.14000  0.97400  0.02030  1.0000
  B   B4        1.0  0.88000  0.04840  0.08460  1.0000
  B   B5        1.0  0.08370  0.12000  0.08460  1.0000
  B   B6        1.0  0.95200  0.91600  0.08460  1.0000
  B   B7        1.0  0.44300  0.35700  0.41600  1.0000
  B   B8        1.0  0.64300  0.50200  0.41600  1.0000
  B   B9        1.0  0.49800  0.55700  0.41600  1.0000
  B   B10       1.0  0.55400  0.35600  0.48000  1.0000
  B   B11       1.0  0.32200  0.44600  0.48000  1.0000
  B   B12       1.0  0.64400  0.67800  0.48000  1.0000
  B   B13       1.0  0.35600  0.32200  0.52000  1.0000
  B   B14       1.0  0.67800  0.55400  0.52000  1.0000
  B   B15       1.0  0.44600  0.64400  0.52000  1.0000
  B   B16       1.0  0.50200  0.44300  0.58400  1.0000
  B   B17       1.0  0.35700  0.49800  0.58400  1.0000
  B   B18       1.0  0.55700  0.64300  0.58400  1.0000
  B   B19       1.0  0.04840  0.08370  0.91500  1.0000
  B   B20       1.0  0.91600  0.88000  0.91500  1.0000
  B   B21       1.0  0.12000  0.95200  0.91500  1.0000
  B   B22       1.0  0.86000  0.02590  0.98000  1.0000
  B   B23       1.0  0.18600  0.14000  0.98000  1.0000
  B   B24       1.0  0.97400  0.81400  0.98000  1.0000
  Br  Br1       1.0  0.05540  0.40200  0.04650  1.0000
  Br  Br2       1.0  0.59800  0.70000  0.04650  1.0000
  Br  Br3       1.0  0.30000  0.94500  0.04650  1.0000
  Br  Br4       1.0  0.74200  0.10200  0.18200  1.0000
  Br  Br5       1.0  0.17900  0.25800  0.18200  1.0000
  Br  Br6       1.0  0.89800  0.82100  0.18200  1.0000
  Br  Br7       1.0  0.37700  0.19200  0.31900  1.0000
  Br  Br8       1.0  0.80800  0.50300  0.31900  1.0000
  Br  Br9       1.0  0.49700  0.62300  0.31900  1.0000
  Br  Br10      1.0  0.61600  0.18900  0.45400  1.0000
  Br  Br11      1.0  0.11900  0.38400  0.45400  1.0000
  Br  Br12      1.0  0.81100  0.88100  0.45400  1.0000
  Br  Br13      1.0  0.18900  0.11900  0.54600  1.0000
  Br  Br14      1.0  0.88100  0.61600  0.54600  1.0000
  Br  Br15      1.0  0.38400  0.81100  0.54600  1.0000
  Br  Br16      1.0  0.50300  0.37700  0.68100  1.0000
  Br  Br17      1.0  0.19200  0.49700  0.68100  1.0000
  Br  Br18      1.0  0.62300  0.80800  0.68100  1.0000
  Br  Br19      1.0  0.10200  0.17900  0.81800  1.0000
  Br  Br20      1.0  0.82100  0.74200  0.81800  1.0000
  Br  Br21      1.0  0.25800  0.89800  0.81800  1.0000
  Br  Br22      1.0  0.70000  0.05540  0.95300  1.0000
  Br  Br23      1.0  0.40200  0.30000  0.95300  1.0000
  Br  Br24      1.0  0.94500  0.59800  0.95300  1.0000
  Cs  Cs1       1.0  0.62700  0.37300  0.12000  1.0000
  Cs  Cs2       1.0  0.20900  0.79100  0.37300  1.0000
  Cs  Cs3       1.0  0.79100  0.20900  0.62700  1.0000
  Cs  Cs4       1.0  0.37300  0.62700  0.88000  1.0000
