data_image0
_chemical_formula_structural       B8Ni14O32U2
_chemical_formula_sum              "B8 Ni14 O32 U2"
_cell_length_a       5.85583
_cell_length_b       20.0766
_cell_length_c       4.49015
_cell_angle_alpha    90
_cell_angle_beta     90
_cell_angle_gamma    90

_space_group_name_H-M_alt    "P 1"
_space_group_IT_number       1

loop_
  _space_group_symop_operation_xyz
  'x, y, z'

loop_
  _atom_site_type_symbol
  _atom_site_label
  _atom_site_symmetry_multiplicity
  _atom_site_fract_x
  _atom_site_fract_y
  _atom_site_fract_z
  _atom_site_occupancy
  B   B1        1.0  0.00000  0.19300  0.04170  1.0000
  B   B2        1.0  0.50000  0.91200  0.06980  1.0000
  B   B3        1.0  0.00000  0.41200  0.43000  1.0000
  B   B4        1.0  0.50000  0.69300  0.45800  1.0000
  B   B5        1.0  0.50000  0.30700  0.54200  1.0000
  B   B6        1.0  0.00000  0.58800  0.57000  1.0000
  B   B7        1.0  0.50000  0.08830  0.93000  1.0000
  B   B8        1.0  0.00000  0.80700  0.95800  1.0000
  Ni  Ni1       1.0  0.00000  0.50000  0.00000  1.0000
  Ni  Ni2       1.0  0.50000  0.23700  0.00178  1.0000
  Ni  Ni3       1.0  0.25000  0.63000  0.00343  1.0000
  Ni  Ni4       1.0  0.75000  0.63000  0.00343  1.0000
  Ni  Ni5       1.0  0.25000  0.13000  0.49700  1.0000
  Ni  Ni6       1.0  0.75000  0.13000  0.49700  1.0000
  Ni  Ni7       1.0  0.00000  0.73700  0.49800  1.0000
  Ni  Ni8       1.0  0.50000  0.00000  0.50000  1.0000
  Ni  Ni9       1.0  0.00000  0.26300  0.50200  1.0000
  Ni  Ni10      1.0  0.25000  0.87000  0.50300  1.0000
  Ni  Ni11      1.0  0.75000  0.87000  0.50300  1.0000
  Ni  Ni12      1.0  0.25000  0.37000  0.99700  1.0000
  Ni  Ni13      1.0  0.75000  0.37000  0.99700  1.0000
  Ni  Ni14      1.0  0.50000  0.76300  0.99800  1.0000
  O   O1        1.0  0.20000  0.20600  0.20300  1.0000
  O   O2        1.0  0.80000  0.20600  0.20300  1.0000
  O   O3        1.0  0.50000  0.57000  0.20600  1.0000
  O   O4        1.0  0.29500  0.94900  0.21000  1.0000
  O   O5        1.0  0.70500  0.94900  0.21000  1.0000
  O   O6        1.0  0.50000  0.84700  0.22100  1.0000
  O   O7        1.0  0.50000  0.32500  0.24700  1.0000
  O   O8        1.0  0.50000  0.08620  0.24700  1.0000
  O   O9        1.0  0.00000  0.58600  0.25300  1.0000
  O   O10       1.0  0.00000  0.82500  0.25300  1.0000
  O   O11       1.0  0.00000  0.34700  0.27900  1.0000
  O   O12       1.0  0.20500  0.44900  0.29000  1.0000
  O   O13       1.0  0.79500  0.44900  0.29000  1.0000
  O   O14       1.0  0.00000  0.06980  0.29400  1.0000
  O   O15       1.0  0.30000  0.70600  0.29700  1.0000
  O   O16       1.0  0.70000  0.70600  0.29700  1.0000
  O   O17       1.0  0.30000  0.29400  0.70300  1.0000
  O   O18       1.0  0.70000  0.29400  0.70300  1.0000
  O   O19       1.0  0.00000  0.93000  0.70600  1.0000
  O   O20       1.0  0.20500  0.55100  0.71000  1.0000
  O   O21       1.0  0.79500  0.55100  0.71000  1.0000
  O   O22       1.0  0.00000  0.65300  0.72100  1.0000
  O   O23       1.0  0.00000  0.17500  0.74700  1.0000
  O   O24       1.0  0.00000  0.41400  0.74700  1.0000
  O   O25       1.0  0.50000  0.91400  0.75300  1.0000
  O   O26       1.0  0.50000  0.67500  0.75300  1.0000
  O   O27       1.0  0.50000  0.15300  0.77900  1.0000
  O   O28       1.0  0.29500  0.05140  0.79000  1.0000
  O   O29       1.0  0.70500  0.05140  0.79000  1.0000
  O   O30       1.0  0.50000  0.43000  0.79400  1.0000
  O   O31       1.0  0.20000  0.79400  0.79700  1.0000
  O   O32       1.0  0.80000  0.79400  0.79700  1.0000
  U   U1        1.0  0.00000  0.00000  0.00000  1.0000
  U   U2        1.0  0.50000  0.50000  0.50000  1.0000
