data_image0
_chemical_formula_structural       Bi4Pb2
_chemical_formula_sum              "Bi4 Pb2"
_cell_length_a       8.33593
_cell_length_b       6.75393
_cell_length_c       3.60374
_cell_angle_alpha    90
_cell_angle_beta     90
_cell_angle_gamma    90

_space_group_name_H-M_alt    "P 1"
_space_group_IT_number       1

loop_
  _space_group_symop_operation_xyz
  'x, y, z'

loop_
  _atom_site_type_symbol
  _atom_site_label
  _atom_site_symmetry_multiplicity
  _atom_site_fract_x
  _atom_site_fract_y
  _atom_site_fract_z
  _atom_site_occupancy
  Bi  Bi1       1.0  0.13800  0.35700  0.00000  1.0000
  Bi  Bi2       1.0  0.86200  0.64300  0.00000  1.0000
  Bi  Bi3       1.0  0.63800  0.14300  0.50000  1.0000
  Bi  Bi4       1.0  0.36200  0.85700  0.50000  1.0000
  Pb  Pb1       1.0  0.50000  0.50000  0.00000  1.0000
  Pb  Pb2       1.0  0.00000  0.00000  0.50000  1.0000
