data_image0
_chemical_formula_structural       Cl20La12O16Ti4
_chemical_formula_sum              "Cl20 La12 O16 Ti4"
_cell_length_a       16.8204
_cell_length_b       4.06702
_cell_length_c       14.6826
_cell_angle_alpha    90
_cell_angle_beta     90
_cell_angle_gamma    90

_space_group_name_H-M_alt    "P 1"
_space_group_IT_number       1

loop_
  _space_group_symop_operation_xyz
  'x, y, z'

loop_
  _atom_site_type_symbol
  _atom_site_label
  _atom_site_symmetry_multiplicity
  _atom_site_fract_x
  _atom_site_fract_y
  _atom_site_fract_z
  _atom_site_occupancy
  Cl  Cl1       1.0  0.94600  0.25000  0.05640  1.0000
  Cl  Cl2       1.0  0.48300  0.25000  0.09680  1.0000
  Cl  Cl3       1.0  0.79800  0.75000  0.10000  1.0000
  Cl  Cl4       1.0  0.02150  0.75000  0.21600  1.0000
  Cl  Cl5       1.0  0.68000  0.25000  0.22500  1.0000
  Cl  Cl6       1.0  0.18000  0.25000  0.27500  1.0000
  Cl  Cl7       1.0  0.52200  0.75000  0.28400  1.0000
  Cl  Cl8       1.0  0.29800  0.75000  0.40000  1.0000
  Cl  Cl9       1.0  0.98300  0.25000  0.40300  1.0000
  Cl  Cl10      1.0  0.44600  0.25000  0.44400  1.0000
  Cl  Cl11      1.0  0.55400  0.75000  0.55600  1.0000
  Cl  Cl12      1.0  0.01690  0.75000  0.59700  1.0000
  Cl  Cl13      1.0  0.70200  0.25000  0.60000  1.0000
  Cl  Cl14      1.0  0.47800  0.25000  0.71600  1.0000
  Cl  Cl15      1.0  0.82000  0.75000  0.72500  1.0000
  Cl  Cl16      1.0  0.32000  0.75000  0.77500  1.0000
  Cl  Cl17      1.0  0.97800  0.25000  0.78400  1.0000
  Cl  Cl18      1.0  0.20200  0.25000  0.90000  1.0000
  Cl  Cl19      1.0  0.51700  0.75000  0.90300  1.0000
  Cl  Cl20      1.0  0.05430  0.75000  0.94400  1.0000
  La  La1       1.0  0.62000  0.75000  0.08200  1.0000
  La  La2       1.0  0.12000  0.25000  0.08470  1.0000
  La  La3       1.0  0.87000  0.25000  0.23800  1.0000
  La  La4       1.0  0.37000  0.25000  0.26200  1.0000
  La  La5       1.0  0.62000  0.25000  0.41500  1.0000
  La  La6       1.0  0.12000  0.75000  0.41800  1.0000
  La  La7       1.0  0.88000  0.25000  0.58200  1.0000
  La  La8       1.0  0.38000  0.75000  0.58500  1.0000
  La  La9       1.0  0.63000  0.75000  0.73800  1.0000
  La  La10      1.0  0.13000  0.75000  0.76200  1.0000
  La  La11      1.0  0.88000  0.75000  0.91500  1.0000
  La  La12      1.0  0.38000  0.25000  0.91800  1.0000
  O   O1        1.0  0.65100  0.25000  0.01920  1.0000
  O   O2        1.0  0.18100  0.75000  0.09040  1.0000
  O   O3        1.0  0.29100  0.25000  0.09170  1.0000
  O   O4        1.0  0.34600  0.75000  0.19900  1.0000
  O   O5        1.0  0.84600  0.75000  0.30100  1.0000
  O   O6        1.0  0.79100  0.25000  0.40800  1.0000
  O   O7        1.0  0.68100  0.75000  0.41000  1.0000
  O   O8        1.0  0.15100  0.25000  0.48100  1.0000
  O   O9        1.0  0.84900  0.75000  0.51900  1.0000
  O   O10       1.0  0.31900  0.25000  0.59000  1.0000
  O   O11       1.0  0.20900  0.75000  0.59200  1.0000
  O   O12       1.0  0.15400  0.25000  0.69900  1.0000
  O   O13       1.0  0.65400  0.25000  0.80100  1.0000
  O   O14       1.0  0.70900  0.75000  0.90800  1.0000
  O   O15       1.0  0.81900  0.25000  0.91000  1.0000
  O   O16       1.0  0.34900  0.75000  0.98100  1.0000
  Ti  Ti1       1.0  0.29200  0.75000  0.08920  1.0000
  Ti  Ti2       1.0  0.79200  0.75000  0.41100  1.0000
  Ti  Ti3       1.0  0.20800  0.25000  0.58900  1.0000
  Ti  Ti4       1.0  0.70800  0.25000  0.91100  1.0000
