data_image0
_chemical_formula_structural       Cs12Cu4S36Te4
_chemical_formula_sum              "Cs12 Cu4 S36 Te4"
_cell_length_a       12.1097
_cell_length_b       12.6453
_cell_length_c       12.6453
_cell_angle_alpha    63.7662
_cell_angle_beta     90
_cell_angle_gamma    90

_space_group_name_H-M_alt    "P 1"
_space_group_IT_number       1

loop_
  _space_group_symop_operation_xyz
  'x, y, z'

loop_
  _atom_site_type_symbol
  _atom_site_label
  _atom_site_symmetry_multiplicity
  _atom_site_fract_x
  _atom_site_fract_y
  _atom_site_fract_z
  _atom_site_occupancy
  Cs  Cs1       1.0  0.16600  0.96200  0.03770  1.0000
  Cs  Cs2       1.0  0.67700  0.64500  0.05120  1.0000
  Cs  Cs3       1.0  0.17700  0.55100  0.14500  1.0000
  Cs  Cs4       1.0  0.67700  0.94900  0.35500  1.0000
  Cs  Cs5       1.0  0.17700  0.85500  0.44900  1.0000
  Cs  Cs6       1.0  0.66600  0.53800  0.46200  1.0000
  Cs  Cs7       1.0  0.33400  0.46200  0.53800  1.0000
  Cs  Cs8       1.0  0.82300  0.14500  0.55100  1.0000
  Cs  Cs9       1.0  0.32300  0.05120  0.64500  1.0000
  Cs  Cs10      1.0  0.82300  0.44900  0.85500  1.0000
  Cs  Cs11      1.0  0.32300  0.35500  0.94900  1.0000
  Cs  Cs12      1.0  0.83400  0.03770  0.96200  1.0000
  Cu  Cu1       1.0  0.50000  0.06790  0.06790  1.0000
  Cu  Cu2       1.0  0.00000  0.43200  0.43200  1.0000
  Cu  Cu3       1.0  0.00000  0.56800  0.56800  1.0000
  Cu  Cu4       1.0  0.50000  0.93200  0.93200  1.0000
  S   S1        1.0  0.64600  0.18600  0.06300  1.0000
  S   S2        1.0  0.59800  0.33600  0.07510  1.0000
  S   S3        1.0  0.95400  0.75300  0.07610  1.0000
  S   S4        1.0  0.58400  0.88000  0.12000  1.0000
  S   S5        1.0  0.90200  0.42500  0.16400  1.0000
  S   S6        1.0  0.35400  0.06300  0.18600  1.0000
  S   S7        1.0  0.91700  0.24900  0.20000  1.0000
  S   S8        1.0  0.95400  0.92400  0.24700  1.0000
  S   S9        1.0  0.08260  0.20000  0.24900  1.0000
  S   S10       1.0  0.58300  0.30000  0.25100  1.0000
  S   S11       1.0  0.45400  0.57600  0.25300  1.0000
  S   S12       1.0  0.41700  0.25100  0.30000  1.0000
  S   S13       1.0  0.85400  0.43700  0.31400  1.0000
  S   S14       1.0  0.40200  0.07510  0.33600  1.0000
  S   S15       1.0  0.08440  0.62000  0.38000  1.0000
  S   S16       1.0  0.45400  0.74700  0.42400  1.0000
  S   S17       1.0  0.09770  0.16400  0.42500  1.0000
  S   S18       1.0  0.14600  0.31400  0.43700  1.0000
  S   S19       1.0  0.85400  0.68600  0.56300  1.0000
  S   S20       1.0  0.90200  0.83600  0.57500  1.0000
  S   S21       1.0  0.54600  0.25300  0.57600  1.0000
  S   S22       1.0  0.91600  0.38000  0.62000  1.0000
  S   S23       1.0  0.59800  0.92500  0.66400  1.0000
  S   S24       1.0  0.14600  0.56300  0.68600  1.0000
  S   S25       1.0  0.58300  0.74900  0.70000  1.0000
  S   S26       1.0  0.54600  0.42400  0.74700  1.0000
  S   S27       1.0  0.41700  0.70000  0.74900  1.0000
  S   S28       1.0  0.91700  0.80000  0.75100  1.0000
  S   S29       1.0  0.04560  0.07610  0.75300  1.0000
  S   S30       1.0  0.08260  0.75100  0.80000  1.0000
  S   S31       1.0  0.64600  0.93700  0.81400  1.0000
  S   S32       1.0  0.09770  0.57500  0.83600  1.0000
  S   S33       1.0  0.41600  0.12000  0.88000  1.0000
  S   S34       1.0  0.04560  0.24700  0.92400  1.0000
  S   S35       1.0  0.40200  0.66400  0.92500  1.0000
  S   S36       1.0  0.35400  0.81400  0.93700  1.0000
  Te  Te1       1.0  0.42400  0.76800  0.23200  1.0000
  Te  Te2       1.0  0.92400  0.73200  0.26800  1.0000
  Te  Te3       1.0  0.07630  0.26800  0.73200  1.0000
  Te  Te4       1.0  0.57600  0.23200  0.76800  1.0000
