data_image0
_chemical_formula_structural       Ba4Mo12O40
_chemical_formula_sum              "Ba4 Mo12 O40"
_cell_length_a       14.572
_cell_length_b       7.5929
_cell_length_c       6.90693
_cell_angle_alpha    90
_cell_angle_beta     100.094
_cell_angle_gamma    90

_space_group_name_H-M_alt    "P 1"
_space_group_IT_number       1

loop_
  _space_group_symop_operation_xyz
  'x, y, z'

loop_
  _atom_site_type_symbol
  _atom_site_label
  _atom_site_symmetry_multiplicity
  _atom_site_fract_x
  _atom_site_fract_y
  _atom_site_fract_z
  _atom_site_occupancy
  Ba  Ba1       1.0  0.93300  0.25100  0.12100  1.0000
  Ba  Ba2       1.0  0.56700  0.50300  0.37700  1.0000
  Ba  Ba3       1.0  0.43300  0.00311  0.62300  1.0000
  Ba  Ba4       1.0  0.06660  0.75100  0.87900  1.0000
  Mo  Mo1       1.0  0.38400  0.23400  0.06570  1.0000
  Mo  Mo2       1.0  0.34900  0.74400  0.07550  1.0000
  Mo  Mo3       1.0  0.83500  0.74900  0.18100  1.0000
  Mo  Mo4       1.0  0.66500  0.00566  0.31900  1.0000
  Mo  Mo5       1.0  0.15100  0.01130  0.42400  1.0000
  Mo  Mo6       1.0  0.11600  0.52100  0.43600  1.0000
  Mo  Mo7       1.0  0.88400  0.02120  0.56400  1.0000
  Mo  Mo8       1.0  0.84900  0.51100  0.57600  1.0000
  Mo  Mo9       1.0  0.33500  0.50600  0.68100  1.0000
  Mo  Mo10      1.0  0.16500  0.24900  0.81900  1.0000
  Mo  Mo11      1.0  0.65100  0.24400  0.92500  1.0000
  Mo  Mo12      1.0  0.61600  0.73400  0.93400  1.0000
  O   O1        1.0  0.50400  0.74800  0.00311  1.0000
  O   O2        1.0  0.36400  0.50000  0.00484  1.0000
  O   O3        1.0  0.36900  0.99400  0.02960  1.0000
  O   O4        1.0  0.23800  0.24500  0.05850  1.0000
  O   O5        1.0  0.23400  0.75000  0.10200  1.0000
  O   O6        1.0  0.94800  0.75900  0.13900  1.0000
  O   O7        1.0  0.08950  0.48800  0.18200  1.0000
  O   O8        1.0  0.08970  0.02140  0.18200  1.0000
  O   O9        1.0  0.67000  0.24000  0.23600  1.0000
  O   O10       1.0  0.67900  0.76300  0.24600  1.0000
  O   O11       1.0  0.82100  0.99200  0.25300  1.0000
  O   O12       1.0  0.83000  0.51400  0.26500  1.0000
  O   O13       1.0  0.41100  0.73300  0.31700  1.0000
  O   O14       1.0  0.41000  0.26800  0.31900  1.0000
  O   O15       1.0  0.55200  0.99600  0.36100  1.0000
  O   O16       1.0  0.26700  0.00539  0.39900  1.0000
  O   O17       1.0  0.26200  0.50900  0.44100  1.0000
  O   O18       1.0  0.13100  0.76200  0.47100  1.0000
  O   O19       1.0  0.99500  0.00735  0.49400  1.0000
  O   O20       1.0  0.13600  0.25500  0.49500  1.0000
  O   O21       1.0  0.86400  0.75500  0.50500  1.0000
  O   O22       1.0  0.00467  0.50700  0.50600  1.0000
  O   O23       1.0  0.86900  0.26200  0.52900  1.0000
  O   O24       1.0  0.73800  0.00902  0.55900  1.0000
  O   O25       1.0  0.73300  0.50500  0.60100  1.0000
  O   O26       1.0  0.44800  0.49600  0.63900  1.0000
  O   O27       1.0  0.59000  0.76800  0.68100  1.0000
  O   O28       1.0  0.58900  0.23300  0.68300  1.0000
  O   O29       1.0  0.17000  0.01400  0.73500  1.0000
  O   O30       1.0  0.17900  0.49200  0.74700  1.0000
  O   O31       1.0  0.32100  0.26300  0.75400  1.0000
  O   O32       1.0  0.33000  0.74000  0.76400  1.0000
  O   O33       1.0  0.91000  0.52100  0.81800  1.0000
  O   O34       1.0  0.91000  0.98800  0.81800  1.0000
  O   O35       1.0  0.05170  0.25900  0.86100  1.0000
  O   O36       1.0  0.76600  0.25000  0.89800  1.0000
  O   O37       1.0  0.76200  0.74500  0.94200  1.0000
  O   O38       1.0  0.63100  0.49400  0.97000  1.0000
  O   O39       1.0  0.63600  0.00000  0.99500  1.0000
  O   O40       1.0  0.49600  0.24800  0.99700  1.0000
