data_image0
_chemical_formula_structural       Cl8Cr8Hg4K8O28
_chemical_formula_sum              "Cl8 Cr8 Hg4 K8 O28"
_cell_length_a       12.2322
_cell_length_b       10.3365
_cell_length_c       8.13146
_cell_angle_alpha    90
_cell_angle_beta     91.8898
_cell_angle_gamma    90

_space_group_name_H-M_alt    "P 1"
_space_group_IT_number       1

loop_
  _space_group_symop_operation_xyz
  'x, y, z'

loop_
  _atom_site_type_symbol
  _atom_site_label
  _atom_site_symmetry_multiplicity
  _atom_site_fract_x
  _atom_site_fract_y
  _atom_site_fract_z
  _atom_site_occupancy
  Cl  Cl1       1.0  0.14200  0.02050  0.21200  1.0000
  Cl  Cl2       1.0  0.64000  0.48300  0.21200  1.0000
  Cl  Cl3       1.0  0.86000  0.98300  0.28800  1.0000
  Cl  Cl4       1.0  0.35800  0.52100  0.28800  1.0000
  Cl  Cl5       1.0  0.64200  0.47900  0.71200  1.0000
  Cl  Cl6       1.0  0.14000  0.01750  0.71200  1.0000
  Cl  Cl7       1.0  0.36000  0.51700  0.78800  1.0000
  Cl  Cl8       1.0  0.85800  0.97900  0.78800  1.0000
  Cr  Cr1       1.0  0.38600  0.16600  0.04160  1.0000
  Cr  Cr2       1.0  0.11000  0.66300  0.04400  1.0000
  Cr  Cr3       1.0  0.39000  0.16300  0.45600  1.0000
  Cr  Cr4       1.0  0.11400  0.66600  0.45800  1.0000
  Cr  Cr5       1.0  0.88600  0.33400  0.54200  1.0000
  Cr  Cr6       1.0  0.61000  0.83700  0.54400  1.0000
  Cr  Cr7       1.0  0.89000  0.33700  0.95600  1.0000
  Cr  Cr8       1.0  0.61400  0.83400  0.95800  1.0000
  Hg  Hg1       1.0  0.00000  0.00000  0.00000  1.0000
  Hg  Hg2       1.0  0.50000  0.50000  0.00000  1.0000
  Hg  Hg3       1.0  0.50000  0.50000  0.50000  1.0000
  Hg  Hg4       1.0  0.00000  0.00000  0.50000  1.0000
  K   K1        1.0  0.65800  0.17900  0.24800  1.0000
  K   K2        1.0  0.36800  0.84700  0.24900  1.0000
  K   K3        1.0  0.13200  0.34700  0.25100  1.0000
  K   K4        1.0  0.84200  0.67900  0.25200  1.0000
  K   K5        1.0  0.15800  0.32100  0.74800  1.0000
  K   K6        1.0  0.86800  0.65300  0.74900  1.0000
  K   K7        1.0  0.63200  0.15300  0.75100  1.0000
  K   K8        1.0  0.34200  0.82100  0.75200  1.0000
  O   O1        1.0  0.99800  0.24900  0.00916  1.0000
  O   O2        1.0  0.50200  0.75500  0.00999  1.0000
  O   O3        1.0  0.28100  0.26100  0.01990  1.0000
  O   O4        1.0  0.22200  0.74600  0.02100  1.0000
  O   O5        1.0  0.88800  0.46800  0.06440  1.0000
  O   O6        1.0  0.62800  0.96300  0.06890  1.0000
  O   O7        1.0  0.40500  0.11300  0.24800  1.0000
  O   O8        1.0  0.09540  0.61300  0.25200  1.0000
  O   O9        1.0  0.87200  0.46300  0.43100  1.0000
  O   O10       1.0  0.61200  0.96800  0.43600  1.0000
  O   O11       1.0  0.27800  0.24600  0.47900  1.0000
  O   O12       1.0  0.21900  0.76100  0.48000  1.0000
  O   O13       1.0  0.99800  0.25500  0.49000  1.0000
  O   O14       1.0  0.50200  0.74900  0.49100  1.0000
  O   O15       1.0  0.49800  0.25100  0.50900  1.0000
  O   O16       1.0  0.00245  0.74500  0.51000  1.0000
  O   O17       1.0  0.78100  0.23900  0.52000  1.0000
  O   O18       1.0  0.72200  0.75400  0.52100  1.0000
  O   O19       1.0  0.38800  0.03180  0.56400  1.0000
  O   O20       1.0  0.12800  0.53700  0.56900  1.0000
  O   O21       1.0  0.90500  0.38700  0.74800  1.0000
  O   O22       1.0  0.59500  0.88700  0.75200  1.0000
  O   O23       1.0  0.37200  0.03720  0.93100  1.0000
  O   O24       1.0  0.11200  0.53200  0.93600  1.0000
  O   O25       1.0  0.77800  0.25400  0.97900  1.0000
  O   O26       1.0  0.71900  0.73900  0.98000  1.0000
  O   O27       1.0  0.49800  0.24500  0.99000  1.0000
  O   O28       1.0  0.00225  0.75100  0.99100  1.0000
