data_image0
_chemical_formula_structural       O36Sb12Tl8
_chemical_formula_sum              "O36 Sb12 Tl8"
_cell_length_a       9.4443
_cell_length_b       9.4443
_cell_length_c       9.4443
_cell_angle_alpha    90
_cell_angle_beta     90
_cell_angle_gamma    90

_space_group_name_H-M_alt    "P 1"
_space_group_IT_number       1

loop_
  _space_group_symop_operation_xyz
  'x, y, z'

loop_
  _atom_site_type_symbol
  _atom_site_label
  _atom_site_symmetry_multiplicity
  _atom_site_fract_x
  _atom_site_fract_y
  _atom_site_fract_z
  _atom_site_occupancy
  O   O1        1.0  0.36200  0.00000  0.00000  1.0000
  O   O2        1.0  0.63800  0.00000  0.00000  1.0000
  O   O3        1.0  0.00000  0.36200  0.00000  1.0000
  O   O4        1.0  0.00000  0.63800  0.00000  1.0000
  O   O5        1.0  0.33000  0.28800  0.00487  1.0000
  O   O6        1.0  0.67000  0.71200  0.00487  1.0000
  O   O7        1.0  0.50000  0.50000  0.13800  1.0000
  O   O8        1.0  0.21200  0.49500  0.17000  1.0000
  O   O9        1.0  0.78800  0.50500  0.17000  1.0000
  O   O10       1.0  0.49500  0.17000  0.21200  1.0000
  O   O11       1.0  0.50500  0.83000  0.21200  1.0000
  O   O12       1.0  0.00487  0.33000  0.28800  1.0000
  O   O13       1.0  0.99500  0.67000  0.28800  1.0000
  O   O14       1.0  0.28800  0.00487  0.33000  1.0000
  O   O15       1.0  0.71200  0.99500  0.33000  1.0000
  O   O16       1.0  0.00000  0.00000  0.36200  1.0000
  O   O17       1.0  0.17000  0.21200  0.49500  1.0000
  O   O18       1.0  0.83000  0.78800  0.49500  1.0000
  O   O19       1.0  0.50000  0.13800  0.50000  1.0000
  O   O20       1.0  0.13800  0.50000  0.50000  1.0000
  O   O21       1.0  0.86200  0.50000  0.50000  1.0000
  O   O22       1.0  0.50000  0.86200  0.50000  1.0000
  O   O23       1.0  0.83000  0.21200  0.50500  1.0000
  O   O24       1.0  0.17000  0.78800  0.50500  1.0000
  O   O25       1.0  0.00000  0.00000  0.63800  1.0000
  O   O26       1.0  0.71200  0.00487  0.67000  1.0000
  O   O27       1.0  0.28800  0.99500  0.67000  1.0000
  O   O28       1.0  0.99500  0.33000  0.71200  1.0000
  O   O29       1.0  0.00487  0.67000  0.71200  1.0000
  O   O30       1.0  0.50500  0.17000  0.78800  1.0000
  O   O31       1.0  0.49500  0.83000  0.78800  1.0000
  O   O32       1.0  0.78800  0.49500  0.83000  1.0000
  O   O33       1.0  0.21200  0.50500  0.83000  1.0000
  O   O34       1.0  0.50000  0.50000  0.86200  1.0000
  O   O35       1.0  0.67000  0.28800  0.99500  1.0000
  O   O36       1.0  0.33000  0.71200  0.99500  1.0000
  Sb  Sb1       1.0  0.50000  0.16500  0.00000  1.0000
  Sb  Sb2       1.0  0.33500  0.50000  0.00000  1.0000
  Sb  Sb3       1.0  0.66500  0.50000  0.00000  1.0000
  Sb  Sb4       1.0  0.50000  0.83500  0.00000  1.0000
  Sb  Sb5       1.0  0.00000  0.50000  0.16500  1.0000
  Sb  Sb6       1.0  0.50000  0.00000  0.33500  1.0000
  Sb  Sb7       1.0  0.16500  0.00000  0.50000  1.0000
  Sb  Sb8       1.0  0.83500  0.00000  0.50000  1.0000
  Sb  Sb9       1.0  0.00000  0.33500  0.50000  1.0000
  Sb  Sb10      1.0  0.00000  0.66500  0.50000  1.0000
  Sb  Sb11      1.0  0.50000  0.00000  0.66500  1.0000
  Sb  Sb12      1.0  0.00000  0.50000  0.83500  1.0000
  Tl  Tl1       1.0  0.13500  0.13500  0.13500  1.0000
  Tl  Tl2       1.0  0.86500  0.86500  0.13500  1.0000
  Tl  Tl3       1.0  0.36500  0.36500  0.36500  1.0000
  Tl  Tl4       1.0  0.63500  0.63500  0.36500  1.0000
  Tl  Tl5       1.0  0.63500  0.36500  0.63500  1.0000
  Tl  Tl6       1.0  0.36500  0.63500  0.63500  1.0000
  Tl  Tl7       1.0  0.86500  0.13500  0.86500  1.0000
  Tl  Tl8       1.0  0.13500  0.86500  0.86500  1.0000
