data_image0
_chemical_formula_structural       Bi8Ir4
_chemical_formula_sum              "Bi8 Ir4"
_cell_length_a       6.99977
_cell_length_b       6.89268
_cell_length_c       7.07692
_cell_angle_alpha    90
_cell_angle_beta     116.376
_cell_angle_gamma    90

_space_group_name_H-M_alt    "P 1"
_space_group_IT_number       1

loop_
  _space_group_symop_operation_xyz
  'x, y, z'

loop_
  _atom_site_type_symbol
  _atom_site_label
  _atom_site_symmetry_multiplicity
  _atom_site_fract_x
  _atom_site_fract_y
  _atom_site_fract_z
  _atom_site_occupancy
  Bi  Bi1       1.0  0.85400  0.13700  0.12600  1.0000
  Bi  Bi2       1.0  0.34500  0.35700  0.17100  1.0000
  Bi  Bi3       1.0  0.65500  0.85700  0.32900  1.0000
  Bi  Bi4       1.0  0.14600  0.63700  0.37400  1.0000
  Bi  Bi5       1.0  0.85400  0.36300  0.62600  1.0000
  Bi  Bi6       1.0  0.34500  0.14300  0.67100  1.0000
  Bi  Bi7       1.0  0.65500  0.64300  0.82900  1.0000
  Bi  Bi8       1.0  0.14600  0.86300  0.87400  1.0000
  Ir  Ir1       1.0  0.72800  0.49700  0.21300  1.0000
  Ir  Ir2       1.0  0.27200  0.99700  0.28700  1.0000
  Ir  Ir3       1.0  0.72800  0.00315  0.71300  1.0000
  Ir  Ir4       1.0  0.27200  0.50300  0.78700  1.0000
