data_image0
_chemical_formula_structural       Bi16Cd8O32
_chemical_formula_sum              "Bi16 Cd8 O32"
_cell_length_a       9.33982
_cell_length_b       11.1542
_cell_length_c       11.1542
_cell_angle_alpha    100.095
_cell_angle_beta     65.2494
_cell_angle_gamma    114.751

_space_group_name_H-M_alt    "P 1"
_space_group_IT_number       1

loop_
  _space_group_symop_operation_xyz
  'x, y, z'

loop_
  _atom_site_type_symbol
  _atom_site_label
  _atom_site_symmetry_multiplicity
  _atom_site_fract_x
  _atom_site_fract_y
  _atom_site_fract_z
  _atom_site_occupancy
  Bi  Bi1       1.0  0.22200  0.25000  0.05620  1.0000
  Bi  Bi2       1.0  0.28400  0.61200  0.11200  1.0000
  Bi  Bi3       1.0  0.10400  0.88800  0.11200  1.0000
  Bi  Bi4       1.0  0.77800  0.05620  0.25000  1.0000
  Bi  Bi5       1.0  0.47200  0.44400  0.25000  1.0000
  Bi  Bi6       1.0  0.82700  0.61200  0.38800  1.0000
  Bi  Bi7       1.0  0.28400  0.88800  0.38800  1.0000
  Bi  Bi8       1.0  0.52800  0.25000  0.44400  1.0000
  Bi  Bi9       1.0  0.47200  0.75000  0.55600  1.0000
  Bi  Bi10      1.0  0.71600  0.11200  0.61200  1.0000
  Bi  Bi11      1.0  0.17300  0.38800  0.61200  1.0000
  Bi  Bi12      1.0  0.22200  0.94400  0.75000  1.0000
  Bi  Bi13      1.0  0.52800  0.55600  0.75000  1.0000
  Bi  Bi14      1.0  0.71600  0.38800  0.88800  1.0000
  Bi  Bi15      1.0  0.89600  0.11200  0.88800  1.0000
  Bi  Bi16      1.0  0.77800  0.75000  0.94400  1.0000
  Cd  Cd1       1.0  0.89100  0.39100  0.10900  1.0000
  Cd  Cd2       1.0  0.50000  0.10900  0.10900  1.0000
  Cd  Cd3       1.0  0.10900  0.10900  0.39100  1.0000
  Cd  Cd4       1.0  0.00000  0.39100  0.39100  1.0000
  Cd  Cd5       1.0  0.00000  0.60900  0.60900  1.0000
  Cd  Cd6       1.0  0.89100  0.89100  0.60900  1.0000
  Cd  Cd7       1.0  0.50000  0.89100  0.89100  1.0000
  Cd  Cd8       1.0  0.10900  0.60900  0.89100  1.0000
  O   O1        1.0  0.80300  0.52300  0.02330  1.0000
  O   O2        1.0  0.67300  0.97700  0.02330  1.0000
  O   O3        1.0  0.23200  0.75000  0.03680  1.0000
  O   O4        1.0  0.46500  0.29600  0.09960  1.0000
  O   O5        1.0  0.93600  0.20400  0.09960  1.0000
  O   O6        1.0  0.23200  0.40000  0.20400  1.0000
  O   O7        1.0  0.06430  0.09960  0.20400  1.0000
  O   O8        1.0  0.01840  0.53700  0.25000  1.0000
  O   O9        1.0  0.23200  0.96300  0.25000  1.0000
  O   O10       1.0  0.53500  0.09960  0.29600  1.0000
  O   O11       1.0  0.66900  0.40000  0.29600  1.0000
  O   O12       1.0  0.33100  0.29600  0.40000  1.0000
  O   O13       1.0  0.76800  0.20400  0.40000  1.0000
  O   O14       1.0  0.01840  0.75000  0.46300  1.0000
  O   O15       1.0  0.22000  0.52300  0.47700  1.0000
  O   O16       1.0  0.80300  0.97700  0.47700  1.0000
  O   O17       1.0  0.19700  0.02330  0.52300  1.0000
  O   O18       1.0  0.78000  0.47700  0.52300  1.0000
  O   O19       1.0  0.98200  0.25000  0.53700  1.0000
  O   O20       1.0  0.23200  0.79600  0.60000  1.0000
  O   O21       1.0  0.66900  0.70400  0.60000  1.0000
  O   O22       1.0  0.33100  0.60000  0.70400  1.0000
  O   O23       1.0  0.46500  0.90000  0.70400  1.0000
  O   O24       1.0  0.76800  0.03680  0.75000  1.0000
  O   O25       1.0  0.98200  0.46300  0.75000  1.0000
  O   O26       1.0  0.76800  0.60000  0.79600  1.0000
  O   O27       1.0  0.93600  0.90000  0.79600  1.0000
  O   O28       1.0  0.06430  0.79600  0.90000  1.0000
  O   O29       1.0  0.53500  0.70400  0.90000  1.0000
  O   O30       1.0  0.76800  0.25000  0.96300  1.0000
  O   O31       1.0  0.32700  0.02330  0.97700  1.0000
  O   O32       1.0  0.19700  0.47700  0.97700  1.0000
