data_image0
_chemical_formula_structural       Ag28As4S24
_chemical_formula_sum              "Ag28 As4 S24"
_cell_length_a       10.6108
_cell_length_b       10.6108
_cell_length_c       10.6108
_cell_angle_alpha    90
_cell_angle_beta     90
_cell_angle_gamma    90

_space_group_name_H-M_alt    "P 1"
_space_group_IT_number       1

loop_
  _space_group_symop_operation_xyz
  'x, y, z'

loop_
  _atom_site_type_symbol
  _atom_site_label
  _atom_site_symmetry_multiplicity
  _atom_site_fract_x
  _atom_site_fract_y
  _atom_site_fract_z
  _atom_site_occupancy
  Ag  Ag1       1.0  0.85000  0.67500  0.01220  1.0000
  Ag  Ag2       1.0  0.26300  0.24200  0.02860  1.0000
  Ag  Ag3       1.0  0.60100  0.89900  0.10100  1.0000
  Ag  Ag4       1.0  0.17500  0.48800  0.15000  1.0000
  Ag  Ag5       1.0  0.48800  0.15000  0.17500  1.0000
  Ag  Ag6       1.0  0.75800  0.52900  0.23700  1.0000
  Ag  Ag7       1.0  0.02860  0.26300  0.24200  1.0000
  Ag  Ag8       1.0  0.97100  0.76300  0.25800  1.0000
  Ag  Ag9       1.0  0.24200  0.02860  0.26300  1.0000
  Ag  Ag10      1.0  0.51200  0.65000  0.32500  1.0000
  Ag  Ag11      1.0  0.82500  0.98800  0.35000  1.0000
  Ag  Ag12      1.0  0.39900  0.39900  0.39900  1.0000
  Ag  Ag13      1.0  0.73700  0.74200  0.47100  1.0000
  Ag  Ag14      1.0  0.15000  0.17500  0.48800  1.0000
  Ag  Ag15      1.0  0.65000  0.32500  0.51200  1.0000
  Ag  Ag16      1.0  0.23700  0.75800  0.52900  1.0000
  Ag  Ag17      1.0  0.89900  0.10100  0.60100  1.0000
  Ag  Ag18      1.0  0.32500  0.51200  0.65000  1.0000
  Ag  Ag19      1.0  0.01220  0.85000  0.67500  1.0000
  Ag  Ag20      1.0  0.74200  0.47100  0.73700  1.0000
  Ag  Ag21      1.0  0.47100  0.73700  0.74200  1.0000
  Ag  Ag22      1.0  0.52900  0.23700  0.75800  1.0000
  Ag  Ag23      1.0  0.25800  0.97100  0.76300  1.0000
  Ag  Ag24      1.0  0.98800  0.35000  0.82500  1.0000
  Ag  Ag25      1.0  0.67500  0.01220  0.85000  1.0000
  Ag  Ag26      1.0  0.10100  0.60100  0.89900  1.0000
  Ag  Ag27      1.0  0.76300  0.25800  0.97100  1.0000
  Ag  Ag28      1.0  0.35000  0.82500  0.98800  1.0000
  As  As1       1.0  0.00272  0.00272  0.00272  1.0000
  As  As2       1.0  0.99700  0.50300  0.49700  1.0000
  As  As3       1.0  0.49700  0.99700  0.50300  1.0000
  As  As4       1.0  0.50300  0.49700  0.99700  1.0000
  S   S1        1.0  0.97000  0.47000  0.03040  1.0000
  S   S2        1.0  0.12900  0.88100  0.11500  1.0000
  S   S3        1.0  0.38100  0.61900  0.11900  1.0000
  S   S4        1.0  0.61500  0.37100  0.11900  1.0000
  S   S5        1.0  0.88100  0.11500  0.12900  1.0000
  S   S6        1.0  0.73300  0.76700  0.23300  1.0000
  S   S7        1.0  0.26700  0.26700  0.26700  1.0000
  S   S8        1.0  0.11900  0.61500  0.37100  1.0000
  S   S9        1.0  0.38500  0.87100  0.38100  1.0000
  S   S10       1.0  0.61900  0.11900  0.38100  1.0000
  S   S11       1.0  0.87100  0.38100  0.38500  1.0000
  S   S12       1.0  0.03040  0.97000  0.47000  1.0000
  S   S13       1.0  0.53000  0.53000  0.53000  1.0000
  S   S14       1.0  0.37100  0.11900  0.61500  1.0000
  S   S15       1.0  0.11900  0.38100  0.61900  1.0000
  S   S16       1.0  0.88500  0.62900  0.61900  1.0000
  S   S17       1.0  0.61900  0.88500  0.62900  1.0000
  S   S18       1.0  0.76700  0.23300  0.73300  1.0000
  S   S19       1.0  0.23300  0.73300  0.76700  1.0000
  S   S20       1.0  0.38100  0.38500  0.87100  1.0000
  S   S21       1.0  0.11500  0.12900  0.88100  1.0000
  S   S22       1.0  0.88100  0.88100  0.88100  1.0000
  S   S23       1.0  0.62900  0.61900  0.88500  1.0000
  S   S24       1.0  0.47000  0.03040  0.97000  1.0000
