data_image0
_chemical_formula_structural       Ga41V8
_chemical_formula_sum              "Ga41 V8"
_cell_length_a       9.46341
_cell_length_b       9.46341
_cell_length_c       9.46341
_cell_angle_alpha    94.9553
_cell_angle_beta     94.9553
_cell_angle_gamma    94.9553

_space_group_name_H-M_alt    "P 1"
_space_group_IT_number       1

loop_
  _space_group_symop_operation_xyz
  'x, y, z'

loop_
  _atom_site_type_symbol
  _atom_site_label
  _atom_site_symmetry_multiplicity
  _atom_site_fract_x
  _atom_site_fract_y
  _atom_site_fract_z
  _atom_site_occupancy
  Ga  Ga1       1.0  0.00000  0.00000  0.00000  1.0000
  Ga  Ga2       1.0  0.50000  0.00000  0.00000  1.0000
  Ga  Ga3       1.0  0.00000  0.50000  0.00000  1.0000
  Ga  Ga4       1.0  0.28000  0.17300  0.04130  1.0000
  Ga  Ga5       1.0  0.42300  0.72400  0.05250  1.0000
  Ga  Ga6       1.0  0.28500  0.46700  0.10200  1.0000
  Ga  Ga7       1.0  0.13500  0.76100  0.11500  1.0000
  Ga  Ga8       1.0  0.76100  0.11500  0.13500  1.0000
  Ga  Ga9       1.0  0.04130  0.28000  0.17300  1.0000
  Ga  Ga10      1.0  0.67700  0.63000  0.17500  1.0000
  Ga  Ga11      1.0  0.55600  0.37300  0.23000  1.0000
  Ga  Ga12      1.0  0.88500  0.86500  0.23900  1.0000
  Ga  Ga13      1.0  0.94700  0.57700  0.27600  1.0000
  Ga  Ga14      1.0  0.17300  0.04130  0.28000  1.0000
  Ga  Ga15      1.0  0.46700  0.10200  0.28500  1.0000
  Ga  Ga16      1.0  0.37000  0.82500  0.32300  1.0000
  Ga  Ga17      1.0  0.82500  0.32300  0.37000  1.0000
  Ga  Ga18      1.0  0.23000  0.55600  0.37300  1.0000
  Ga  Ga19      1.0  0.72400  0.05250  0.42300  1.0000
  Ga  Ga20      1.0  0.62700  0.77000  0.44400  1.0000
  Ga  Ga21      1.0  0.10200  0.28500  0.46700  1.0000
  Ga  Ga22      1.0  0.00000  0.00000  0.50000  1.0000
  Ga  Ga23      1.0  0.50000  0.50000  0.50000  1.0000
  Ga  Ga24      1.0  0.89800  0.71500  0.53300  1.0000
  Ga  Ga25      1.0  0.37300  0.23000  0.55600  1.0000
  Ga  Ga26      1.0  0.27600  0.94700  0.57700  1.0000
  Ga  Ga27      1.0  0.77000  0.44400  0.62700  1.0000
  Ga  Ga28      1.0  0.17500  0.67700  0.63000  1.0000
  Ga  Ga29      1.0  0.63000  0.17500  0.67700  1.0000
  Ga  Ga30      1.0  0.53300  0.89800  0.71500  1.0000
  Ga  Ga31      1.0  0.82700  0.95900  0.72000  1.0000
  Ga  Ga32      1.0  0.05250  0.42300  0.72400  1.0000
  Ga  Ga33      1.0  0.11500  0.13500  0.76100  1.0000
  Ga  Ga34      1.0  0.44400  0.62700  0.77000  1.0000
  Ga  Ga35      1.0  0.32300  0.37000  0.82500  1.0000
  Ga  Ga36      1.0  0.95900  0.72000  0.82700  1.0000
  Ga  Ga37      1.0  0.23900  0.88500  0.86500  1.0000
  Ga  Ga38      1.0  0.86500  0.23900  0.88500  1.0000
  Ga  Ga39      1.0  0.71500  0.53300  0.89800  1.0000
  Ga  Ga40      1.0  0.57700  0.27600  0.94700  1.0000
  Ga  Ga41      1.0  0.72000  0.82700  0.95900  1.0000
  V   V1        1.0  0.78900  0.39400  0.11300  1.0000
  V   V2        1.0  0.60600  0.88700  0.21100  1.0000
  V   V3        1.0  0.31400  0.31400  0.31400  1.0000
  V   V4        1.0  0.11300  0.78900  0.39400  1.0000
  V   V5        1.0  0.88700  0.21100  0.60600  1.0000
  V   V6        1.0  0.68600  0.68600  0.68600  1.0000
  V   V7        1.0  0.39400  0.11300  0.78900  1.0000
  V   V8        1.0  0.21100  0.60600  0.88700  1.0000
