data_image0
_chemical_formula_structural       Na16O32Ru8
_chemical_formula_sum              "Na16 O32 Ru8"
_cell_length_a       10.5973
_cell_length_b       7.00209
_cell_length_c       10.7698
_cell_angle_alpha    90
_cell_angle_beta     119.273
_cell_angle_gamma    90

_space_group_name_H-M_alt    "P 1"
_space_group_IT_number       1

loop_
  _space_group_symop_operation_xyz
  'x, y, z'

loop_
  _atom_site_type_symbol
  _atom_site_label
  _atom_site_symmetry_multiplicity
  _atom_site_fract_x
  _atom_site_fract_y
  _atom_site_fract_z
  _atom_site_occupancy
  Na  Na1       1.0  0.64900  0.42400  0.08510  1.0000
  Na  Na2       1.0  0.69600  0.95400  0.08880  1.0000
  Na  Na3       1.0  0.19300  0.51300  0.08890  1.0000
  Na  Na4       1.0  0.15400  0.00110  0.10100  1.0000
  Na  Na5       1.0  0.84600  0.50100  0.39900  1.0000
  Na  Na6       1.0  0.80700  0.01340  0.41100  1.0000
  Na  Na7       1.0  0.30400  0.45400  0.41100  1.0000
  Na  Na8       1.0  0.35100  0.92400  0.41500  1.0000
  Na  Na9       1.0  0.64900  0.07610  0.58500  1.0000
  Na  Na10      1.0  0.69600  0.54600  0.58900  1.0000
  Na  Na11      1.0  0.19300  0.98700  0.58900  1.0000
  Na  Na12      1.0  0.15400  0.49900  0.60100  1.0000
  Na  Na13      1.0  0.84600  0.99900  0.89900  1.0000
  Na  Na14      1.0  0.80700  0.48700  0.91100  1.0000
  Na  Na15      1.0  0.30400  0.04630  0.91100  1.0000
  Na  Na16      1.0  0.35100  0.57600  0.91500  1.0000
  O   O1        1.0  0.33600  0.81700  0.09190  1.0000
  O   O2        1.0  0.00728  0.32200  0.09630  1.0000
  O   O3        1.0  0.52000  0.14200  0.10900  1.0000
  O   O4        1.0  0.83100  0.64000  0.11100  1.0000
  O   O5        1.0  0.95000  0.97600  0.14500  1.0000
  O   O6        1.0  0.46800  0.48900  0.15000  1.0000
  O   O7        1.0  0.32500  0.25000  0.23900  1.0000
  O   O8        1.0  0.16700  0.72400  0.24700  1.0000
  O   O9        1.0  0.83300  0.22400  0.25300  1.0000
  O   O10       1.0  0.67500  0.75000  0.26100  1.0000
  O   O11       1.0  0.53200  0.98900  0.35000  1.0000
  O   O12       1.0  0.04990  0.47600  0.35500  1.0000
  O   O13       1.0  0.16900  0.14000  0.38900  1.0000
  O   O14       1.0  0.48000  0.64200  0.39100  1.0000
  O   O15       1.0  0.99300  0.82200  0.40400  1.0000
  O   O16       1.0  0.66400  0.31700  0.40800  1.0000
  O   O17       1.0  0.33600  0.68300  0.59200  1.0000
  O   O18       1.0  0.00728  0.17800  0.59600  1.0000
  O   O19       1.0  0.52000  0.35800  0.60900  1.0000
  O   O20       1.0  0.83100  0.86000  0.61100  1.0000
  O   O21       1.0  0.95000  0.52400  0.64500  1.0000
  O   O22       1.0  0.46800  0.01090  0.65000  1.0000
  O   O23       1.0  0.32500  0.25000  0.73900  1.0000
  O   O24       1.0  0.16700  0.77600  0.74700  1.0000
  O   O25       1.0  0.83300  0.27600  0.75300  1.0000
  O   O26       1.0  0.67500  0.75000  0.76100  1.0000
  O   O27       1.0  0.53200  0.51100  0.85000  1.0000
  O   O28       1.0  0.04990  0.02370  0.85500  1.0000
  O   O29       1.0  0.16900  0.36000  0.88900  1.0000
  O   O30       1.0  0.48000  0.85800  0.89100  1.0000
  O   O31       1.0  0.99300  0.67800  0.90400  1.0000
  O   O32       1.0  0.66400  0.18300  0.90800  1.0000
  Ru  Ru1       1.0  0.00113  0.22800  0.24800  1.0000
  Ru  Ru2       1.0  0.50000  0.74300  0.24800  1.0000
  Ru  Ru3       1.0  0.50000  0.24300  0.25200  1.0000
  Ru  Ru4       1.0  0.99900  0.72800  0.25200  1.0000
  Ru  Ru5       1.0  0.00113  0.27200  0.74800  1.0000
  Ru  Ru6       1.0  0.50000  0.75700  0.74800  1.0000
  Ru  Ru7       1.0  0.50000  0.25700  0.75200  1.0000
  Ru  Ru8       1.0  0.99900  0.77200  0.75200  1.0000
