data_image0
_chemical_formula_structural       Cu4Na8O32Si12
_chemical_formula_sum              "Cu4 Na8 O32 Si12"
_cell_length_a       7.87961
_cell_length_b       10.2342
_cell_length_c       9.51333
_cell_angle_alpha    90
_cell_angle_beta     105.837
_cell_angle_gamma    90

_space_group_name_H-M_alt    "P 1"
_space_group_IT_number       1

loop_
  _space_group_symop_operation_xyz
  'x, y, z'

loop_
  _atom_site_type_symbol
  _atom_site_label
  _atom_site_symmetry_multiplicity
  _atom_site_fract_x
  _atom_site_fract_y
  _atom_site_fract_z
  _atom_site_occupancy
  Cu  Cu1       1.0  0.01490  0.22700  0.18200  1.0000
  Cu  Cu2       1.0  0.98500  0.72700  0.31800  1.0000
  Cu  Cu3       1.0  0.01490  0.27300  0.68200  1.0000
  Cu  Cu4       1.0  0.98500  0.77300  0.81800  1.0000
  Na  Na1       1.0  0.80000  0.97300  0.03990  1.0000
  Na  Na2       1.0  0.20300  0.49100  0.12800  1.0000
  Na  Na3       1.0  0.79700  0.99100  0.37200  1.0000
  Na  Na4       1.0  0.20000  0.47300  0.46000  1.0000
  Na  Na5       1.0  0.80000  0.52700  0.54000  1.0000
  Na  Na6       1.0  0.20300  0.00925  0.62800  1.0000
  Na  Na7       1.0  0.79700  0.50900  0.87200  1.0000
  Na  Na8       1.0  0.20000  0.02740  0.96000  1.0000
  O   O1        1.0  0.46100  0.19700  0.04380  1.0000
  O   O2        1.0  0.70300  0.58500  0.06340  1.0000
  O   O3        1.0  0.92700  0.39500  0.11000  1.0000
  O   O4        1.0  0.10300  0.05350  0.16100  1.0000
  O   O5        1.0  0.45200  0.66800  0.17000  1.0000
  O   O6        1.0  0.79300  0.14600  0.19100  1.0000
  O   O7        1.0  0.75900  0.81100  0.21600  1.0000
  O   O8        1.0  0.64900  0.38200  0.22500  1.0000
  O   O9        1.0  0.35100  0.88200  0.27500  1.0000
  O   O10       1.0  0.24100  0.31100  0.28400  1.0000
  O   O11       1.0  0.20700  0.64600  0.30900  1.0000
  O   O12       1.0  0.54800  0.16800  0.33000  1.0000
  O   O13       1.0  0.89700  0.55400  0.33900  1.0000
  O   O14       1.0  0.07340  0.89500  0.39000  1.0000
  O   O15       1.0  0.29700  0.08460  0.43700  1.0000
  O   O16       1.0  0.53900  0.69700  0.45600  1.0000
  O   O17       1.0  0.46100  0.30300  0.54400  1.0000
  O   O18       1.0  0.70300  0.91500  0.56300  1.0000
  O   O19       1.0  0.92700  0.10500  0.61000  1.0000
  O   O20       1.0  0.10300  0.44600  0.66100  1.0000
  O   O21       1.0  0.45200  0.83200  0.67000  1.0000
  O   O22       1.0  0.79300  0.35400  0.69100  1.0000
  O   O23       1.0  0.75900  0.68900  0.71600  1.0000
  O   O24       1.0  0.64900  0.11800  0.72500  1.0000
  O   O25       1.0  0.35100  0.61800  0.77500  1.0000
  O   O26       1.0  0.24100  0.18900  0.78400  1.0000
  O   O27       1.0  0.20700  0.85400  0.80900  1.0000
  O   O28       1.0  0.54800  0.33200  0.83000  1.0000
  O   O29       1.0  0.89700  0.94600  0.83900  1.0000
  O   O30       1.0  0.07340  0.60500  0.89000  1.0000
  O   O31       1.0  0.29700  0.41500  0.93700  1.0000
  O   O32       1.0  0.53900  0.80300  0.95600  1.0000
  Si  Si1       1.0  0.61600  0.71900  0.10700  1.0000
  Si  Si2       1.0  0.80300  0.47600  0.18900  1.0000
  Si  Si3       1.0  0.61900  0.22600  0.19500  1.0000
  Si  Si4       1.0  0.38100  0.72600  0.30500  1.0000
  Si  Si5       1.0  0.19700  0.97600  0.31100  1.0000
  Si  Si6       1.0  0.38400  0.21900  0.39300  1.0000
  Si  Si7       1.0  0.61600  0.78100  0.60700  1.0000
  Si  Si8       1.0  0.80300  0.02360  0.68900  1.0000
  Si  Si9       1.0  0.61900  0.27400  0.69500  1.0000
  Si  Si10      1.0  0.38100  0.77400  0.80500  1.0000
  Si  Si11      1.0  0.19700  0.52400  0.81100  1.0000
  Si  Si12      1.0  0.38400  0.28100  0.89300  1.0000
