data_image0
_chemical_formula_structural       Be8Cs4H4O32P8
_chemical_formula_sum              "Be8 Cs4 H4 O32 P8"
_cell_length_a       4.8424
_cell_length_b       10.6707
_cell_length_c       12.9068
_cell_angle_alpha    92.1858
_cell_angle_beta     92.323
_cell_angle_gamma    91.0921

_space_group_name_H-M_alt    "P 1"
_space_group_IT_number       1

loop_
  _space_group_symop_operation_xyz
  'x, y, z'

loop_
  _atom_site_type_symbol
  _atom_site_label
  _atom_site_symmetry_multiplicity
  _atom_site_fract_x
  _atom_site_fract_y
  _atom_site_fract_z
  _atom_site_occupancy
  Be  Be1       1.0  0.66400  0.93200  0.04430  1.0000
  Be  Be2       1.0  0.28200  0.54800  0.13000  1.0000
  Be  Be3       1.0  0.21000  0.16900  0.33500  1.0000
  Be  Be4       1.0  0.81700  0.43500  0.46200  1.0000
  Be  Be5       1.0  0.18300  0.56500  0.53800  1.0000
  Be  Be6       1.0  0.79000  0.83100  0.66500  1.0000
  Be  Be7       1.0  0.71800  0.45200  0.87000  1.0000
  Be  Be8       1.0  0.33600  0.06780  0.95600  1.0000
  Cs  Cs1       1.0  0.74600  0.27700  0.15500  1.0000
  Cs  Cs2       1.0  0.73100  0.74900  0.33100  1.0000
  Cs  Cs3       1.0  0.26900  0.25100  0.66900  1.0000
  Cs  Cs4       1.0  0.25400  0.72300  0.84500  1.0000
  H   H1        1.0  0.16900  0.77100  0.15600  1.0000
  H   H2        1.0  0.27200  0.00131  0.44900  1.0000
  H   H3        1.0  0.72800  0.99900  0.55100  1.0000
  H   H4        1.0  0.83100  0.22900  0.84400  1.0000
  O   O1        1.0  0.69300  0.78900  0.02010  1.0000
  O   O2        1.0  0.33900  0.98000  0.06110  1.0000
  O   O3        1.0  0.22500  0.41900  0.06270  1.0000
  O   O4        1.0  0.08580  0.66200  0.08770  1.0000
  O   O5        1.0  0.60100  0.59300  0.12100  1.0000
  O   O6        1.0  0.86500  0.99100  0.13400  1.0000
  O   O7        1.0  0.22700  0.84500  0.20800  1.0000
  O   O8        1.0  0.28300  0.07700  0.23900  1.0000
  O   O9        1.0  0.21800  0.53300  0.25200  1.0000
  O   O10       1.0  0.27100  0.30800  0.29800  1.0000
  O   O11       1.0  0.88900  0.14600  0.36400  1.0000
  O   O12       1.0  0.62000  0.47400  0.36800  1.0000
  O   O13       1.0  0.40900  0.13500  0.43500  1.0000
  O   O14       1.0  0.14500  0.46400  0.43600  1.0000
  O   O15       1.0  0.18700  0.91400  0.44800  1.0000
  O   O16       1.0  0.24500  0.69800  0.49400  1.0000
  O   O17       1.0  0.75500  0.30200  0.50600  1.0000
  O   O18       1.0  0.81300  0.08620  0.55200  1.0000
  O   O19       1.0  0.85500  0.53600  0.56400  1.0000
  O   O20       1.0  0.59100  0.86500  0.56500  1.0000
  O   O21       1.0  0.38000  0.52600  0.63200  1.0000
  O   O22       1.0  0.11100  0.85400  0.63600  1.0000
  O   O23       1.0  0.72900  0.69200  0.70200  1.0000
  O   O24       1.0  0.78200  0.46700  0.74800  1.0000
  O   O25       1.0  0.71700  0.92300  0.76100  1.0000
  O   O26       1.0  0.77300  0.15500  0.79200  1.0000
  O   O27       1.0  0.13500  0.00859  0.86600  1.0000
  O   O28       1.0  0.39900  0.40700  0.87900  1.0000
  O   O29       1.0  0.91400  0.33800  0.91200  1.0000
  O   O30       1.0  0.77500  0.58100  0.93700  1.0000
  O   O31       1.0  0.66100  0.02050  0.93900  1.0000
  O   O32       1.0  0.30700  0.21100  0.98000  1.0000
  P   P1        1.0  0.78200  0.65400  0.04170  1.0000
  P   P2        1.0  0.17200  0.97700  0.16200  1.0000
  P   P3        1.0  0.31600  0.44400  0.33600  1.0000
  P   P4        1.0  0.71800  0.16900  0.45900  1.0000
  P   P5        1.0  0.28200  0.83100  0.54100  1.0000
  P   P6        1.0  0.68400  0.55600  0.66400  1.0000
  P   P7        1.0  0.82800  0.02300  0.83800  1.0000
  P   P8        1.0  0.21800  0.34600  0.95800  1.0000
