data_image0
_chemical_formula_structural       Cd4O36P8V8
_chemical_formula_sum              "Cd4 O36 P8 V8"
_cell_length_a       14.4225
_cell_length_b       6.34155
_cell_length_c       7.19688
_cell_angle_alpha    90
_cell_angle_beta     90
_cell_angle_gamma    90

_space_group_name_H-M_alt    "P 1"
_space_group_IT_number       1

loop_
  _space_group_symop_operation_xyz
  'x, y, z'

loop_
  _atom_site_type_symbol
  _atom_site_label
  _atom_site_symmetry_multiplicity
  _atom_site_fract_x
  _atom_site_fract_y
  _atom_site_fract_z
  _atom_site_occupancy
  Cd  Cd1       1.0  0.22000  0.25000  0.12100  1.0000
  Cd  Cd2       1.0  0.72000  0.25000  0.37900  1.0000
  Cd  Cd3       1.0  0.28000  0.75000  0.62100  1.0000
  Cd  Cd4       1.0  0.78000  0.75000  0.87900  1.0000
  O   O1        1.0  0.50100  0.75000  0.03000  1.0000
  O   O2        1.0  0.73700  0.25000  0.05020  1.0000
  O   O3        1.0  0.13000  0.54900  0.11100  1.0000
  O   O4        1.0  0.13000  0.95100  0.11100  1.0000
  O   O5        1.0  0.36300  0.05970  0.11800  1.0000
  O   O6        1.0  0.36300  0.44000  0.11800  1.0000
  O   O7        1.0  0.94700  0.75000  0.12400  1.0000
  O   O8        1.0  0.98000  0.25000  0.18300  1.0000
  O   O9        1.0  0.75300  0.75000  0.21100  1.0000
  O   O10       1.0  0.25300  0.75000  0.28900  1.0000
  O   O11       1.0  0.48000  0.25000  0.31700  1.0000
  O   O12       1.0  0.44700  0.75000  0.37600  1.0000
  O   O13       1.0  0.86300  0.05970  0.38200  1.0000
  O   O14       1.0  0.86300  0.44000  0.38200  1.0000
  O   O15       1.0  0.63000  0.54900  0.38900  1.0000
  O   O16       1.0  0.63000  0.95100  0.38900  1.0000
  O   O17       1.0  0.23700  0.25000  0.45000  1.0000
  O   O18       1.0  0.00078  0.75000  0.47000  1.0000
  O   O19       1.0  0.99900  0.25000  0.53000  1.0000
  O   O20       1.0  0.76300  0.75000  0.55000  1.0000
  O   O21       1.0  0.37000  0.04860  0.61100  1.0000
  O   O22       1.0  0.37000  0.45100  0.61100  1.0000
  O   O23       1.0  0.13700  0.56000  0.61800  1.0000
  O   O24       1.0  0.13700  0.94000  0.61800  1.0000
  O   O25       1.0  0.55300  0.25000  0.62400  1.0000
  O   O26       1.0  0.52000  0.75000  0.68300  1.0000
  O   O27       1.0  0.74700  0.25000  0.71100  1.0000
  O   O28       1.0  0.24700  0.25000  0.78900  1.0000
  O   O29       1.0  0.02040  0.75000  0.81700  1.0000
  O   O30       1.0  0.05260  0.25000  0.87600  1.0000
  O   O31       1.0  0.63700  0.56000  0.88200  1.0000
  O   O32       1.0  0.63700  0.94000  0.88200  1.0000
  O   O33       1.0  0.87000  0.04860  0.88900  1.0000
  O   O34       1.0  0.87000  0.45100  0.88900  1.0000
  O   O35       1.0  0.26300  0.75000  0.95000  1.0000
  O   O36       1.0  0.49900  0.25000  0.97000  1.0000
  P   P1        1.0  0.19200  0.75000  0.11200  1.0000
  P   P2        1.0  0.43000  0.25000  0.12500  1.0000
  P   P3        1.0  0.93000  0.25000  0.37500  1.0000
  P   P4        1.0  0.69200  0.75000  0.38800  1.0000
  P   P5        1.0  0.30800  0.25000  0.61200  1.0000
  P   P6        1.0  0.06960  0.75000  0.62500  1.0000
  P   P7        1.0  0.57000  0.75000  0.87500  1.0000
  P   P8        1.0  0.80800  0.25000  0.88800  1.0000
  V   V1        1.0  0.00000  0.00000  0.00000  1.0000
  V   V2        1.0  0.00000  0.50000  0.00000  1.0000
  V   V3        1.0  0.37600  0.75000  0.14700  1.0000
  V   V4        1.0  0.87600  0.75000  0.35300  1.0000
  V   V5        1.0  0.50000  0.00000  0.50000  1.0000
  V   V6        1.0  0.50000  0.50000  0.50000  1.0000
  V   V7        1.0  0.12400  0.25000  0.64700  1.0000
  V   V8        1.0  0.62400  0.25000  0.85300  1.0000
