data_image0
_chemical_formula_structural       Cl2Nd6O16Si4
_chemical_formula_sum              "Cl2 Nd6 O16 Si4"
_cell_length_a       6.38826
_cell_length_b       7.72413
_cell_length_c       8.76414
_cell_angle_alpha    97.7249
_cell_angle_beta     90
_cell_angle_gamma    114.427

_space_group_name_H-M_alt    "P 1"
_space_group_IT_number       1

loop_
  _space_group_symop_operation_xyz
  'x, y, z'

loop_
  _atom_site_type_symbol
  _atom_site_label
  _atom_site_symmetry_multiplicity
  _atom_site_fract_x
  _atom_site_fract_y
  _atom_site_fract_z
  _atom_site_occupancy
  Cl  Cl1       1.0  0.47400  0.00000  0.25000  1.0000
  Cl  Cl2       1.0  0.52600  0.00000  0.75000  1.0000
  Nd  Nd1       1.0  0.58000  0.36900  0.17100  1.0000
  Nd  Nd2       1.0  0.92300  0.00000  0.25000  1.0000
  Nd  Nd3       1.0  0.21100  0.63100  0.32900  1.0000
  Nd  Nd4       1.0  0.78900  0.36900  0.67100  1.0000
  Nd  Nd5       1.0  0.07700  0.00000  0.75000  1.0000
  Nd  Nd6       1.0  0.42000  0.63100  0.82900  1.0000
  O   O1        1.0  0.20700  0.15200  0.03070  1.0000
  O   O2        1.0  0.32100  0.52600  0.08200  1.0000
  O   O3        1.0  0.90300  0.28500  0.14500  1.0000
  O   O4        1.0  0.95900  0.69100  0.15600  1.0000
  O   O5        1.0  0.26800  0.30900  0.34400  1.0000
  O   O6        1.0  0.61800  0.71500  0.35500  1.0000
  O   O7        1.0  0.79500  0.47400  0.41800  1.0000
  O   O8        1.0  0.05470  0.84800  0.46900  1.0000
  O   O9        1.0  0.94500  0.15200  0.53100  1.0000
  O   O10       1.0  0.20500  0.52600  0.58200  1.0000
  O   O11       1.0  0.38200  0.28500  0.64500  1.0000
  O   O12       1.0  0.73200  0.69100  0.65600  1.0000
  O   O13       1.0  0.04110  0.30900  0.84400  1.0000
  O   O14       1.0  0.09680  0.71500  0.85500  1.0000
  O   O15       1.0  0.67900  0.47400  0.91800  1.0000
  O   O16       1.0  0.79300  0.84800  0.96900  1.0000
  Si  Si1       1.0  0.10400  0.31600  0.02500  1.0000
  Si  Si2       1.0  0.78900  0.68400  0.47500  1.0000
  Si  Si3       1.0  0.21100  0.31600  0.52500  1.0000
  Si  Si4       1.0  0.89600  0.68400  0.97500  1.0000
