data_image0
_chemical_formula_structural       Cl24N4O16P4S8
_chemical_formula_sum              "Cl24 N4 O16 P4 S8"
_cell_length_a       10.3445
_cell_length_b       10.7226
_cell_length_c       10.1322
_cell_angle_alpha    90
_cell_angle_beta     90
_cell_angle_gamma    90

_space_group_name_H-M_alt    "P 1"
_space_group_IT_number       1

loop_
  _space_group_symop_operation_xyz
  'x, y, z'

loop_
  _atom_site_type_symbol
  _atom_site_label
  _atom_site_symmetry_multiplicity
  _atom_site_fract_x
  _atom_site_fract_y
  _atom_site_fract_z
  _atom_site_occupancy
  Cl  Cl1       1.0  0.39000  0.25000  0.04490  1.0000
  Cl  Cl2       1.0  0.65500  0.10300  0.09630  1.0000
  Cl  Cl3       1.0  0.65500  0.39700  0.09630  1.0000
  Cl  Cl4       1.0  0.08530  0.59200  0.13000  1.0000
  Cl  Cl5       1.0  0.08530  0.90800  0.13000  1.0000
  Cl  Cl6       1.0  0.02020  0.25000  0.16900  1.0000
  Cl  Cl7       1.0  0.52000  0.25000  0.33100  1.0000
  Cl  Cl8       1.0  0.58500  0.59200  0.37000  1.0000
  Cl  Cl9       1.0  0.58500  0.90800  0.37000  1.0000
  Cl  Cl10      1.0  0.15500  0.10300  0.40400  1.0000
  Cl  Cl11      1.0  0.15500  0.39700  0.40400  1.0000
  Cl  Cl12      1.0  0.89000  0.25000  0.45500  1.0000
  Cl  Cl13      1.0  0.11000  0.75000  0.54500  1.0000
  Cl  Cl14      1.0  0.84500  0.60300  0.59600  1.0000
  Cl  Cl15      1.0  0.84500  0.89700  0.59600  1.0000
  Cl  Cl16      1.0  0.41500  0.09240  0.63000  1.0000
  Cl  Cl17      1.0  0.41500  0.40800  0.63000  1.0000
  Cl  Cl18      1.0  0.48000  0.75000  0.66900  1.0000
  Cl  Cl19      1.0  0.98000  0.75000  0.83100  1.0000
  Cl  Cl20      1.0  0.91500  0.09240  0.87000  1.0000
  Cl  Cl21      1.0  0.91500  0.40800  0.87000  1.0000
  Cl  Cl22      1.0  0.34500  0.60300  0.90400  1.0000
  Cl  Cl23      1.0  0.34500  0.89700  0.90400  1.0000
  Cl  Cl24      1.0  0.61000  0.75000  0.95500  1.0000
  N   N1        1.0  0.40500  0.75000  0.22100  1.0000
  N   N2        1.0  0.90500  0.75000  0.27900  1.0000
  N   N3        1.0  0.09480  0.25000  0.72100  1.0000
  N   N4        1.0  0.59500  0.25000  0.77900  1.0000
  O   O1        1.0  0.81700  0.61600  0.08760  1.0000
  O   O2        1.0  0.81700  0.88400  0.08760  1.0000
  O   O3        1.0  0.38500  0.52300  0.19900  1.0000
  O   O4        1.0  0.38500  0.97700  0.19900  1.0000
  O   O5        1.0  0.88500  0.52300  0.30100  1.0000
  O   O6        1.0  0.88500  0.97700  0.30100  1.0000
  O   O7        1.0  0.31700  0.61600  0.41200  1.0000
  O   O8        1.0  0.31700  0.88400  0.41200  1.0000
  O   O9        1.0  0.68300  0.11600  0.58800  1.0000
  O   O10       1.0  0.68300  0.38400  0.58800  1.0000
  O   O11       1.0  0.11500  0.02340  0.69900  1.0000
  O   O12       1.0  0.11500  0.47700  0.69900  1.0000
  O   O13       1.0  0.61500  0.02340  0.80100  1.0000
  O   O14       1.0  0.61500  0.47700  0.80100  1.0000
  O   O15       1.0  0.18300  0.11600  0.91200  1.0000
  O   O16       1.0  0.18300  0.38400  0.91200  1.0000
  P   P1        1.0  0.55400  0.25000  0.14000  1.0000
  P   P2        1.0  0.05370  0.25000  0.36000  1.0000
  P   P3        1.0  0.94600  0.75000  0.64000  1.0000
  P   P4        1.0  0.44600  0.75000  0.86000  1.0000
  S   S1        1.0  0.89900  0.62000  0.20300  1.0000
  S   S2        1.0  0.89900  0.88000  0.20300  1.0000
  S   S3        1.0  0.39900  0.62000  0.29700  1.0000
  S   S4        1.0  0.39900  0.88000  0.29700  1.0000
  S   S5        1.0  0.60100  0.12000  0.70300  1.0000
  S   S6        1.0  0.60100  0.38000  0.70300  1.0000
  S   S7        1.0  0.10100  0.12000  0.79700  1.0000
  S   S8        1.0  0.10100  0.38000  0.79700  1.0000
