data_image0
_chemical_formula_structural       Ba4Ga8O32Si8
_chemical_formula_sum              "Ba4 Ga8 O32 Si8"
_cell_length_a       8.69627
_cell_length_b       9.42921
_cell_length_c       9.42921
_cell_angle_alpha    91.0247
_cell_angle_beta     82.2478
_cell_angle_gamma    97.7522

_space_group_name_H-M_alt    "P 1"
_space_group_IT_number       1

loop_
  _space_group_symop_operation_xyz
  'x, y, z'

loop_
  _atom_site_type_symbol
  _atom_site_label
  _atom_site_symmetry_multiplicity
  _atom_site_fract_x
  _atom_site_fract_y
  _atom_site_fract_z
  _atom_site_occupancy
  Ba  Ba1       1.0  0.21300  0.93700  0.06640  1.0000
  Ba  Ba2       1.0  0.28700  0.56600  0.43700  1.0000
  Ba  Ba3       1.0  0.71300  0.43400  0.56300  1.0000
  Ba  Ba4       1.0  0.78700  0.06290  0.93400  1.0000
  Ga  Ga1       1.0  0.11700  0.30500  0.06490  1.0000
  Ga  Ga2       1.0  0.61700  0.43500  0.19500  1.0000
  Ga  Ga3       1.0  0.53000  0.95400  0.30200  1.0000
  Ga  Ga4       1.0  0.97000  0.80200  0.45400  1.0000
  Ga  Ga5       1.0  0.03030  0.19800  0.54600  1.0000
  Ga  Ga6       1.0  0.47000  0.04610  0.69800  1.0000
  Ga  Ga7       1.0  0.38300  0.56500  0.80500  1.0000
  Ga  Ga8       1.0  0.88300  0.69500  0.93500  1.0000
  O   O1        1.0  0.30900  0.24300  0.02440  1.0000
  O   O2        1.0  0.61900  0.31400  0.04410  1.0000
  O   O3        1.0  0.99200  0.67800  0.08710  1.0000
  O   O4        1.0  0.00380  0.13400  0.13300  1.0000
  O   O5        1.0  0.46300  0.85700  0.14600  1.0000
  O   O6        1.0  0.50800  0.58700  0.17800  1.0000
  O   O7        1.0  0.11900  0.45600  0.18600  1.0000
  O   O8        1.0  0.73200  0.02150  0.23400  1.0000
  O   O9        1.0  0.80900  0.47600  0.25700  1.0000
  O   O10       1.0  0.39000  0.08440  0.31100  1.0000
  O   O11       1.0  0.99900  0.94700  0.32500  1.0000
  O   O12       1.0  0.03730  0.64600  0.35700  1.0000
  O   O13       1.0  0.50400  0.36700  0.36600  1.0000
  O   O14       1.0  0.89000  0.18900  0.41600  1.0000
  O   O15       1.0  0.50100  0.82500  0.44700  1.0000
  O   O16       1.0  0.23200  0.26600  0.47900  1.0000
  O   O17       1.0  0.76800  0.73400  0.52100  1.0000
  O   O18       1.0  0.49900  0.17500  0.55300  1.0000
  O   O19       1.0  0.11000  0.81100  0.58400  1.0000
  O   O20       1.0  0.49600  0.63300  0.63400  1.0000
  O   O21       1.0  0.96300  0.35400  0.64300  1.0000
  O   O22       1.0  0.00059  0.05290  0.67500  1.0000
  O   O23       1.0  0.61000  0.91600  0.68900  1.0000
  O   O24       1.0  0.19100  0.52400  0.74300  1.0000
  O   O25       1.0  0.26800  0.97900  0.76600  1.0000
  O   O26       1.0  0.88100  0.54400  0.81400  1.0000
  O   O27       1.0  0.49200  0.41300  0.82200  1.0000
  O   O28       1.0  0.53700  0.14300  0.85400  1.0000
  O   O29       1.0  0.99600  0.86600  0.86700  1.0000
  O   O30       1.0  0.00815  0.32200  0.91300  1.0000
  O   O31       1.0  0.38100  0.68600  0.95600  1.0000
  O   O32       1.0  0.69100  0.75700  0.97600  1.0000
  Si  Si1       1.0  0.51600  0.71500  0.06190  1.0000
  Si  Si2       1.0  0.98400  0.56200  0.21500  1.0000
  Si  Si3       1.0  0.90200  0.07500  0.28500  1.0000
  Si  Si4       1.0  0.40200  0.21500  0.42500  1.0000
  Si  Si5       1.0  0.59800  0.78500  0.57500  1.0000
  Si  Si6       1.0  0.09820  0.92500  0.71500  1.0000
  Si  Si7       1.0  0.01640  0.43800  0.78500  1.0000
  Si  Si8       1.0  0.48400  0.28500  0.93800  1.0000
