data_image0
_chemical_formula_structural       Cr4Mo8O32Tl4
_chemical_formula_sum              "Cr4 Mo8 O32 Tl4"
_cell_length_a       14.708
_cell_length_b       5.65207
_cell_length_c       8.71131
_cell_angle_alpha    90
_cell_angle_beta     90
_cell_angle_gamma    90

_space_group_name_H-M_alt    "P 1"
_space_group_IT_number       1

loop_
  _space_group_symop_operation_xyz
  'x, y, z'

loop_
  _atom_site_type_symbol
  _atom_site_label
  _atom_site_symmetry_multiplicity
  _atom_site_fract_x
  _atom_site_fract_y
  _atom_site_fract_z
  _atom_site_occupancy
  Cr  Cr1       1.0  0.11600  0.25000  0.19000  1.0000
  Cr  Cr2       1.0  0.61600  0.25000  0.31000  1.0000
  Cr  Cr3       1.0  0.38400  0.75000  0.69000  1.0000
  Cr  Cr4       1.0  0.88400  0.75000  0.81000  1.0000
  Mo  Mo1       1.0  0.78300  0.25000  0.00387  1.0000
  Mo  Mo2       1.0  0.96800  0.75000  0.20800  1.0000
  Mo  Mo3       1.0  0.46800  0.75000  0.29200  1.0000
  Mo  Mo4       1.0  0.28300  0.25000  0.49600  1.0000
  Mo  Mo5       1.0  0.71700  0.75000  0.50400  1.0000
  Mo  Mo6       1.0  0.53200  0.25000  0.70800  1.0000
  Mo  Mo7       1.0  0.03230  0.25000  0.79200  1.0000
  Mo  Mo8       1.0  0.21700  0.75000  0.99600  1.0000
  O   O1        1.0  0.94900  0.75000  0.00605  1.0000
  O   O2        1.0  0.67800  0.25000  0.11000  1.0000
  O   O3        1.0  0.20400  0.01390  0.11000  1.0000
  O   O4        1.0  0.20400  0.48600  0.11000  1.0000
  O   O5        1.0  0.87100  0.25000  0.13800  1.0000
  O   O6        1.0  0.36500  0.75000  0.19300  1.0000
  O   O7        1.0  0.53200  0.00377  0.22800  1.0000
  O   O8        1.0  0.53200  0.49600  0.22800  1.0000
  O   O9        1.0  0.03230  0.00377  0.27200  1.0000
  O   O10       1.0  0.03230  0.49600  0.27200  1.0000
  O   O11       1.0  0.86500  0.75000  0.30700  1.0000
  O   O12       1.0  0.37100  0.25000  0.36200  1.0000
  O   O13       1.0  0.70400  0.01390  0.39000  1.0000
  O   O14       1.0  0.70400  0.48600  0.39000  1.0000
  O   O15       1.0  0.17800  0.25000  0.39000  1.0000
  O   O16       1.0  0.44900  0.75000  0.49400  1.0000
  O   O17       1.0  0.55100  0.25000  0.50600  1.0000
  O   O18       1.0  0.82200  0.75000  0.61000  1.0000
  O   O19       1.0  0.29600  0.51400  0.61000  1.0000
  O   O20       1.0  0.29600  0.98600  0.61000  1.0000
  O   O21       1.0  0.62900  0.75000  0.63800  1.0000
  O   O22       1.0  0.13500  0.25000  0.69300  1.0000
  O   O23       1.0  0.96800  0.50400  0.72800  1.0000
  O   O24       1.0  0.96800  0.99600  0.72800  1.0000
  O   O25       1.0  0.46800  0.50400  0.77200  1.0000
  O   O26       1.0  0.46800  0.99600  0.77200  1.0000
  O   O27       1.0  0.63500  0.25000  0.80700  1.0000
  O   O28       1.0  0.12900  0.75000  0.86200  1.0000
  O   O29       1.0  0.79600  0.51400  0.89000  1.0000
  O   O30       1.0  0.79600  0.98600  0.89000  1.0000
  O   O31       1.0  0.32200  0.75000  0.89000  1.0000
  O   O32       1.0  0.05050  0.25000  0.99400  1.0000
  Tl  Tl1       1.0  0.37900  0.25000  0.05490  1.0000
  Tl  Tl2       1.0  0.87900  0.25000  0.44500  1.0000
  Tl  Tl3       1.0  0.12100  0.75000  0.55500  1.0000
  Tl  Tl4       1.0  0.62100  0.75000  0.94500  1.0000
