data_image0
_chemical_formula_structural       K8Mo8Ni4O32
_chemical_formula_sum              "K8 Mo8 Ni4 O32"
_cell_length_a       10.305
_cell_length_b       8.40453
_cell_length_c       10.8061
_cell_angle_alpha    90
_cell_angle_beta     90
_cell_angle_gamma    114.066

_space_group_name_H-M_alt    "P 1"
_space_group_IT_number       1

loop_
  _space_group_symop_operation_xyz
  'x, y, z'

loop_
  _atom_site_type_symbol
  _atom_site_label
  _atom_site_symmetry_multiplicity
  _atom_site_fract_x
  _atom_site_fract_y
  _atom_site_fract_z
  _atom_site_occupancy
  K   K1        1.0  0.26100  0.63100  0.06920  1.0000
  K   K2        1.0  0.57100  0.03570  0.25000  1.0000
  K   K3        1.0  0.57100  0.53600  0.25000  1.0000
  K   K4        1.0  0.26100  0.13100  0.43100  1.0000
  K   K5        1.0  0.73900  0.86900  0.56900  1.0000
  K   K6        1.0  0.42900  0.46400  0.75000  1.0000
  K   K7        1.0  0.42900  0.96400  0.75000  1.0000
  K   K8        1.0  0.73900  0.36900  0.93100  1.0000
  Mo  Mo1       1.0  0.31500  0.15800  0.03520  1.0000
  Mo  Mo2       1.0  0.93600  0.46800  0.21700  1.0000
  Mo  Mo3       1.0  0.93600  0.96800  0.28300  1.0000
  Mo  Mo4       1.0  0.31500  0.65800  0.46500  1.0000
  Mo  Mo5       1.0  0.68500  0.34200  0.53500  1.0000
  Mo  Mo6       1.0  0.06410  0.03210  0.71700  1.0000
  Mo  Mo7       1.0  0.06410  0.53200  0.78300  1.0000
  Mo  Mo8       1.0  0.68500  0.84200  0.96500  1.0000
  Ni  Ni1       1.0  0.00000  0.17900  0.00000  1.0000
  Ni  Ni2       1.0  0.00000  0.82100  0.00000  1.0000
  Ni  Ni3       1.0  0.00000  0.32100  0.50000  1.0000
  Ni  Ni4       1.0  0.00000  0.67900  0.50000  1.0000
  O   O1        1.0  0.78000  0.07050  0.00160  1.0000
  O   O2        1.0  0.78000  0.71000  0.00160  1.0000
  O   O3        1.0  0.53000  0.76500  0.05850  1.0000
  O   O4        1.0  0.00587  0.00293  0.12500  1.0000
  O   O5        1.0  0.00493  0.33700  0.13600  1.0000
  O   O6        1.0  0.00493  0.66800  0.13600  1.0000
  O   O7        1.0  0.37100  0.18500  0.19300  1.0000
  O   O8        1.0  0.74800  0.37400  0.20700  1.0000
  O   O9        1.0  0.74800  0.87400  0.29300  1.0000
  O   O10       1.0  0.37100  0.68500  0.30700  1.0000
  O   O11       1.0  0.00493  0.16800  0.36400  1.0000
  O   O12       1.0  0.00493  0.83700  0.36400  1.0000
  O   O13       1.0  0.00587  0.50300  0.37500  1.0000
  O   O14       1.0  0.53000  0.26500  0.44100  1.0000
  O   O15       1.0  0.78000  0.21000  0.49800  1.0000
  O   O16       1.0  0.78000  0.57000  0.49800  1.0000
  O   O17       1.0  0.22000  0.43000  0.50200  1.0000
  O   O18       1.0  0.22000  0.79000  0.50200  1.0000
  O   O19       1.0  0.47000  0.73500  0.55900  1.0000
  O   O20       1.0  0.99400  0.49700  0.62500  1.0000
  O   O21       1.0  0.99500  0.16300  0.63600  1.0000
  O   O22       1.0  0.99500  0.83200  0.63600  1.0000
  O   O23       1.0  0.62900  0.31500  0.69300  1.0000
  O   O24       1.0  0.25200  0.12600  0.70700  1.0000
  O   O25       1.0  0.25200  0.62600  0.79300  1.0000
  O   O26       1.0  0.62900  0.81500  0.80700  1.0000
  O   O27       1.0  0.99500  0.33200  0.86400  1.0000
  O   O28       1.0  0.99500  0.66300  0.86400  1.0000
  O   O29       1.0  0.99400  0.99700  0.87500  1.0000
  O   O30       1.0  0.47000  0.23500  0.94100  1.0000
  O   O31       1.0  0.22000  0.29000  0.99800  1.0000
  O   O32       1.0  0.22000  0.93000  0.99800  1.0000
