data_image0
_chemical_formula_structural       B8Ge4Nd8O32
_chemical_formula_sum              "B8 Ge4 Nd8 O32"
_cell_length_a       13.7245
_cell_length_b       4.46819
_cell_length_c       9.43898
_cell_angle_alpha    90
_cell_angle_beta     90
_cell_angle_gamma    90

_space_group_name_H-M_alt    "P 1"
_space_group_IT_number       1

loop_
  _space_group_symop_operation_xyz
  'x, y, z'

loop_
  _atom_site_type_symbol
  _atom_site_label
  _atom_site_symmetry_multiplicity
  _atom_site_fract_x
  _atom_site_fract_y
  _atom_site_fract_z
  _atom_site_occupancy
  B   B1        1.0  0.20000  0.46600  0.20400  1.0000
  B   B2        1.0  0.30000  0.96600  0.20400  1.0000
  B   B3        1.0  0.80000  0.46600  0.29600  1.0000
  B   B4        1.0  0.70000  0.96600  0.29600  1.0000
  B   B5        1.0  0.30000  0.03390  0.70400  1.0000
  B   B6        1.0  0.20000  0.53400  0.70400  1.0000
  B   B7        1.0  0.70000  0.03390  0.79600  1.0000
  B   B8        1.0  0.80000  0.53400  0.79600  1.0000
  Ge  Ge1       1.0  0.50000  0.07260  0.25000  1.0000
  Ge  Ge2       1.0  0.00000  0.57300  0.25000  1.0000
  Ge  Ge3       1.0  0.00000  0.42700  0.75000  1.0000
  Ge  Ge4       1.0  0.50000  0.92700  0.75000  1.0000
  Nd  Nd1       1.0  0.86000  0.04040  0.02490  1.0000
  Nd  Nd2       1.0  0.64000  0.54000  0.02490  1.0000
  Nd  Nd3       1.0  0.14000  0.04040  0.47500  1.0000
  Nd  Nd4       1.0  0.36000  0.54000  0.47500  1.0000
  Nd  Nd5       1.0  0.64000  0.46000  0.52500  1.0000
  Nd  Nd6       1.0  0.86000  0.96000  0.52500  1.0000
  Nd  Nd7       1.0  0.36000  0.46000  0.97500  1.0000
  Nd  Nd8       1.0  0.14000  0.96000  0.97500  1.0000
  O   O1        1.0  0.19200  0.46200  0.05230  1.0000
  O   O2        1.0  0.30800  0.96200  0.05230  1.0000
  O   O3        1.0  0.49600  0.29200  0.09880  1.0000
  O   O4        1.0  0.00418  0.79200  0.09880  1.0000
  O   O5        1.0  0.89300  0.34200  0.23400  1.0000
  O   O6        1.0  0.60700  0.84200  0.23400  1.0000
  O   O7        1.0  0.71800  0.27500  0.24000  1.0000
  O   O8        1.0  0.78200  0.77500  0.24000  1.0000
  O   O9        1.0  0.28200  0.27500  0.26000  1.0000
  O   O10       1.0  0.21800  0.77500  0.26000  1.0000
  O   O11       1.0  0.10700  0.34200  0.26600  1.0000
  O   O12       1.0  0.39300  0.84200  0.26600  1.0000
  O   O13       1.0  0.50400  0.29200  0.40100  1.0000
  O   O14       1.0  0.99600  0.79200  0.40100  1.0000
  O   O15       1.0  0.80800  0.46200  0.44800  1.0000
  O   O16       1.0  0.69200  0.96200  0.44800  1.0000
  O   O17       1.0  0.30800  0.03810  0.55200  1.0000
  O   O18       1.0  0.19200  0.53800  0.55200  1.0000
  O   O19       1.0  0.00418  0.20800  0.59900  1.0000
  O   O20       1.0  0.49600  0.70800  0.59900  1.0000
  O   O21       1.0  0.60700  0.15800  0.73400  1.0000
  O   O22       1.0  0.89300  0.65800  0.73400  1.0000
  O   O23       1.0  0.78200  0.22500  0.74000  1.0000
  O   O24       1.0  0.71800  0.72500  0.74000  1.0000
  O   O25       1.0  0.21800  0.22500  0.76000  1.0000
  O   O26       1.0  0.28200  0.72500  0.76000  1.0000
  O   O27       1.0  0.39300  0.15800  0.76600  1.0000
  O   O28       1.0  0.10700  0.65800  0.76600  1.0000
  O   O29       1.0  0.99600  0.20800  0.90100  1.0000
  O   O30       1.0  0.50400  0.70800  0.90100  1.0000
  O   O31       1.0  0.69200  0.03810  0.94800  1.0000
  O   O32       1.0  0.80800  0.53800  0.94800  1.0000
