data_image0
_chemical_formula_structural       C16Cs4Cu12N16
_chemical_formula_sum              "C16 Cs4 Cu12 N16"
_cell_length_a       6.67737
_cell_length_b       10.0636
_cell_length_c       13.0319
_cell_angle_alpha    90
_cell_angle_beta     98.5444
_cell_angle_gamma    90

_space_group_name_H-M_alt    "P 1"
_space_group_IT_number       1

loop_
  _space_group_symop_operation_xyz
  'x, y, z'

loop_
  _atom_site_type_symbol
  _atom_site_label
  _atom_site_symmetry_multiplicity
  _atom_site_fract_x
  _atom_site_fract_y
  _atom_site_fract_z
  _atom_site_occupancy
  C   C1        1.0  0.75100  0.44500  0.01170  1.0000
  C   C2        1.0  0.37800  0.89000  0.07650  1.0000
  C   C3        1.0  0.31100  0.29300  0.13900  1.0000
  C   C4        1.0  0.84900  0.08110  0.18200  1.0000
  C   C5        1.0  0.65100  0.58100  0.31800  1.0000
  C   C6        1.0  0.18900  0.79300  0.36100  1.0000
  C   C7        1.0  0.12200  0.39000  0.42400  1.0000
  C   C8        1.0  0.74900  0.94500  0.48800  1.0000
  C   C9        1.0  0.25100  0.05530  0.51200  1.0000
  C   C10       1.0  0.87800  0.61000  0.57600  1.0000
  C   C11       1.0  0.81100  0.20700  0.63900  1.0000
  C   C12       1.0  0.34900  0.41900  0.68200  1.0000
  C   C13       1.0  0.15100  0.91900  0.81800  1.0000
  C   C14       1.0  0.68900  0.70700  0.86100  1.0000
  C   C15       1.0  0.62200  0.11000  0.92400  1.0000
  C   C16       1.0  0.24900  0.55500  0.98800  1.0000
  Cs  Cs1       1.0  0.89500  0.75800  0.11900  1.0000
  Cs  Cs2       1.0  0.60500  0.25800  0.38100  1.0000
  Cs  Cs3       1.0  0.39500  0.74200  0.61900  1.0000
  Cs  Cs4       1.0  0.10500  0.24200  0.88100  1.0000
  Cu  Cu1       1.0  0.65400  0.12300  0.06840  1.0000
  Cu  Cu2       1.0  0.39000  0.50700  0.11500  1.0000
  Cu  Cu3       1.0  0.08420  0.36600  0.18700  1.0000
  Cu  Cu4       1.0  0.41600  0.86600  0.31300  1.0000
  Cu  Cu5       1.0  0.11000  0.00683  0.38500  1.0000
  Cu  Cu6       1.0  0.84600  0.62300  0.43200  1.0000
  Cu  Cu7       1.0  0.15400  0.37700  0.56800  1.0000
  Cu  Cu8       1.0  0.89000  0.99300  0.61500  1.0000
  Cu  Cu9       1.0  0.58400  0.13400  0.68700  1.0000
  Cu  Cu10      1.0  0.91600  0.63400  0.81300  1.0000
  Cu  Cu11      1.0  0.61000  0.49300  0.88500  1.0000
  Cu  Cu12      1.0  0.34600  0.87700  0.93200  1.0000
  N   N1        1.0  0.86100  0.41500  0.08770  1.0000
  N   N2        1.0  0.43400  0.22100  0.11300  1.0000
  N   N3        1.0  0.40700  0.88500  0.16800  1.0000
  N   N4        1.0  0.54600  0.55300  0.24000  1.0000
  N   N5        1.0  0.95400  0.05330  0.26000  1.0000
  N   N6        1.0  0.09310  0.38500  0.33200  1.0000
  N   N7        1.0  0.06620  0.72100  0.38700  1.0000
  N   N8        1.0  0.63900  0.91500  0.41200  1.0000
  N   N9        1.0  0.36100  0.08500  0.58800  1.0000
  N   N10       1.0  0.93400  0.27900  0.61300  1.0000
  N   N11       1.0  0.90700  0.61500  0.66800  1.0000
  N   N12       1.0  0.04590  0.94700  0.74000  1.0000
  N   N13       1.0  0.45400  0.44700  0.76000  1.0000
  N   N14       1.0  0.59300  0.11500  0.83200  1.0000
  N   N15       1.0  0.56600  0.77900  0.88700  1.0000
  N   N16       1.0  0.13900  0.58500  0.91200  1.0000
