data_image0
_chemical_formula_structural       Fe4H16O24P4
_chemical_formula_sum              "Fe4 H16 O24 P4"
_cell_length_a       5.35666
_cell_length_b       8.76823
_cell_length_c       8.06758
_cell_angle_alpha    90
_cell_angle_beta     91.2909
_cell_angle_gamma    90

_space_group_name_H-M_alt    "P 1"
_space_group_IT_number       1

loop_
  _space_group_symop_operation_xyz
  'x, y, z'

loop_
  _atom_site_type_symbol
  _atom_site_label
  _atom_site_symmetry_multiplicity
  _atom_site_fract_x
  _atom_site_fract_y
  _atom_site_fract_z
  _atom_site_occupancy
  Fe  Fe1       1.0  0.10800  0.77000  0.13100  1.0000
  Fe  Fe2       1.0  0.39200  0.27000  0.36900  1.0000
  Fe  Fe3       1.0  0.89200  0.23000  0.86900  1.0000
  Fe  Fe4       1.0  0.60800  0.73000  0.63100  1.0000
  H   H1        1.0  0.29700  0.33500  0.04520  1.0000
  H   H2        1.0  0.20300  0.83500  0.45500  1.0000
  H   H3        1.0  0.70300  0.66500  0.95500  1.0000
  H   H4        1.0  0.79700  0.16500  0.54500  1.0000
  H   H5        1.0  0.14000  0.49500  0.27000  1.0000
  H   H6        1.0  0.35900  0.99500  0.23000  1.0000
  H   H7        1.0  0.85900  0.50500  0.73000  1.0000
  H   H8        1.0  0.64000  0.00483  0.77000  1.0000
  H   H9        1.0  0.93000  0.41100  0.37500  1.0000
  H   H10       1.0  0.57000  0.91100  0.12500  1.0000
  H   H11       1.0  0.06950  0.58900  0.62500  1.0000
  H   H12       1.0  0.43000  0.08870  0.87500  1.0000
  H   H13       1.0  0.57500  0.28100  0.09410  1.0000
  H   H14       1.0  0.92500  0.78100  0.40600  1.0000
  H   H15       1.0  0.42500  0.71900  0.90600  1.0000
  H   H16       1.0  0.07500  0.21900  0.59400  1.0000
  O   O1        1.0  0.38500  0.92300  0.13800  1.0000
  O   O2        1.0  0.11500  0.42300  0.36200  1.0000
  O   O3        1.0  0.61500  0.07680  0.86200  1.0000
  O   O4        1.0  0.88500  0.57700  0.63800  1.0000
  O   O5        1.0  0.39600  0.26500  0.11800  1.0000
  O   O6        1.0  0.10400  0.76500  0.38200  1.0000
  O   O7        1.0  0.60400  0.73500  0.88200  1.0000
  O   O8        1.0  0.89600  0.23500  0.61800  1.0000
  O   O9        1.0  0.11500  0.77100  0.88800  1.0000
  O   O10       1.0  0.38500  0.27100  0.61200  1.0000
  O   O11       1.0  0.88500  0.22900  0.11200  1.0000
  O   O12       1.0  0.61500  0.72900  0.38800  1.0000
  O   O13       1.0  0.36100  0.60300  0.15200  1.0000
  O   O14       1.0  0.13900  0.10300  0.34800  1.0000
  O   O15       1.0  0.63900  0.39700  0.84800  1.0000
  O   O16       1.0  0.86100  0.89700  0.65200  1.0000
  O   O17       1.0  0.87100  0.94300  0.15300  1.0000
  O   O18       1.0  0.62900  0.44300  0.34700  1.0000
  O   O19       1.0  0.12900  0.05720  0.84700  1.0000
  O   O20       1.0  0.37100  0.55700  0.65300  1.0000
  O   O21       1.0  0.83100  0.61700  0.14200  1.0000
  O   O22       1.0  0.66900  0.11700  0.35800  1.0000
  O   O23       1.0  0.16900  0.38300  0.85800  1.0000
  O   O24       1.0  0.33100  0.88300  0.64200  1.0000
  P   P1        1.0  0.89400  0.09830  0.24200  1.0000
  P   P2        1.0  0.60600  0.59800  0.25800  1.0000
  P   P3        1.0  0.10600  0.90200  0.75800  1.0000
  P   P4        1.0  0.39400  0.40200  0.74200  1.0000
