data_image0
_chemical_formula_structural       K4Nb8P4S40
_chemical_formula_sum              "K4 Nb8 P4 S40"
_cell_length_a       13.0846
_cell_length_b       7.63265
_cell_length_c       13.5246
_cell_angle_alpha    90
_cell_angle_beta     90
_cell_angle_gamma    90

_space_group_name_H-M_alt    "P 1"
_space_group_IT_number       1

loop_
  _space_group_symop_operation_xyz
  'x, y, z'

loop_
  _atom_site_type_symbol
  _atom_site_label
  _atom_site_symmetry_multiplicity
  _atom_site_fract_x
  _atom_site_fract_y
  _atom_site_fract_z
  _atom_site_occupancy
  K   K1        1.0  0.88200  0.49600  0.30200  1.0000
  K   K2        1.0  0.38200  0.50400  0.30200  1.0000
  K   K3        1.0  0.61800  0.49600  0.80200  1.0000
  K   K4        1.0  0.11800  0.50400  0.80200  1.0000
  Nb  Nb1       1.0  0.02400  0.05280  0.03500  1.0000
  Nb  Nb2       1.0  0.52400  0.94700  0.03500  1.0000
  Nb  Nb3       1.0  0.31400  0.07090  0.03580  1.0000
  Nb  Nb4       1.0  0.81400  0.92900  0.03580  1.0000
  Nb  Nb5       1.0  0.47600  0.05280  0.53500  1.0000
  Nb  Nb6       1.0  0.97600  0.94700  0.53500  1.0000
  Nb  Nb7       1.0  0.18600  0.07090  0.53600  1.0000
  Nb  Nb8       1.0  0.68600  0.92900  0.53600  1.0000
  P   P1        1.0  0.16000  0.39900  0.11100  1.0000
  P   P2        1.0  0.66000  0.60100  0.11100  1.0000
  P   P3        1.0  0.34000  0.39900  0.61100  1.0000
  P   P4        1.0  0.84000  0.60100  0.61100  1.0000
  S   S1        1.0  0.67400  0.15800  0.00142  1.0000
  S   S2        1.0  0.17400  0.84200  0.00142  1.0000
  S   S3        1.0  0.03150  0.39200  0.02250  1.0000
  S   S4        1.0  0.53100  0.60800  0.02250  1.0000
  S   S5        1.0  0.29300  0.40800  0.02850  1.0000
  S   S6        1.0  0.79300  0.59200  0.02850  1.0000
  S   S7        1.0  0.16700  0.14100  0.16500  1.0000
  S   S8        1.0  0.66700  0.85900  0.16500  1.0000
  S   S9        1.0  0.89100  0.11700  0.16600  1.0000
  S   S10       1.0  0.39100  0.88300  0.16600  1.0000
  S   S11       1.0  0.44900  0.13200  0.17000  1.0000
  S   S12       1.0  0.94900  0.86800  0.17000  1.0000
  S   S13       1.0  0.65200  0.41800  0.21500  1.0000
  S   S14       1.0  0.15200  0.58200  0.21500  1.0000
  S   S15       1.0  0.60100  0.10400  0.40000  1.0000
  S   S16       1.0  0.10100  0.89600  0.40000  1.0000
  S   S17       1.0  0.33100  0.05230  0.40700  1.0000
  S   S18       1.0  0.83100  0.94800  0.40700  1.0000
  S   S19       1.0  0.05560  0.14900  0.40900  1.0000
  S   S20       1.0  0.55600  0.85100  0.40900  1.0000
  S   S21       1.0  0.82600  0.15800  0.50100  1.0000
  S   S22       1.0  0.32600  0.84200  0.50100  1.0000
  S   S23       1.0  0.46900  0.39200  0.52300  1.0000
  S   S24       1.0  0.96900  0.60800  0.52300  1.0000
  S   S25       1.0  0.20700  0.40800  0.52900  1.0000
  S   S26       1.0  0.70700  0.59200  0.52900  1.0000
  S   S27       1.0  0.33300  0.14100  0.66500  1.0000
  S   S28       1.0  0.83300  0.85900  0.66500  1.0000
  S   S29       1.0  0.60900  0.11700  0.66600  1.0000
  S   S30       1.0  0.10900  0.88300  0.66600  1.0000
  S   S31       1.0  0.05140  0.13200  0.67000  1.0000
  S   S32       1.0  0.55100  0.86800  0.67000  1.0000
  S   S33       1.0  0.84800  0.41800  0.71500  1.0000
  S   S34       1.0  0.34800  0.58200  0.71500  1.0000
  S   S35       1.0  0.89900  0.10400  0.90000  1.0000
  S   S36       1.0  0.39900  0.89600  0.90000  1.0000
  S   S37       1.0  0.16900  0.05230  0.90700  1.0000
  S   S38       1.0  0.66900  0.94800  0.90700  1.0000
  S   S39       1.0  0.44400  0.14900  0.90900  1.0000
  S   S40       1.0  0.94400  0.85100  0.90900  1.0000
