data_image0
_chemical_formula_structural       Al4As12Cl16Se16
_chemical_formula_sum              "Al4 As12 Cl16 Se16"
_cell_length_a       12.3264
_cell_length_b       12.3264
_cell_length_c       13.0805
_cell_angle_alpha    96.8702
_cell_angle_beta     112.731
_cell_angle_gamma    117.582

_space_group_name_H-M_alt    "P 1"
_space_group_IT_number       1

loop_
  _space_group_symop_operation_xyz
  'x, y, z'

loop_
  _atom_site_type_symbol
  _atom_site_label
  _atom_site_symmetry_multiplicity
  _atom_site_fract_x
  _atom_site_fract_y
  _atom_site_fract_z
  _atom_site_occupancy
  Al  Al1       1.0  0.76600  0.23000  0.07810  1.0000
  Al  Al2       1.0  0.65200  0.68800  0.42200  1.0000
  Al  Al3       1.0  0.34800  0.31200  0.57800  1.0000
  Al  Al4       1.0  0.23400  0.77000  0.92200  1.0000
  As  As1       1.0  0.84500  0.62100  0.05570  1.0000
  As  As2       1.0  0.71200  0.83900  0.07410  1.0000
  As  As3       1.0  0.18900  0.30300  0.11800  1.0000
  As  As4       1.0  0.68600  0.07160  0.38200  1.0000
  As  As5       1.0  0.26500  0.63800  0.42600  1.0000
  As  As6       1.0  0.06550  0.78900  0.44400  1.0000
  As  As7       1.0  0.93400  0.21100  0.55600  1.0000
  As  As8       1.0  0.73500  0.36200  0.57400  1.0000
  As  As9       1.0  0.31400  0.92800  0.61800  1.0000
  As  As10      1.0  0.81100  0.69700  0.88200  1.0000
  As  As11      1.0  0.28800  0.16100  0.92600  1.0000
  As  As12      1.0  0.15500  0.37900  0.94400  1.0000
  Cl  Cl1       1.0  0.93800  0.36600  0.05360  1.0000
  Cl  Cl2       1.0  0.37600  0.95000  0.07440  1.0000
  Cl  Cl3       1.0  0.66100  0.32200  0.09940  1.0000
  Cl  Cl4       1.0  0.86200  0.19400  0.23700  1.0000
  Cl  Cl5       1.0  0.45700  0.62500  0.26300  1.0000
  Cl  Cl6       1.0  0.72300  0.56200  0.40100  1.0000
  Cl  Cl7       1.0  0.37600  0.30200  0.42600  1.0000
  Cl  Cl8       1.0  0.81200  0.88400  0.44600  1.0000
  Cl  Cl9       1.0  0.18800  0.11600  0.55400  1.0000
  Cl  Cl10      1.0  0.62400  0.69800  0.57400  1.0000
  Cl  Cl11      1.0  0.27700  0.43800  0.59900  1.0000
  Cl  Cl12      1.0  0.54300  0.37500  0.73700  1.0000
  Cl  Cl13      1.0  0.13800  0.80600  0.76300  1.0000
  Cl  Cl14      1.0  0.33900  0.67800  0.90100  1.0000
  Cl  Cl15      1.0  0.62400  0.04970  0.92600  1.0000
  Cl  Cl16      1.0  0.06240  0.63400  0.94600  1.0000
  Se  Se1       1.0  0.02670  0.85500  0.08800  1.0000
  Se  Se2       1.0  0.71100  0.65700  0.12500  1.0000
  Se  Se3       1.0  0.33300  0.22600  0.12700  1.0000
  Se  Se4       1.0  0.96900  0.98700  0.16900  1.0000
  Se  Se5       1.0  0.31800  0.80000  0.33100  1.0000
  Se  Se6       1.0  0.59900  0.20600  0.37300  1.0000
  Se  Se7       1.0  0.03200  0.58600  0.37500  1.0000
  Se  Se8       1.0  0.26700  0.93900  0.41200  1.0000
  Se  Se9       1.0  0.73300  0.06140  0.58800  1.0000
  Se  Se10      1.0  0.96800  0.41400  0.62500  1.0000
  Se  Se11      1.0  0.40100  0.79400  0.62700  1.0000
  Se  Se12      1.0  0.68200  0.20000  0.66900  1.0000
  Se  Se13      1.0  0.03120  0.01330  0.83100  1.0000
  Se  Se14      1.0  0.66700  0.77400  0.87300  1.0000
  Se  Se15      1.0  0.28900  0.34300  0.87500  1.0000
  Se  Se16      1.0  0.97300  0.14500  0.91200  1.0000
