data_image0
_chemical_formula_structural       Ni28P20Si8
_chemical_formula_sum              "Ni28 P20 Si8"
_cell_length_a       23.9068
_cell_length_b       5.89912
_cell_length_c       4.91088
_cell_angle_alpha    90
_cell_angle_beta     90
_cell_angle_gamma    90

_space_group_name_H-M_alt    "P 1"
_space_group_IT_number       1

loop_
  _space_group_symop_operation_xyz
  'x, y, z'

loop_
  _atom_site_type_symbol
  _atom_site_label
  _atom_site_symmetry_multiplicity
  _atom_site_fract_x
  _atom_site_fract_y
  _atom_site_fract_z
  _atom_site_occupancy
  Ni  Ni1       1.0  0.00000  0.00000  0.00000  1.0000
  Ni  Ni2       1.0  0.50000  0.50000  0.00000  1.0000
  Ni  Ni3       1.0  0.29400  0.03280  0.00121  1.0000
  Ni  Ni4       1.0  0.20600  0.53300  0.00121  1.0000
  Ni  Ni5       1.0  0.42600  0.04580  0.00145  1.0000
  Ni  Ni6       1.0  0.07390  0.54600  0.00145  1.0000
  Ni  Ni7       1.0  0.86000  0.05180  0.00699  1.0000
  Ni  Ni8       1.0  0.64000  0.55200  0.00699  1.0000
  Ni  Ni9       1.0  0.14000  0.05180  0.49300  1.0000
  Ni  Ni10      1.0  0.36000  0.55200  0.49300  1.0000
  Ni  Ni11      1.0  0.57400  0.04580  0.49900  1.0000
  Ni  Ni12      1.0  0.92600  0.54600  0.49900  1.0000
  Ni  Ni13      1.0  0.70600  0.03280  0.49900  1.0000
  Ni  Ni14      1.0  0.79400  0.53300  0.49900  1.0000
  Ni  Ni15      1.0  0.00000  0.00000  0.50000  1.0000
  Ni  Ni16      1.0  0.50000  0.50000  0.50000  1.0000
  Ni  Ni17      1.0  0.20600  0.46700  0.50100  1.0000
  Ni  Ni18      1.0  0.29400  0.96700  0.50100  1.0000
  Ni  Ni19      1.0  0.07390  0.45400  0.50100  1.0000
  Ni  Ni20      1.0  0.42600  0.95400  0.50100  1.0000
  Ni  Ni21      1.0  0.64000  0.44800  0.50700  1.0000
  Ni  Ni22      1.0  0.86000  0.94800  0.50700  1.0000
  Ni  Ni23      1.0  0.36000  0.44800  0.99300  1.0000
  Ni  Ni24      1.0  0.14000  0.94800  0.99300  1.0000
  Ni  Ni25      1.0  0.92600  0.45400  0.99900  1.0000
  Ni  Ni26      1.0  0.57400  0.95400  0.99900  1.0000
  Ni  Ni27      1.0  0.79400  0.46700  0.99900  1.0000
  Ni  Ni28      1.0  0.70600  0.96700  0.99900  1.0000
  P   P1        1.0  0.64200  0.18600  0.18600  1.0000
  P   P2        1.0  0.85800  0.68600  0.18600  1.0000
  P   P3        1.0  0.07260  0.17800  0.18800  1.0000
  P   P4        1.0  0.42700  0.67800  0.18800  1.0000
  P   P5        1.0  0.50000  0.16800  0.25000  1.0000
  P   P6        1.0  0.00000  0.66800  0.25000  1.0000
  P   P7        1.0  0.92700  0.17800  0.31200  1.0000
  P   P8        1.0  0.57300  0.67800  0.31200  1.0000
  P   P9        1.0  0.35800  0.18600  0.31400  1.0000
  P   P10       1.0  0.14200  0.68600  0.31400  1.0000
  P   P11       1.0  0.85800  0.31400  0.68600  1.0000
  P   P12       1.0  0.64200  0.81400  0.68600  1.0000
  P   P13       1.0  0.42700  0.32200  0.68800  1.0000
  P   P14       1.0  0.07260  0.82200  0.68800  1.0000
  P   P15       1.0  0.00000  0.33200  0.75000  1.0000
  P   P16       1.0  0.50000  0.83200  0.75000  1.0000
  P   P17       1.0  0.57300  0.32200  0.81200  1.0000
  P   P18       1.0  0.92700  0.82200  0.81200  1.0000
  P   P19       1.0  0.14200  0.31400  0.81400  1.0000
  P   P20       1.0  0.35800  0.81400  0.81400  1.0000
  Si  Si1       1.0  0.21700  0.15800  0.22300  1.0000
  Si  Si2       1.0  0.28300  0.65800  0.22300  1.0000
  Si  Si3       1.0  0.78300  0.15800  0.27700  1.0000
  Si  Si4       1.0  0.71700  0.65800  0.27700  1.0000
  Si  Si5       1.0  0.28300  0.34200  0.72300  1.0000
  Si  Si6       1.0  0.21700  0.84200  0.72300  1.0000
  Si  Si7       1.0  0.71700  0.34200  0.77700  1.0000
  Si  Si8       1.0  0.78300  0.84200  0.77700  1.0000
