data_image0
_chemical_formula_structural       Cr8S32Y16
_chemical_formula_sum              "Cr8 S32 Y16"
_cell_length_a       12.5725
_cell_length_b       7.50954
_cell_length_c       12.5571
_cell_angle_alpha    90
_cell_angle_beta     90
_cell_angle_gamma    90

_space_group_name_H-M_alt    "P 1"
_space_group_IT_number       1

loop_
  _space_group_symop_operation_xyz
  'x, y, z'

loop_
  _atom_site_type_symbol
  _atom_site_label
  _atom_site_symmetry_multiplicity
  _atom_site_fract_x
  _atom_site_fract_y
  _atom_site_fract_z
  _atom_site_occupancy
  Cr  Cr1       1.0  0.87100  0.11800  0.17800  1.0000
  Cr  Cr2       1.0  0.37100  0.88200  0.17800  1.0000
  Cr  Cr3       1.0  0.11100  0.38600  0.30600  1.0000
  Cr  Cr4       1.0  0.61100  0.61400  0.30600  1.0000
  Cr  Cr5       1.0  0.62900  0.11800  0.67800  1.0000
  Cr  Cr6       1.0  0.12900  0.88200  0.67800  1.0000
  Cr  Cr7       1.0  0.38900  0.38600  0.80600  1.0000
  Cr  Cr8       1.0  0.88900  0.61400  0.80600  1.0000
  S   S1        1.0  0.79200  0.11700  0.00352  1.0000
  S   S2        1.0  0.29200  0.88300  0.00352  1.0000
  S   S3        1.0  0.50700  0.11400  0.12100  1.0000
  S   S4        1.0  0.00695  0.88600  0.12100  1.0000
  S   S5        1.0  0.02580  0.37500  0.13300  1.0000
  S   S6        1.0  0.52600  0.62500  0.13300  1.0000
  S   S7        1.0  0.73500  0.35600  0.22200  1.0000
  S   S8        1.0  0.23500  0.64400  0.22200  1.0000
  S   S9        1.0  0.22700  0.14100  0.22800  1.0000
  S   S10       1.0  0.72700  0.85900  0.22800  1.0000
  S   S11       1.0  0.94800  0.12300  0.35900  1.0000
  S   S12       1.0  0.44800  0.87700  0.35900  1.0000
  S   S13       1.0  0.47200  0.38600  0.37000  1.0000
  S   S14       1.0  0.97200  0.61400  0.37000  1.0000
  S   S15       1.0  0.21000  0.38300  0.47500  1.0000
  S   S16       1.0  0.71000  0.61700  0.47500  1.0000
  S   S17       1.0  0.70800  0.11700  0.50400  1.0000
  S   S18       1.0  0.20800  0.88300  0.50400  1.0000
  S   S19       1.0  0.99300  0.11400  0.62100  1.0000
  S   S20       1.0  0.49300  0.88600  0.62100  1.0000
  S   S21       1.0  0.47400  0.37500  0.63300  1.0000
  S   S22       1.0  0.97400  0.62500  0.63300  1.0000
  S   S23       1.0  0.76500  0.35600  0.72200  1.0000
  S   S24       1.0  0.26500  0.64400  0.72200  1.0000
  S   S25       1.0  0.27300  0.14100  0.72800  1.0000
  S   S26       1.0  0.77300  0.85900  0.72800  1.0000
  S   S27       1.0  0.55200  0.12300  0.85900  1.0000
  S   S28       1.0  0.05220  0.87700  0.85900  1.0000
  S   S29       1.0  0.02820  0.38600  0.87000  1.0000
  S   S30       1.0  0.52800  0.61400  0.87000  1.0000
  S   S31       1.0  0.29000  0.38300  0.97500  1.0000
  S   S32       1.0  0.79000  0.61700  0.97500  1.0000
  Y   Y1        1.0  0.63500  0.36700  0.00798  1.0000
  Y   Y2        1.0  0.13500  0.63300  0.00798  1.0000
  Y   Y3        1.0  0.13500  0.13300  0.00906  1.0000
  Y   Y4        1.0  0.63500  0.86700  0.00906  1.0000
  Y   Y5        1.0  0.37200  0.38500  0.17400  1.0000
  Y   Y6        1.0  0.87200  0.61500  0.17400  1.0000
  Y   Y7        1.0  0.60600  0.11300  0.31400  1.0000
  Y   Y8        1.0  0.10600  0.88700  0.31400  1.0000
  Y   Y9        1.0  0.86500  0.36700  0.50800  1.0000
  Y   Y10       1.0  0.36500  0.63300  0.50800  1.0000
  Y   Y11       1.0  0.36500  0.13300  0.50900  1.0000
  Y   Y12       1.0  0.86500  0.86700  0.50900  1.0000
  Y   Y13       1.0  0.12800  0.38500  0.67400  1.0000
  Y   Y14       1.0  0.62800  0.61500  0.67400  1.0000
  Y   Y15       1.0  0.89400  0.11300  0.81400  1.0000
  Y   Y16       1.0  0.39400  0.88700  0.81400  1.0000
