data_image0
_chemical_formula_structural       In16Rb16Sb24
_chemical_formula_sum              "In16 Rb16 Sb24"
_cell_length_a       15.7781
_cell_length_b       7.68678
_cell_length_c       17.5572
_cell_angle_alpha    90
_cell_angle_beta     90.5443
_cell_angle_gamma    90

_space_group_name_H-M_alt    "P 1"
_space_group_IT_number       1

loop_
  _space_group_symop_operation_xyz
  'x, y, z'

loop_
  _atom_site_type_symbol
  _atom_site_label
  _atom_site_symmetry_multiplicity
  _atom_site_fract_x
  _atom_site_fract_y
  _atom_site_fract_z
  _atom_site_occupancy
  In  In1       1.0  0.31600  0.72100  0.16900  1.0000
  In  In2       1.0  0.18200  0.23700  0.17700  1.0000
  In  In3       1.0  0.09280  0.71200  0.23000  1.0000
  In  In4       1.0  0.40700  0.23900  0.24100  1.0000
  In  In5       1.0  0.59300  0.73900  0.25900  1.0000
  In  In6       1.0  0.90700  0.21200  0.27000  1.0000
  In  In7       1.0  0.81800  0.73700  0.32300  1.0000
  In  In8       1.0  0.68400  0.22100  0.33100  1.0000
  In  In9       1.0  0.31600  0.77900  0.66900  1.0000
  In  In10      1.0  0.18200  0.26300  0.67700  1.0000
  In  In11      1.0  0.09280  0.78800  0.73000  1.0000
  In  In12      1.0  0.40700  0.26100  0.74100  1.0000
  In  In13      1.0  0.59300  0.76100  0.75900  1.0000
  In  In14      1.0  0.90700  0.28800  0.77000  1.0000
  In  In15      1.0  0.81800  0.76300  0.82300  1.0000
  In  In16      1.0  0.68400  0.27900  0.83100  1.0000
  Rb  Rb1       1.0  0.85800  0.02920  0.00709  1.0000
  Rb  Rb2       1.0  0.65400  0.54600  0.02120  1.0000
  Rb  Rb3       1.0  0.55700  0.05430  0.10200  1.0000
  Rb  Rb4       1.0  0.92300  0.53300  0.11100  1.0000
  Rb  Rb5       1.0  0.07670  0.03250  0.38900  1.0000
  Rb  Rb6       1.0  0.44300  0.55400  0.39800  1.0000
  Rb  Rb7       1.0  0.34600  0.04610  0.47900  1.0000
  Rb  Rb8       1.0  0.14200  0.52900  0.49300  1.0000
  Rb  Rb9       1.0  0.85800  0.47100  0.50700  1.0000
  Rb  Rb10      1.0  0.65400  0.95400  0.52100  1.0000
  Rb  Rb11      1.0  0.55700  0.44600  0.60200  1.0000
  Rb  Rb12      1.0  0.92300  0.96700  0.61100  1.0000
  Rb  Rb13      1.0  0.07670  0.46700  0.88900  1.0000
  Rb  Rb14      1.0  0.44300  0.94600  0.89800  1.0000
  Rb  Rb15      1.0  0.34600  0.45400  0.97900  1.0000
  Rb  Rb16      1.0  0.14200  0.97100  0.99300  1.0000
  Sb  Sb1       1.0  0.16300  0.55500  0.09400  1.0000
  Sb  Sb2       1.0  0.33000  0.06580  0.10900  1.0000
  Sb  Sb3       1.0  0.47700  0.53800  0.16100  1.0000
  Sb  Sb4       1.0  0.02560  0.03710  0.17100  1.0000
  Sb  Sb5       1.0  0.74900  0.83400  0.17400  1.0000
  Sb  Sb6       1.0  0.75200  0.21100  0.17900  1.0000
  Sb  Sb7       1.0  0.24800  0.71100  0.32100  1.0000
  Sb  Sb8       1.0  0.25100  0.33400  0.32600  1.0000
  Sb  Sb9       1.0  0.97400  0.53700  0.32900  1.0000
  Sb  Sb10      1.0  0.52300  0.03840  0.33900  1.0000
  Sb  Sb11      1.0  0.67000  0.56600  0.39100  1.0000
  Sb  Sb12      1.0  0.83700  0.05520  0.40600  1.0000
  Sb  Sb13      1.0  0.16300  0.94500  0.59400  1.0000
  Sb  Sb14      1.0  0.33000  0.43400  0.60900  1.0000
  Sb  Sb15      1.0  0.47700  0.96200  0.66100  1.0000
  Sb  Sb16      1.0  0.02560  0.46300  0.67100  1.0000
  Sb  Sb17      1.0  0.74900  0.66600  0.67400  1.0000
  Sb  Sb18      1.0  0.75200  0.28900  0.67900  1.0000
  Sb  Sb19      1.0  0.24800  0.78900  0.82100  1.0000
  Sb  Sb20      1.0  0.25100  0.16600  0.82600  1.0000
  Sb  Sb21      1.0  0.97400  0.96300  0.82900  1.0000
  Sb  Sb22      1.0  0.52300  0.46200  0.83900  1.0000
  Sb  Sb23      1.0  0.67000  0.93400  0.89100  1.0000
  Sb  Sb24      1.0  0.83700  0.44500  0.90600  1.0000
