data_image0
_chemical_formula_structural       Pd16Sn16Yb24
_chemical_formula_sum              "Pd16 Sn16 Yb24"
_cell_length_a       5.81101
_cell_length_b       16.8794
_cell_length_c       13.8948
_cell_angle_alpha    90
_cell_angle_beta     90
_cell_angle_gamma    90

_space_group_name_H-M_alt    "P 1"
_space_group_IT_number       1

loop_
  _space_group_symop_operation_xyz
  'x, y, z'

loop_
  _atom_site_type_symbol
  _atom_site_label
  _atom_site_symmetry_multiplicity
  _atom_site_fract_x
  _atom_site_fract_y
  _atom_site_fract_z
  _atom_site_occupancy
  Pd  Pd1       1.0  0.03390  0.35500  0.09070  1.0000
  Pd  Pd2       1.0  0.96600  0.85500  0.09070  1.0000
  Pd  Pd3       1.0  0.28000  0.10700  0.09140  1.0000
  Pd  Pd4       1.0  0.72000  0.60700  0.09140  1.0000
  Pd  Pd5       1.0  0.28000  0.10700  0.40900  1.0000
  Pd  Pd6       1.0  0.72000  0.60700  0.40900  1.0000
  Pd  Pd7       1.0  0.03390  0.35500  0.40900  1.0000
  Pd  Pd8       1.0  0.96600  0.85500  0.40900  1.0000
  Pd  Pd9       1.0  0.03390  0.14500  0.59100  1.0000
  Pd  Pd10      1.0  0.96600  0.64500  0.59100  1.0000
  Pd  Pd11      1.0  0.28000  0.39300  0.59100  1.0000
  Pd  Pd12      1.0  0.72000  0.89300  0.59100  1.0000
  Pd  Pd13      1.0  0.28000  0.39300  0.90900  1.0000
  Pd  Pd14      1.0  0.72000  0.89300  0.90900  1.0000
  Pd  Pd15      1.0  0.03390  0.14500  0.90900  1.0000
  Pd  Pd16      1.0  0.96600  0.64500  0.90900  1.0000
  Sn  Sn1       1.0  0.00000  0.00000  0.00000  1.0000
  Sn  Sn2       1.0  0.32400  0.25000  0.00000  1.0000
  Sn  Sn3       1.0  0.00000  0.50000  0.00000  1.0000
  Sn  Sn4       1.0  0.67600  0.75000  0.00000  1.0000
  Sn  Sn5       1.0  0.52400  0.07190  0.25000  1.0000
  Sn  Sn6       1.0  0.78500  0.32200  0.25000  1.0000
  Sn  Sn7       1.0  0.47600  0.57200  0.25000  1.0000
  Sn  Sn8       1.0  0.21500  0.82200  0.25000  1.0000
  Sn  Sn9       1.0  0.00000  0.00000  0.50000  1.0000
  Sn  Sn10      1.0  0.32400  0.25000  0.50000  1.0000
  Sn  Sn11      1.0  0.00000  0.50000  0.50000  1.0000
  Sn  Sn12      1.0  0.67600  0.75000  0.50000  1.0000
  Sn  Sn13      1.0  0.78500  0.17800  0.75000  1.0000
  Sn  Sn14      1.0  0.52400  0.42800  0.75000  1.0000
  Sn  Sn15      1.0  0.21500  0.67800  0.75000  1.0000
  Sn  Sn16      1.0  0.47600  0.92800  0.75000  1.0000
  Yb  Yb1       1.0  0.81100  0.17700  0.09550  1.0000
  Yb  Yb2       1.0  0.18900  0.67700  0.09550  1.0000
  Yb  Yb3       1.0  0.49800  0.42700  0.09720  1.0000
  Yb  Yb4       1.0  0.50200  0.92700  0.09720  1.0000
  Yb  Yb5       1.0  0.28900  0.24600  0.25000  1.0000
  Yb  Yb6       1.0  0.97700  0.49800  0.25000  1.0000
  Yb  Yb7       1.0  0.71100  0.74600  0.25000  1.0000
  Yb  Yb8       1.0  0.02340  0.99800  0.25000  1.0000
  Yb  Yb9       1.0  0.49800  0.42700  0.40300  1.0000
  Yb  Yb10      1.0  0.50200  0.92700  0.40300  1.0000
  Yb  Yb11      1.0  0.81100  0.17700  0.40400  1.0000
  Yb  Yb12      1.0  0.18900  0.67700  0.40400  1.0000
  Yb  Yb13      1.0  0.81100  0.32300  0.59600  1.0000
  Yb  Yb14      1.0  0.18900  0.82300  0.59600  1.0000
  Yb  Yb15      1.0  0.49800  0.07300  0.59700  1.0000
  Yb  Yb16      1.0  0.50200  0.57300  0.59700  1.0000
  Yb  Yb17      1.0  0.97700  0.00222  0.75000  1.0000
  Yb  Yb18      1.0  0.28900  0.25400  0.75000  1.0000
  Yb  Yb19      1.0  0.02340  0.50200  0.75000  1.0000
  Yb  Yb20      1.0  0.71100  0.75400  0.75000  1.0000
  Yb  Yb21      1.0  0.49800  0.07300  0.90300  1.0000
  Yb  Yb22      1.0  0.50200  0.57300  0.90300  1.0000
  Yb  Yb23      1.0  0.81100  0.32300  0.90400  1.0000
  Yb  Yb24      1.0  0.18900  0.82300  0.90400  1.0000
