data_image0
_chemical_formula_structural       Cl4O32Si8Y12
_chemical_formula_sum              "Cl4 O32 Si8 Y12"
_cell_length_a       6.85957
_cell_length_b       17.7091
_cell_length_c       6.1807
_cell_angle_alpha    90
_cell_angle_beta     90
_cell_angle_gamma    90

_space_group_name_H-M_alt    "P 1"
_space_group_IT_number       1

loop_
  _space_group_symop_operation_xyz
  'x, y, z'

loop_
  _atom_site_type_symbol
  _atom_site_label
  _atom_site_symmetry_multiplicity
  _atom_site_fract_x
  _atom_site_fract_y
  _atom_site_fract_z
  _atom_site_occupancy
  Cl  Cl1       1.0  0.04280  0.25000  0.24000  1.0000
  Cl  Cl2       1.0  0.54300  0.25000  0.26000  1.0000
  Cl  Cl3       1.0  0.45700  0.75000  0.74000  1.0000
  Cl  Cl4       1.0  0.95700  0.75000  0.76000  1.0000
  O   O1        1.0  0.33300  0.11900  0.03170  1.0000
  O   O2        1.0  0.33300  0.38100  0.03170  1.0000
  O   O3        1.0  0.69800  0.09520  0.05400  1.0000
  O   O4        1.0  0.69800  0.40500  0.05400  1.0000
  O   O5        1.0  0.98800  0.53000  0.21000  1.0000
  O   O6        1.0  0.98800  0.97000  0.21000  1.0000
  O   O7        1.0  0.96700  0.67600  0.22100  1.0000
  O   O8        1.0  0.96700  0.82400  0.22100  1.0000
  O   O9        1.0  0.46700  0.67600  0.27900  1.0000
  O   O10       1.0  0.46700  0.82400  0.27900  1.0000
  O   O11       1.0  0.48800  0.53000  0.29000  1.0000
  O   O12       1.0  0.48800  0.97000  0.29000  1.0000
  O   O13       1.0  0.19800  0.09520  0.44600  1.0000
  O   O14       1.0  0.19800  0.40500  0.44600  1.0000
  O   O15       1.0  0.83300  0.11900  0.46800  1.0000
  O   O16       1.0  0.83300  0.38100  0.46800  1.0000
  O   O17       1.0  0.16700  0.61900  0.53200  1.0000
  O   O18       1.0  0.16700  0.88100  0.53200  1.0000
  O   O19       1.0  0.80200  0.59500  0.55400  1.0000
  O   O20       1.0  0.80200  0.90500  0.55400  1.0000
  O   O21       1.0  0.51200  0.02970  0.71000  1.0000
  O   O22       1.0  0.51200  0.47000  0.71000  1.0000
  O   O23       1.0  0.53300  0.17600  0.72100  1.0000
  O   O24       1.0  0.53300  0.32400  0.72100  1.0000
  O   O25       1.0  0.03330  0.17600  0.77900  1.0000
  O   O26       1.0  0.03330  0.32400  0.77900  1.0000
  O   O27       1.0  0.01180  0.02970  0.79000  1.0000
  O   O28       1.0  0.01180  0.47000  0.79000  1.0000
  O   O29       1.0  0.30200  0.59500  0.94600  1.0000
  O   O30       1.0  0.30200  0.90500  0.94600  1.0000
  O   O31       1.0  0.66700  0.61900  0.96800  1.0000
  O   O32       1.0  0.66700  0.88100  0.96800  1.0000
  Si  Si1       1.0  0.47600  0.60000  0.12200  1.0000
  Si  Si2       1.0  0.47600  0.90000  0.12200  1.0000
  Si  Si3       1.0  0.97600  0.60000  0.37800  1.0000
  Si  Si4       1.0  0.97600  0.90000  0.37800  1.0000
  Si  Si5       1.0  0.02370  0.09960  0.62200  1.0000
  Si  Si6       1.0  0.02370  0.40000  0.62200  1.0000
  Si  Si7       1.0  0.52400  0.09960  0.87800  1.0000
  Si  Si8       1.0  0.52400  0.40000  0.87800  1.0000
  Y   Y1        1.0  0.70500  0.75000  0.11400  1.0000
  Y   Y2        1.0  0.01490  0.09140  0.12700  1.0000
  Y   Y3        1.0  0.01490  0.40900  0.12700  1.0000
  Y   Y4        1.0  0.51500  0.09140  0.37300  1.0000
  Y   Y5        1.0  0.51500  0.40900  0.37300  1.0000
  Y   Y6        1.0  0.20500  0.75000  0.38600  1.0000
  Y   Y7        1.0  0.79500  0.25000  0.61400  1.0000
  Y   Y8        1.0  0.48500  0.59100  0.62700  1.0000
  Y   Y9        1.0  0.48500  0.90900  0.62700  1.0000
  Y   Y10       1.0  0.98500  0.59100  0.87300  1.0000
  Y   Y11       1.0  0.98500  0.90900  0.87300  1.0000
  Y   Y12       1.0  0.29500  0.25000  0.88600  1.0000
