data_image0
_chemical_formula_structural       B2Mg16Pt8
_chemical_formula_sum              "B2 Mg16 Pt8"
_cell_length_a       8.69854
_cell_length_b       8.69854
_cell_length_c       8.69854
_cell_angle_alpha    120
_cell_angle_beta     90
_cell_angle_gamma    120

_space_group_name_H-M_alt    "P 1"
_space_group_IT_number       1

loop_
  _space_group_symop_operation_xyz
  'x, y, z'

loop_
  _atom_site_type_symbol
  _atom_site_label
  _atom_site_symmetry_multiplicity
  _atom_site_fract_x
  _atom_site_fract_y
  _atom_site_fract_z
  _atom_site_occupancy
  B   B1        1.0  0.37500  0.75000  0.12500  1.0000
  B   B2        1.0  0.62500  0.25000  0.87500  1.0000
  Mg  Mg1       1.0  0.50000  0.00000  0.00000  1.0000
  Mg  Mg2       1.0  0.00000  0.50000  0.00000  1.0000
  Mg  Mg3       1.0  0.50000  0.50000  0.00000  1.0000
  Mg  Mg4       1.0  0.92500  0.25000  0.17500  1.0000
  Mg  Mg5       1.0  0.92500  0.85000  0.17500  1.0000
  Mg  Mg6       1.0  0.32500  0.25000  0.17500  1.0000
  Mg  Mg7       1.0  0.67500  0.35000  0.42500  1.0000
  Mg  Mg8       1.0  0.07480  0.75000  0.42500  1.0000
  Mg  Mg9       1.0  0.67500  0.75000  0.42500  1.0000
  Mg  Mg10      1.0  0.50000  0.00000  0.50000  1.0000
  Mg  Mg11      1.0  0.92500  0.25000  0.57500  1.0000
  Mg  Mg12      1.0  0.32500  0.25000  0.57500  1.0000
  Mg  Mg13      1.0  0.32500  0.65000  0.57500  1.0000
  Mg  Mg14      1.0  0.07480  0.15000  0.82500  1.0000
  Mg  Mg15      1.0  0.07480  0.75000  0.82500  1.0000
  Mg  Mg16      1.0  0.67500  0.75000  0.82500  1.0000
  Pt  Pt1       1.0  0.72400  0.44900  0.17300  1.0000
  Pt  Pt2       1.0  0.27600  0.55100  0.22400  1.0000
  Pt  Pt3       1.0  0.27600  0.94900  0.22400  1.0000
  Pt  Pt4       1.0  0.67300  0.94900  0.22400  1.0000
  Pt  Pt5       1.0  0.32700  0.05120  0.77600  1.0000
  Pt  Pt6       1.0  0.72400  0.44900  0.77600  1.0000
  Pt  Pt7       1.0  0.72400  0.05120  0.77600  1.0000
  Pt  Pt8       1.0  0.27600  0.55100  0.82700  1.0000
