data_image0
_chemical_formula_structural       Bi4Sr2
_chemical_formula_sum              "Bi4 Sr2"
_cell_length_a       8.55163
_cell_length_b       7.28076
_cell_length_c       3.61413
_cell_angle_alpha    90
_cell_angle_beta     90
_cell_angle_gamma    90

_space_group_name_H-M_alt    "P 1"
_space_group_IT_number       1

loop_
  _space_group_symop_operation_xyz
  'x, y, z'

loop_
  _atom_site_type_symbol
  _atom_site_label
  _atom_site_symmetry_multiplicity
  _atom_site_fract_x
  _atom_site_fract_y
  _atom_site_fract_z
  _atom_site_occupancy
  Bi  Bi1       1.0  0.13000  0.36600  0.00000  1.0000
  Bi  Bi2       1.0  0.87000  0.63400  0.00000  1.0000
  Bi  Bi3       1.0  0.63000  0.13400  0.50000  1.0000
  Bi  Bi4       1.0  0.37000  0.86600  0.50000  1.0000
  Sr  Sr1       1.0  0.50000  0.50000  0.00000  1.0000
  Sr  Sr2       1.0  0.00000  0.00000  0.50000  1.0000
