data_image0
_chemical_formula_structural       Cu2La2N2O2
_chemical_formula_sum              "Cu2 La2 N2 O2"
_cell_length_a       3.63642
_cell_length_b       5.57372
_cell_length_c       5.46821
_cell_angle_alpha    90
_cell_angle_beta     90
_cell_angle_gamma    90

_space_group_name_H-M_alt    "P 1"
_space_group_IT_number       1

loop_
  _space_group_symop_operation_xyz
  'x, y, z'

loop_
  _atom_site_type_symbol
  _atom_site_label
  _atom_site_symmetry_multiplicity
  _atom_site_fract_x
  _atom_site_fract_y
  _atom_site_fract_z
  _atom_site_occupancy
  Cu  Cu1       1.0  0.50000  0.00742  0.30500  1.0000
  Cu  Cu2       1.0  0.50000  0.50700  0.69500  1.0000
  La  La1       1.0  0.00000  0.52200  0.20100  1.0000
  La  La2       1.0  0.00000  0.02190  0.79900  1.0000
  N   N1        1.0  0.00000  0.95900  0.36000  1.0000
  N   N2        1.0  0.00000  0.45900  0.64000  1.0000
  O   O1        1.0  0.50000  0.26500  0.04410  1.0000
  O   O2        1.0  0.50000  0.76500  0.95600  1.0000
