data_image0
_chemical_formula_structural       Bi4Co2
_chemical_formula_sum              "Bi4 Co2"
_cell_length_a       6.68007
_cell_length_b       5.8373
_cell_length_c       3.56932
_cell_angle_alpha    90
_cell_angle_beta     90
_cell_angle_gamma    90

_space_group_name_H-M_alt    "P 1"
_space_group_IT_number       1

loop_
  _space_group_symop_operation_xyz
  'x, y, z'

loop_
  _atom_site_type_symbol
  _atom_site_label
  _atom_site_symmetry_multiplicity
  _atom_site_fract_x
  _atom_site_fract_y
  _atom_site_fract_z
  _atom_site_occupancy
  Bi  Bi1       1.0  0.14800  0.29300  0.00000  1.0000
  Bi  Bi2       1.0  0.85200  0.70700  0.00000  1.0000
  Bi  Bi3       1.0  0.64800  0.20700  0.50000  1.0000
  Bi  Bi4       1.0  0.35200  0.79300  0.50000  1.0000
  Co  Co1       1.0  0.50000  0.50000  0.00000  1.0000
  Co  Co2       1.0  0.00000  0.00000  0.50000  1.0000
