data_image0
_chemical_formula_structural       Au2Er2Sn2
_chemical_formula_sum              "Au2 Er2 Sn2"
_cell_length_a       4.68234
_cell_length_b       4.68229
_cell_length_c       7.40939
_cell_angle_alpha    90
_cell_angle_beta     90
_cell_angle_gamma    120

_space_group_name_H-M_alt    "P 1"
_space_group_IT_number       1

loop_
  _space_group_symop_operation_xyz
  'x, y, z'

loop_
  _atom_site_type_symbol
  _atom_site_label
  _atom_site_symmetry_multiplicity
  _atom_site_fract_x
  _atom_site_fract_y
  _atom_site_fract_z
  _atom_site_occupancy
  Au  Au1       1.0  0.33300  0.66700  0.31200  1.0000
  Au  Au2       1.0  0.66700  0.33300  0.81200  1.0000
  Er  Er1       1.0  0.00000  0.00000  0.47900  1.0000
  Er  Er2       1.0  0.00000  0.00001  0.97900  1.0000
  Sn  Sn1       1.0  0.66700  0.33300  0.20800  1.0000
  Sn  Sn2       1.0  0.33300  0.66700  0.70800  1.0000
