data_image0
_chemical_formula_structural       Co2N2O2Y2
_chemical_formula_sum              "Co2 N2 O2 Y2"
_cell_length_a       3.72316
_cell_length_b       4.95191
_cell_length_c       6.04927
_cell_angle_alpha    90
_cell_angle_beta     90
_cell_angle_gamma    90

_space_group_name_H-M_alt    "P 1"
_space_group_IT_number       1

loop_
  _space_group_symop_operation_xyz
  'x, y, z'

loop_
  _atom_site_type_symbol
  _atom_site_label
  _atom_site_symmetry_multiplicity
  _atom_site_fract_x
  _atom_site_fract_y
  _atom_site_fract_z
  _atom_site_occupancy
  Co  Co1       1.0  0.50000  0.97200  0.19100  1.0000
  Co  Co2       1.0  0.50000  0.47200  0.80900  1.0000
  N   N1        1.0  0.00000  0.93600  0.32100  1.0000
  N   N2        1.0  0.00000  0.43600  0.67900  1.0000
  O   O1        1.0  0.50000  0.39100  0.13100  1.0000
  O   O2        1.0  0.50000  0.89100  0.86900  1.0000
  Y   Y1        1.0  0.00000  0.45500  0.30400  1.0000
  Y   Y2        1.0  0.00000  0.95500  0.69600  1.0000
