data_image0
_chemical_formula_structural       Mg4Pr16Ru4
_chemical_formula_sum              "Mg4 Pr16 Ru4"
_cell_length_a       10.0458
_cell_length_b       10.0458
_cell_length_c       10.0458
_cell_angle_alpha    120
_cell_angle_beta     90
_cell_angle_gamma    120

_space_group_name_H-M_alt    "P 1"
_space_group_IT_number       1

loop_
  _space_group_symop_operation_xyz
  'x, y, z'

loop_
  _atom_site_type_symbol
  _atom_site_label
  _atom_site_symmetry_multiplicity
  _atom_site_fract_x
  _atom_site_fract_y
  _atom_site_fract_z
  _atom_site_occupancy
  Mg  Mg1       1.0  0.42200  0.84300  0.26500  1.0000
  Mg  Mg2       1.0  0.42200  0.15700  0.57800  1.0000
  Mg  Mg3       1.0  0.42200  0.84300  0.57800  1.0000
  Mg  Mg4       1.0  0.73500  0.15700  0.57800  1.0000
  Pr  Pr1       1.0  0.81200  0.00000  0.18800  1.0000
  Pr  Pr2       1.0  0.18800  0.00000  0.18800  1.0000
  Pr  Pr3       1.0  0.18800  0.37600  0.18800  1.0000
  Pr  Pr4       1.0  0.65500  0.31100  0.34500  1.0000
  Pr  Pr5       1.0  0.03410  0.68900  0.34500  1.0000
  Pr  Pr6       1.0  0.65500  0.68900  0.34500  1.0000
  Pr  Pr7       1.0  0.06160  0.12300  0.56200  1.0000
  Pr  Pr8       1.0  0.06160  0.50000  0.56200  1.0000
  Pr  Pr9       1.0  0.43800  0.50000  0.56200  1.0000
  Pr  Pr10      1.0  0.18800  0.00000  0.81200  1.0000
  Pr  Pr11      1.0  0.81200  0.62400  0.81200  1.0000
  Pr  Pr12      1.0  0.81200  0.00000  0.81200  1.0000
  Pr  Pr13      1.0  0.06160  0.50000  0.93800  1.0000
  Pr  Pr14      1.0  0.43800  0.50000  0.93800  1.0000
  Pr  Pr15      1.0  0.43800  0.87700  0.93800  1.0000
  Pr  Pr16      1.0  0.65500  0.31100  0.96600  1.0000
  Ru  Ru1       1.0  0.41400  0.27600  0.13800  1.0000
  Ru  Ru2       1.0  0.86200  0.27600  0.13800  1.0000
  Ru  Ru3       1.0  0.86200  0.72400  0.13800  1.0000
  Ru  Ru4       1.0  0.86200  0.72400  0.58600  1.0000
