data_image0
_chemical_formula_structural       N2O2Tl2Zn2
_chemical_formula_sum              "N2 O2 Tl2 Zn2"
_cell_length_a       4.52975
_cell_length_b       4.52975
_cell_length_c       5.08522
_cell_angle_alpha    90
_cell_angle_beta     90
_cell_angle_gamma    90

_space_group_name_H-M_alt    "P 1"
_space_group_IT_number       1

loop_
  _space_group_symop_operation_xyz
  'x, y, z'

loop_
  _atom_site_type_symbol
  _atom_site_label
  _atom_site_symmetry_multiplicity
  _atom_site_fract_x
  _atom_site_fract_y
  _atom_site_fract_z
  _atom_site_occupancy
  N   N1        1.0  0.75000  0.75000  0.44100  1.0000
  N   N2        1.0  0.25000  0.25000  0.55900  1.0000
  O   O1        1.0  0.75000  0.25000  0.00000  1.0000
  O   O2        1.0  0.25000  0.75000  0.00000  1.0000
  Tl  Tl1       1.0  0.75000  0.25000  0.50000  1.0000
  Tl  Tl2       1.0  0.25000  0.75000  0.50000  1.0000
  Zn  Zn1       1.0  0.75000  0.75000  0.03590  1.0000
  Zn  Zn2       1.0  0.25000  0.25000  0.96400  1.0000
