data_image0
_chemical_formula_structural       Ge4Mg2O14Sr4
_chemical_formula_sum              "Ge4 Mg2 O14 Sr4"
_cell_length_a       8.14398
_cell_length_b       8.14398
_cell_length_c       5.30431
_cell_angle_alpha    90
_cell_angle_beta     90
_cell_angle_gamma    90

_space_group_name_H-M_alt    "P 1"
_space_group_IT_number       1

loop_
  _space_group_symop_operation_xyz
  'x, y, z'

loop_
  _atom_site_type_symbol
  _atom_site_label
  _atom_site_symmetry_multiplicity
  _atom_site_fract_x
  _atom_site_fract_y
  _atom_site_fract_z
  _atom_site_occupancy
  Ge  Ge1       1.0  0.64400  0.14400  0.04920  1.0000
  Ge  Ge2       1.0  0.35600  0.85600  0.04920  1.0000
  Ge  Ge3       1.0  0.14400  0.35600  0.95100  1.0000
  Ge  Ge4       1.0  0.85600  0.64400  0.95100  1.0000
  Mg  Mg1       1.0  0.00000  0.00000  0.00000  1.0000
  Mg  Mg2       1.0  0.50000  0.50000  0.00000  1.0000
  O   O1        1.0  0.50000  0.00000  0.18600  1.0000
  O   O2        1.0  0.82400  0.08170  0.20900  1.0000
  O   O3        1.0  0.58200  0.32400  0.20900  1.0000
  O   O4        1.0  0.41800  0.67600  0.20900  1.0000
  O   O5        1.0  0.17600  0.91800  0.20900  1.0000
  O   O6        1.0  0.13900  0.36100  0.27800  1.0000
  O   O7        1.0  0.86100  0.63900  0.27800  1.0000
  O   O8        1.0  0.63900  0.13900  0.72200  1.0000
  O   O9        1.0  0.36100  0.86100  0.72200  1.0000
  O   O10       1.0  0.08170  0.17600  0.79100  1.0000
  O   O11       1.0  0.32400  0.41800  0.79100  1.0000
  O   O12       1.0  0.67600  0.58200  0.79100  1.0000
  O   O13       1.0  0.91800  0.82400  0.79100  1.0000
  O   O14       1.0  0.00000  0.50000  0.81400  1.0000
  Sr  Sr1       1.0  0.83500  0.33500  0.49200  1.0000
  Sr  Sr2       1.0  0.16500  0.66500  0.49200  1.0000
  Sr  Sr3       1.0  0.33500  0.16500  0.50800  1.0000
  Sr  Sr4       1.0  0.66500  0.83500  0.50800  1.0000
