data_image0
_chemical_formula_structural       Eu12Hg8Li12O48
_chemical_formula_sum              "Eu12 Hg8 Li12 O48"
_cell_length_a       10.8357
_cell_length_b       10.8357
_cell_length_c       10.8357
_cell_angle_alpha    109.471
_cell_angle_beta     109.471
_cell_angle_gamma    109.471

_space_group_name_H-M_alt    "P 1"
_space_group_IT_number       1

loop_
  _space_group_symop_operation_xyz
  'x, y, z'

loop_
  _atom_site_type_symbol
  _atom_site_label
  _atom_site_symmetry_multiplicity
  _atom_site_fract_x
  _atom_site_fract_y
  _atom_site_fract_z
  _atom_site_occupancy
  Eu  Eu1       1.0  0.25000  0.87500  0.12500  1.0000
  Eu  Eu2       1.0  0.37500  0.25000  0.12500  1.0000
  Eu  Eu3       1.0  0.87500  0.12500  0.25000  1.0000
  Eu  Eu4       1.0  0.37500  0.62500  0.25000  1.0000
  Eu  Eu5       1.0  0.12500  0.75000  0.37500  1.0000
  Eu  Eu6       1.0  0.75000  0.62500  0.37500  1.0000
  Eu  Eu7       1.0  0.87500  0.25000  0.62500  1.0000
  Eu  Eu8       1.0  0.25000  0.37500  0.62500  1.0000
  Eu  Eu9       1.0  0.62500  0.37500  0.75000  1.0000
  Eu  Eu10      1.0  0.12500  0.87500  0.75000  1.0000
  Eu  Eu11      1.0  0.62500  0.75000  0.87500  1.0000
  Eu  Eu12      1.0  0.75000  0.12500  0.87500  1.0000
  Hg  Hg1       1.0  0.00000  0.00000  0.00000  1.0000
  Hg  Hg2       1.0  0.50000  0.00000  0.00000  1.0000
  Hg  Hg3       1.0  0.50000  0.50000  0.00000  1.0000
  Hg  Hg4       1.0  0.00000  0.50000  0.00000  1.0000
  Hg  Hg5       1.0  0.00000  0.50000  0.50000  1.0000
  Hg  Hg6       1.0  0.50000  0.00000  0.50000  1.0000
  Hg  Hg7       1.0  0.00000  0.00000  0.50000  1.0000
  Hg  Hg8       1.0  0.50000  0.50000  0.50000  1.0000
  Li  Li1       1.0  0.87500  0.75000  0.12500  1.0000
  Li  Li2       1.0  0.75000  0.37500  0.12500  1.0000
  Li  Li3       1.0  0.12500  0.37500  0.25000  1.0000
  Li  Li4       1.0  0.62500  0.87500  0.25000  1.0000
  Li  Li5       1.0  0.25000  0.12500  0.37500  1.0000
  Li  Li6       1.0  0.62500  0.25000  0.37500  1.0000
  Li  Li7       1.0  0.37500  0.75000  0.62500  1.0000
  Li  Li8       1.0  0.75000  0.87500  0.62500  1.0000
  Li  Li9       1.0  0.37500  0.12500  0.75000  1.0000
  Li  Li10      1.0  0.87500  0.62500  0.75000  1.0000
  Li  Li11      1.0  0.12500  0.25000  0.87500  1.0000
  Li  Li12      1.0  0.25000  0.62500  0.87500  1.0000
  O   O1        1.0  0.20700  0.61800  0.02770  1.0000
  O   O2        1.0  0.32000  0.41000  0.02770  1.0000
  O   O3        1.0  0.70700  0.18000  0.08950  1.0000
  O   O4        1.0  0.88200  0.91000  0.08950  1.0000
  O   O5        1.0  0.61800  0.91100  0.09020  1.0000
  O   O6        1.0  0.97200  0.18000  0.09020  1.0000
  O   O7        1.0  0.02770  0.70700  0.11800  1.0000
  O   O8        1.0  0.59000  0.41100  0.11800  1.0000
  O   O9        1.0  0.20700  0.08950  0.18000  1.0000
  O   O10       1.0  0.47200  0.09020  0.18000  1.0000
  O   O11       1.0  0.11800  0.52800  0.20700  1.0000
  O   O12       1.0  0.58900  0.68000  0.20700  1.0000
  O   O13       1.0  0.47200  0.88200  0.29300  1.0000
  O   O14       1.0  0.32000  0.41100  0.29300  1.0000
  O   O15       1.0  0.91100  0.79300  0.32000  1.0000
  O   O16       1.0  0.91000  0.52800  0.32000  1.0000
  O   O17       1.0  0.29300  0.97200  0.38200  1.0000
  O   O18       1.0  0.58900  0.41000  0.38200  1.0000
  O   O19       1.0  0.08950  0.38200  0.41000  1.0000
  O   O20       1.0  0.82000  0.02770  0.41000  1.0000
  O   O21       1.0  0.09020  0.11800  0.41100  1.0000
  O   O22       1.0  0.82000  0.29300  0.41100  1.0000
  O   O23       1.0  0.38200  0.79300  0.47200  1.0000
  O   O24       1.0  0.59000  0.68000  0.47200  1.0000
  O   O25       1.0  0.41000  0.32000  0.52800  1.0000
  O   O26       1.0  0.61800  0.20700  0.52800  1.0000
  O   O27       1.0  0.18000  0.70700  0.58900  1.0000
  O   O28       1.0  0.91000  0.88200  0.58900  1.0000
  O   O29       1.0  0.91100  0.61800  0.59000  1.0000
  O   O30       1.0  0.18000  0.97200  0.59000  1.0000
  O   O31       1.0  0.41100  0.59000  0.61800  1.0000
  O   O32       1.0  0.70700  0.02770  0.61800  1.0000
  O   O33       1.0  0.08950  0.20700  0.68000  1.0000
  O   O34       1.0  0.09020  0.47200  0.68000  1.0000
  O   O35       1.0  0.52800  0.11800  0.70700  1.0000
  O   O36       1.0  0.68000  0.58900  0.70700  1.0000
  O   O37       1.0  0.41100  0.32000  0.79300  1.0000
  O   O38       1.0  0.88200  0.47200  0.79300  1.0000
  O   O39       1.0  0.52800  0.91000  0.82000  1.0000
  O   O40       1.0  0.79300  0.91100  0.82000  1.0000
  O   O41       1.0  0.97200  0.29300  0.88200  1.0000
  O   O42       1.0  0.41000  0.58900  0.88200  1.0000
  O   O43       1.0  0.38200  0.08950  0.91000  1.0000
  O   O44       1.0  0.02770  0.82000  0.91000  1.0000
  O   O45       1.0  0.11800  0.09020  0.91100  1.0000
  O   O46       1.0  0.29300  0.82000  0.91100  1.0000
  O   O47       1.0  0.79300  0.38200  0.97200  1.0000
  O   O48       1.0  0.68000  0.59000  0.97200  1.0000
