data_image0
_chemical_formula_structural       N2O2Pr2Sn2
_chemical_formula_sum              "N2 O2 Pr2 Sn2"
_cell_length_a       4.96965
_cell_length_b       4.96965
_cell_length_c       5.34464
_cell_angle_alpha    90
_cell_angle_beta     90
_cell_angle_gamma    90

_space_group_name_H-M_alt    "P 1"
_space_group_IT_number       1

loop_
  _space_group_symop_operation_xyz
  'x, y, z'

loop_
  _atom_site_type_symbol
  _atom_site_label
  _atom_site_symmetry_multiplicity
  _atom_site_fract_x
  _atom_site_fract_y
  _atom_site_fract_z
  _atom_site_occupancy
  N   N1        1.0  0.75000  0.75000  0.38700  1.0000
  N   N2        1.0  0.25000  0.25000  0.61300  1.0000
  O   O1        1.0  0.75000  0.25000  0.00000  1.0000
  O   O2        1.0  0.25000  0.75000  0.00000  1.0000
  Pr  Pr1       1.0  0.75000  0.25000  0.50000  1.0000
  Pr  Pr2       1.0  0.25000  0.75000  0.50000  1.0000
  Sn  Sn1       1.0  0.25000  0.25000  0.00624  1.0000
  Sn  Sn2       1.0  0.75000  0.75000  0.99400  1.0000
