data_image0
_chemical_formula_structural       Cu4Nd2
_chemical_formula_sum              "Cu4 Nd2"
_cell_length_a       4.35925
_cell_length_b       5.54247
_cell_length_c       5.54247
_cell_angle_alpha    96.3126
_cell_angle_beta     113.157
_cell_angle_gamma    66.8426

_space_group_name_H-M_alt    "P 1"
_space_group_IT_number       1

loop_
  _space_group_symop_operation_xyz
  'x, y, z'

loop_
  _atom_site_type_symbol
  _atom_site_label
  _atom_site_symmetry_multiplicity
  _atom_site_fract_x
  _atom_site_fract_y
  _atom_site_fract_z
  _atom_site_occupancy
  Cu  Cu1       1.0  0.05030  0.11500  0.21600  1.0000
  Cu  Cu2       1.0  0.55000  0.28400  0.38500  1.0000
  Cu  Cu3       1.0  0.45000  0.71600  0.61500  1.0000
  Cu  Cu4       1.0  0.95000  0.88500  0.78400  1.0000
  Nd  Nd1       1.0  0.75000  0.71100  0.21100  1.0000
  Nd  Nd2       1.0  0.25000  0.28900  0.78900  1.0000
