data_image0
_chemical_formula_structural       N2Na2Sn2
_chemical_formula_sum              "N2 Na2 Sn2"
_cell_length_a       3.34533
_cell_length_b       3.34537
_cell_length_c       10.8223
_cell_angle_alpha    90
_cell_angle_beta     90
_cell_angle_gamma    120

_space_group_name_H-M_alt    "P 1"
_space_group_IT_number       1

loop_
  _space_group_symop_operation_xyz
  'x, y, z'

loop_
  _atom_site_type_symbol
  _atom_site_label
  _atom_site_symmetry_multiplicity
  _atom_site_fract_x
  _atom_site_fract_y
  _atom_site_fract_z
  _atom_site_occupancy
  N   N1        1.0  0.66700  0.33300  0.09970  1.0000
  N   N2        1.0  0.33300  0.66700  0.60000  1.0000
  Na  Na1       1.0  0.33300  0.66700  0.24600  1.0000
  Na  Na2       1.0  0.66700  0.33300  0.74600  1.0000
  Sn  Sn1       1.0  0.00002  0.00004  0.99900  1.0000
  Sn  Sn2       1.0  0.00000  0.00000  0.49900  1.0000
