data_image0
_chemical_formula_structural       Al4B4Mg4O16
_chemical_formula_sum              "Al4 B4 Mg4 O16"
_cell_length_a       9.81221
_cell_length_b       5.66932
_cell_length_c       4.32898
_cell_angle_alpha    90
_cell_angle_beta     90
_cell_angle_gamma    90

_space_group_name_H-M_alt    "P 1"
_space_group_IT_number       1

loop_
  _space_group_symop_operation_xyz
  'x, y, z'

loop_
  _atom_site_type_symbol
  _atom_site_label
  _atom_site_symmetry_multiplicity
  _atom_site_fract_x
  _atom_site_fract_y
  _atom_site_fract_z
  _atom_site_occupancy
  Al  Al1       1.0  0.00000  0.00000  0.00000  1.0000
  Al  Al2       1.0  0.00000  0.50000  0.00000  1.0000
  Al  Al3       1.0  0.50000  0.00000  0.50000  1.0000
  Al  Al4       1.0  0.50000  0.50000  0.50000  1.0000
  B   B1        1.0  0.58800  0.25000  0.09110  1.0000
  B   B2        1.0  0.08750  0.25000  0.40900  1.0000
  B   B3        1.0  0.91200  0.75000  0.59100  1.0000
  B   B4        1.0  0.41200  0.75000  0.90900  1.0000
  Mg  Mg1       1.0  0.72500  0.75000  0.01550  1.0000
  Mg  Mg2       1.0  0.22500  0.75000  0.48500  1.0000
  Mg  Mg3       1.0  0.77500  0.25000  0.51500  1.0000
  Mg  Mg4       1.0  0.27500  0.25000  0.98500  1.0000
  O   O1        1.0  0.65000  0.03800  0.23500  1.0000
  O   O2        1.0  0.65000  0.46200  0.23500  1.0000
  O   O3        1.0  0.41900  0.75000  0.24100  1.0000
  O   O4        1.0  0.94300  0.25000  0.24600  1.0000
  O   O5        1.0  0.44300  0.25000  0.25400  1.0000
  O   O6        1.0  0.91900  0.75000  0.25900  1.0000
  O   O7        1.0  0.15000  0.03800  0.26500  1.0000
  O   O8        1.0  0.15000  0.46200  0.26500  1.0000
  O   O9        1.0  0.85000  0.53800  0.73500  1.0000
  O   O10       1.0  0.85000  0.96200  0.73500  1.0000
  O   O11       1.0  0.08150  0.25000  0.74100  1.0000
  O   O12       1.0  0.55700  0.75000  0.74600  1.0000
  O   O13       1.0  0.05680  0.75000  0.75400  1.0000
  O   O14       1.0  0.58100  0.25000  0.75900  1.0000
  O   O15       1.0  0.35000  0.53800  0.76500  1.0000
  O   O16       1.0  0.35000  0.96200  0.76500  1.0000
