data_image0
_chemical_formula_structural       Ca2N2O2V2
_chemical_formula_sum              "Ca2 N2 O2 V2"
_cell_length_a       3.6004
_cell_length_b       5.52853
_cell_length_c       6.07421
_cell_angle_alpha    90
_cell_angle_beta     90
_cell_angle_gamma    90

_space_group_name_H-M_alt    "P 1"
_space_group_IT_number       1

loop_
  _space_group_symop_operation_xyz
  'x, y, z'

loop_
  _atom_site_type_symbol
  _atom_site_label
  _atom_site_symmetry_multiplicity
  _atom_site_fract_x
  _atom_site_fract_y
  _atom_site_fract_z
  _atom_site_occupancy
  Ca  Ca1       1.0  0.50000  0.99500  0.17900  1.0000
  Ca  Ca2       1.0  0.50000  0.49500  0.82100  1.0000
  N   N1        1.0  0.00000  0.84300  0.37100  1.0000
  N   N2        1.0  0.00000  0.34300  0.62900  1.0000
  O   O1        1.0  0.50000  0.41700  0.19100  1.0000
  O   O2        1.0  0.50000  0.91700  0.80900  1.0000
  V   V1        1.0  0.00000  0.50000  0.34400  1.0000
  V   V2        1.0  0.00000  0.00000  0.65600  1.0000
