data_image0
_chemical_formula_structural       Bi2Cl2Te2
_chemical_formula_sum              "Bi2 Cl2 Te2"
_cell_length_a       4.30294
_cell_length_b       4.30284
_cell_length_c       13.0452
_cell_angle_alpha    90
_cell_angle_beta     90
_cell_angle_gamma    120.001

_space_group_name_H-M_alt    "P 1"
_space_group_IT_number       1

loop_
  _space_group_symop_operation_xyz
  'x, y, z'

loop_
  _atom_site_type_symbol
  _atom_site_label
  _atom_site_symmetry_multiplicity
  _atom_site_fract_x
  _atom_site_fract_y
  _atom_site_fract_z
  _atom_site_occupancy
  Bi  Bi1       1.0  0.33300  0.66700  0.13700  1.0000
  Bi  Bi2       1.0  0.66700  0.33300  0.63700  1.0000
  Cl  Cl1       1.0  0.00000  0.00000  0.00874  1.0000
  Cl  Cl2       1.0  0.00000  0.00000  0.50900  1.0000
  Te  Te1       1.0  0.66700  0.33300  0.27200  1.0000
  Te  Te2       1.0  0.33300  0.66700  0.77200  1.0000
