data_image0
_chemical_formula_structural       CsH12MgO10P
_chemical_formula_sum              "Cs1 H12 Mg1 O10 P1"
_cell_length_a       7.00376
_cell_length_b       7.00376
_cell_length_c       7.00376
_cell_angle_alpha    120
_cell_angle_beta     90
_cell_angle_gamma    120

_space_group_name_H-M_alt    "P 1"
_space_group_IT_number       1

loop_
  _space_group_symop_operation_xyz
  'x, y, z'

loop_
  _atom_site_type_symbol
  _atom_site_label
  _atom_site_symmetry_multiplicity
  _atom_site_fract_x
  _atom_site_fract_y
  _atom_site_fract_z
  _atom_site_occupancy
  Cs  Cs1       1.0  0.25000  0.50000  0.75000  1.0000
  H   H1        1.0  0.14600  0.88200  0.26400  1.0000
  H   H2        1.0  0.73600  0.88200  0.26400  1.0000
  H   H3        1.0  0.14600  0.52900  0.26400  1.0000
  H   H4        1.0  0.38300  0.52900  0.26400  1.0000
  H   H5        1.0  0.38300  0.11800  0.26400  1.0000
  H   H6        1.0  0.73600  0.11800  0.26400  1.0000
  H   H7        1.0  0.14600  0.88200  0.61700  1.0000
  H   H8        1.0  0.73600  0.88200  0.61700  1.0000
  H   H9        1.0  0.73600  0.47100  0.61700  1.0000
  H   H10       1.0  0.73600  0.11800  0.85400  1.0000
  H   H11       1.0  0.38300  0.11800  0.85400  1.0000
  H   H12       1.0  0.73600  0.47100  0.85400  1.0000
  Mg  Mg1       1.0  0.00000  0.00000  0.00000  1.0000
  O   O1        1.0  0.20800  0.41500  0.20800  1.0000
  O   O2        1.0  0.20800  0.00000  0.20800  1.0000
  O   O3        1.0  0.79200  0.00000  0.20800  1.0000
  O   O4        1.0  0.02130  0.68100  0.34000  1.0000
  O   O5        1.0  0.66000  0.68100  0.34000  1.0000
  O   O6        1.0  0.66000  0.31900  0.34000  1.0000
  O   O7        1.0  0.79200  0.58500  0.79200  1.0000
  O   O8        1.0  0.20800  0.00000  0.79200  1.0000
  O   O9        1.0  0.79200  0.00000  0.79200  1.0000
  O   O10       1.0  0.66000  0.31900  0.97900  1.0000
  P   P1        1.0  0.75000  0.50000  0.25000  1.0000
