data_image0
_chemical_formula_structural       Ag12Hg12Np8O48
_chemical_formula_sum              "Ag12 Hg12 Np8 O48"
_cell_length_a       11.4238
_cell_length_b       11.4238
_cell_length_c       11.4238
_cell_angle_alpha    109.471
_cell_angle_beta     109.471
_cell_angle_gamma    109.471

_space_group_name_H-M_alt    "P 1"
_space_group_IT_number       1

loop_
  _space_group_symop_operation_xyz
  'x, y, z'

loop_
  _atom_site_type_symbol
  _atom_site_label
  _atom_site_symmetry_multiplicity
  _atom_site_fract_x
  _atom_site_fract_y
  _atom_site_fract_z
  _atom_site_occupancy
  Ag  Ag1       1.0  0.75000  0.37500  0.12500  1.0000
  Ag  Ag2       1.0  0.87500  0.75000  0.12500  1.0000
  Ag  Ag3       1.0  0.12500  0.37500  0.25000  1.0000
  Ag  Ag4       1.0  0.62500  0.87500  0.25000  1.0000
  Ag  Ag5       1.0  0.25000  0.12500  0.37500  1.0000
  Ag  Ag6       1.0  0.62500  0.25000  0.37500  1.0000
  Ag  Ag7       1.0  0.37500  0.75000  0.62500  1.0000
  Ag  Ag8       1.0  0.75000  0.87500  0.62500  1.0000
  Ag  Ag9       1.0  0.37500  0.12500  0.75000  1.0000
  Ag  Ag10      1.0  0.87500  0.62500  0.75000  1.0000
  Ag  Ag11      1.0  0.12500  0.25000  0.87500  1.0000
  Ag  Ag12      1.0  0.25000  0.62500  0.87500  1.0000
  Hg  Hg1       1.0  0.37500  0.25000  0.12500  1.0000
  Hg  Hg2       1.0  0.25000  0.87500  0.12500  1.0000
  Hg  Hg3       1.0  0.87500  0.12500  0.25000  1.0000
  Hg  Hg4       1.0  0.37500  0.62500  0.25000  1.0000
  Hg  Hg5       1.0  0.75000  0.62500  0.37500  1.0000
  Hg  Hg6       1.0  0.12500  0.75000  0.37500  1.0000
  Hg  Hg7       1.0  0.87500  0.25000  0.62500  1.0000
  Hg  Hg8       1.0  0.25000  0.37500  0.62500  1.0000
  Hg  Hg9       1.0  0.62500  0.37500  0.75000  1.0000
  Hg  Hg10      1.0  0.12500  0.87500  0.75000  1.0000
  Hg  Hg11      1.0  0.75000  0.12500  0.87500  1.0000
  Hg  Hg12      1.0  0.62500  0.75000  0.87500  1.0000
  Np  Np1       1.0  0.00000  0.00000  0.00000  1.0000
  Np  Np2       1.0  0.50000  0.00000  0.00000  1.0000
  Np  Np3       1.0  0.00000  0.50000  0.00000  1.0000
  Np  Np4       1.0  0.50000  0.50000  0.00000  1.0000
  Np  Np5       1.0  0.00000  0.00000  0.50000  1.0000
  Np  Np6       1.0  0.50000  0.00000  0.50000  1.0000
  Np  Np7       1.0  0.00000  0.50000  0.50000  1.0000
  Np  Np8       1.0  0.50000  0.50000  0.50000  1.0000
  O   O1        1.0  0.20500  0.59700  0.03960  1.0000
  O   O2        1.0  0.33400  0.44200  0.03960  1.0000
  O   O3        1.0  0.96000  0.16600  0.05760  1.0000
  O   O4        1.0  0.59700  0.89200  0.05760  1.0000
  O   O5        1.0  0.55800  0.39200  0.09720  1.0000
  O   O6        1.0  0.03960  0.70500  0.09720  1.0000
  O   O7        1.0  0.70500  0.16600  0.10800  1.0000
  O   O8        1.0  0.90300  0.94200  0.10800  1.0000
  O   O9        1.0  0.46000  0.05760  0.16600  1.0000
  O   O10       1.0  0.20500  0.10800  0.16600  1.0000
  O   O11       1.0  0.09720  0.54000  0.20500  1.0000
  O   O12       1.0  0.60800  0.66600  0.20500  1.0000
  O   O13       1.0  0.46000  0.90300  0.29500  1.0000
  O   O14       1.0  0.33400  0.39200  0.29500  1.0000
  O   O15       1.0  0.94200  0.54000  0.33400  1.0000
  O   O16       1.0  0.89200  0.79500  0.33400  1.0000
  O   O17       1.0  0.83400  0.29500  0.39200  1.0000
  O   O18       1.0  0.05760  0.09720  0.39200  1.0000
  O   O19       1.0  0.60800  0.44200  0.40300  1.0000
  O   O20       1.0  0.29500  0.96000  0.40300  1.0000
  O   O21       1.0  0.83400  0.03960  0.44200  1.0000
  O   O22       1.0  0.10800  0.40300  0.44200  1.0000
  O   O23       1.0  0.55800  0.66600  0.46000  1.0000
  O   O24       1.0  0.40300  0.79500  0.46000  1.0000
  O   O25       1.0  0.59700  0.20500  0.54000  1.0000
  O   O26       1.0  0.44200  0.33400  0.54000  1.0000
  O   O27       1.0  0.89200  0.59700  0.55800  1.0000
  O   O28       1.0  0.16600  0.96000  0.55800  1.0000
  O   O29       1.0  0.70500  0.03960  0.59700  1.0000
  O   O30       1.0  0.39200  0.55800  0.59700  1.0000
  O   O31       1.0  0.16600  0.70500  0.60800  1.0000
  O   O32       1.0  0.94200  0.90300  0.60800  1.0000
  O   O33       1.0  0.10800  0.20500  0.66600  1.0000
  O   O34       1.0  0.05760  0.46000  0.66600  1.0000
  O   O35       1.0  0.54000  0.09720  0.70500  1.0000
  O   O36       1.0  0.66600  0.60800  0.70500  1.0000
  O   O37       1.0  0.90300  0.46000  0.79500  1.0000
  O   O38       1.0  0.39200  0.33400  0.79500  1.0000
  O   O39       1.0  0.79500  0.89200  0.83400  1.0000
  O   O40       1.0  0.54000  0.94200  0.83400  1.0000
  O   O41       1.0  0.09720  0.05760  0.89200  1.0000
  O   O42       1.0  0.29500  0.83400  0.89200  1.0000
  O   O43       1.0  0.96000  0.29500  0.90300  1.0000
  O   O44       1.0  0.44200  0.60800  0.90300  1.0000
  O   O45       1.0  0.03960  0.83400  0.94200  1.0000
  O   O46       1.0  0.40300  0.10800  0.94200  1.0000
  O   O47       1.0  0.79500  0.40300  0.96000  1.0000
  O   O48       1.0  0.66600  0.55800  0.96000  1.0000
