data_image0
_chemical_formula_structural       Eu8Na12Ni12O48
_chemical_formula_sum              "Eu8 Na12 Ni12 O48"
_cell_length_a       10.9183
_cell_length_b       10.9183
_cell_length_c       10.9183
_cell_angle_alpha    109.471
_cell_angle_beta     109.471
_cell_angle_gamma    109.471

_space_group_name_H-M_alt    "P 1"
_space_group_IT_number       1

loop_
  _space_group_symop_operation_xyz
  'x, y, z'

loop_
  _atom_site_type_symbol
  _atom_site_label
  _atom_site_symmetry_multiplicity
  _atom_site_fract_x
  _atom_site_fract_y
  _atom_site_fract_z
  _atom_site_occupancy
  Eu  Eu1       1.0  0.00000  0.00000  0.00000  1.0000
  Eu  Eu2       1.0  0.50000  0.00000  0.00000  1.0000
  Eu  Eu3       1.0  0.00000  0.50000  0.00000  1.0000
  Eu  Eu4       1.0  0.50000  0.50000  0.00000  1.0000
  Eu  Eu5       1.0  0.00000  0.00000  0.50000  1.0000
  Eu  Eu6       1.0  0.50000  0.50000  0.50000  1.0000
  Eu  Eu7       1.0  0.50000  0.00000  0.50000  1.0000
  Eu  Eu8       1.0  0.00000  0.50000  0.50000  1.0000
  Na  Na1       1.0  0.37500  0.25000  0.12500  1.0000
  Na  Na2       1.0  0.25000  0.87500  0.12500  1.0000
  Na  Na3       1.0  0.37500  0.62500  0.25000  1.0000
  Na  Na4       1.0  0.87500  0.12500  0.25000  1.0000
  Na  Na5       1.0  0.75000  0.62500  0.37500  1.0000
  Na  Na6       1.0  0.12500  0.75000  0.37500  1.0000
  Na  Na7       1.0  0.25000  0.37500  0.62500  1.0000
  Na  Na8       1.0  0.87500  0.25000  0.62500  1.0000
  Na  Na9       1.0  0.62500  0.37500  0.75000  1.0000
  Na  Na10      1.0  0.12500  0.87500  0.75000  1.0000
  Na  Na11      1.0  0.75000  0.12500  0.87500  1.0000
  Na  Na12      1.0  0.62500  0.75000  0.87500  1.0000
  Ni  Ni1       1.0  0.75000  0.37500  0.12500  1.0000
  Ni  Ni2       1.0  0.87500  0.75000  0.12500  1.0000
  Ni  Ni3       1.0  0.12500  0.37500  0.25000  1.0000
  Ni  Ni4       1.0  0.62500  0.87500  0.25000  1.0000
  Ni  Ni5       1.0  0.25000  0.12500  0.37500  1.0000
  Ni  Ni6       1.0  0.62500  0.25000  0.37500  1.0000
  Ni  Ni7       1.0  0.75000  0.87500  0.62500  1.0000
  Ni  Ni8       1.0  0.37500  0.75000  0.62500  1.0000
  Ni  Ni9       1.0  0.37500  0.12500  0.75000  1.0000
  Ni  Ni10      1.0  0.87500  0.62500  0.75000  1.0000
  Ni  Ni11      1.0  0.25000  0.62500  0.87500  1.0000
  Ni  Ni12      1.0  0.12500  0.25000  0.87500  1.0000
  O   O1        1.0  0.24500  0.62700  0.03550  1.0000
  O   O2        1.0  0.29100  0.40800  0.03550  1.0000
  O   O3        1.0  0.96400  0.20900  0.09170  1.0000
  O   O4        1.0  0.62700  0.88300  0.09170  1.0000
  O   O5        1.0  0.87300  0.90800  0.11700  1.0000
  O   O6        1.0  0.74500  0.20900  0.11700  1.0000
  O   O7        1.0  0.59200  0.38300  0.12700  1.0000
  O   O8        1.0  0.03550  0.74500  0.12700  1.0000
  O   O9        1.0  0.46400  0.09170  0.20900  1.0000
  O   O10       1.0  0.24500  0.11700  0.20900  1.0000
  O   O11       1.0  0.12700  0.53600  0.24500  1.0000
  O   O12       1.0  0.61700  0.70900  0.24500  1.0000
  O   O13       1.0  0.29100  0.38300  0.25500  1.0000
  O   O14       1.0  0.46400  0.87300  0.25500  1.0000
  O   O15       1.0  0.88300  0.75500  0.29100  1.0000
  O   O16       1.0  0.90800  0.53600  0.29100  1.0000
  O   O17       1.0  0.61700  0.40800  0.37300  1.0000
  O   O18       1.0  0.25500  0.96400  0.37300  1.0000
  O   O19       1.0  0.09170  0.12700  0.38300  1.0000
  O   O20       1.0  0.79100  0.25500  0.38300  1.0000
  O   O21       1.0  0.79100  0.03550  0.40800  1.0000
  O   O22       1.0  0.11700  0.37300  0.40800  1.0000
  O   O23       1.0  0.59200  0.70900  0.46400  1.0000
  O   O24       1.0  0.37300  0.75500  0.46400  1.0000
  O   O25       1.0  0.40800  0.29100  0.53600  1.0000
  O   O26       1.0  0.62700  0.24500  0.53600  1.0000
  O   O27       1.0  0.88300  0.62700  0.59200  1.0000
  O   O28       1.0  0.20900  0.96400  0.59200  1.0000
  O   O29       1.0  0.90800  0.87300  0.61700  1.0000
  O   O30       1.0  0.20900  0.74500  0.61700  1.0000
  O   O31       1.0  0.74500  0.03550  0.62700  1.0000
  O   O32       1.0  0.38300  0.59200  0.62700  1.0000
  O   O33       1.0  0.11700  0.24500  0.70900  1.0000
  O   O34       1.0  0.09170  0.46400  0.70900  1.0000
  O   O35       1.0  0.70900  0.61700  0.74500  1.0000
  O   O36       1.0  0.53600  0.12700  0.74500  1.0000
  O   O37       1.0  0.87300  0.46400  0.75500  1.0000
  O   O38       1.0  0.38300  0.29100  0.75500  1.0000
  O   O39       1.0  0.53600  0.90800  0.79100  1.0000
  O   O40       1.0  0.75500  0.88300  0.79100  1.0000
  O   O41       1.0  0.96400  0.25500  0.87300  1.0000
  O   O42       1.0  0.40800  0.61700  0.87300  1.0000
  O   O43       1.0  0.25500  0.79100  0.88300  1.0000
  O   O44       1.0  0.12700  0.09170  0.88300  1.0000
  O   O45       1.0  0.37300  0.11700  0.90800  1.0000
  O   O46       1.0  0.03550  0.79100  0.90800  1.0000
  O   O47       1.0  0.75500  0.37300  0.96400  1.0000
  O   O48       1.0  0.70900  0.59200  0.96400  1.0000
