data_image0
_chemical_formula_structural       Au12Hg12O48Sc8
_chemical_formula_sum              "Au12 Hg12 O48 Sc8"
_cell_length_a       11.1076
_cell_length_b       11.1076
_cell_length_c       11.1076
_cell_angle_alpha    109.471
_cell_angle_beta     109.471
_cell_angle_gamma    109.471

_space_group_name_H-M_alt    "P 1"
_space_group_IT_number       1

loop_
  _space_group_symop_operation_xyz
  'x, y, z'

loop_
  _atom_site_type_symbol
  _atom_site_label
  _atom_site_symmetry_multiplicity
  _atom_site_fract_x
  _atom_site_fract_y
  _atom_site_fract_z
  _atom_site_occupancy
  Au  Au1       1.0  0.25000  0.87500  0.12500  1.0000
  Au  Au2       1.0  0.37500  0.25000  0.12500  1.0000
  Au  Au3       1.0  0.37500  0.62500  0.25000  1.0000
  Au  Au4       1.0  0.87500  0.12500  0.25000  1.0000
  Au  Au5       1.0  0.12500  0.75000  0.37500  1.0000
  Au  Au6       1.0  0.75000  0.62500  0.37500  1.0000
  Au  Au7       1.0  0.25000  0.37500  0.62500  1.0000
  Au  Au8       1.0  0.87500  0.25000  0.62500  1.0000
  Au  Au9       1.0  0.62500  0.37500  0.75000  1.0000
  Au  Au10      1.0  0.12500  0.87500  0.75000  1.0000
  Au  Au11      1.0  0.75000  0.12500  0.87500  1.0000
  Au  Au12      1.0  0.62500  0.75000  0.87500  1.0000
  Hg  Hg1       1.0  0.75000  0.37500  0.12500  1.0000
  Hg  Hg2       1.0  0.87500  0.75000  0.12500  1.0000
  Hg  Hg3       1.0  0.12500  0.37500  0.25000  1.0000
  Hg  Hg4       1.0  0.62500  0.87500  0.25000  1.0000
  Hg  Hg5       1.0  0.62500  0.25000  0.37500  1.0000
  Hg  Hg6       1.0  0.25000  0.12500  0.37500  1.0000
  Hg  Hg7       1.0  0.75000  0.87500  0.62500  1.0000
  Hg  Hg8       1.0  0.37500  0.75000  0.62500  1.0000
  Hg  Hg9       1.0  0.37500  0.12500  0.75000  1.0000
  Hg  Hg10      1.0  0.87500  0.62500  0.75000  1.0000
  Hg  Hg11      1.0  0.12500  0.25000  0.87500  1.0000
  Hg  Hg12      1.0  0.25000  0.62500  0.87500  1.0000
  O   O1        1.0  0.60100  0.87900  0.03970  1.0000
  O   O2        1.0  0.93800  0.16100  0.03970  1.0000
  O   O3        1.0  0.33900  0.46000  0.06170  1.0000
  O   O4        1.0  0.22300  0.60100  0.06170  1.0000
  O   O5        1.0  0.54000  0.37900  0.10100  1.0000
  O   O6        1.0  0.06170  0.72300  0.10100  1.0000
  O   O7        1.0  0.72300  0.16100  0.12100  1.0000
  O   O8        1.0  0.89900  0.96000  0.12100  1.0000
  O   O9        1.0  0.43800  0.03970  0.16100  1.0000
  O   O10       1.0  0.22300  0.12100  0.16100  1.0000
  O   O11       1.0  0.10100  0.56200  0.22300  1.0000
  O   O12       1.0  0.62100  0.66100  0.22300  1.0000
  O   O13       1.0  0.43800  0.89900  0.27700  1.0000
  O   O14       1.0  0.33900  0.37900  0.27700  1.0000
  O   O15       1.0  0.96000  0.56200  0.33900  1.0000
  O   O16       1.0  0.87900  0.77700  0.33900  1.0000
  O   O17       1.0  0.83900  0.27700  0.37900  1.0000
  O   O18       1.0  0.03970  0.10100  0.37900  1.0000
  O   O19       1.0  0.62100  0.46000  0.39900  1.0000
  O   O20       1.0  0.27700  0.93800  0.39900  1.0000
  O   O21       1.0  0.54000  0.66100  0.43800  1.0000
  O   O22       1.0  0.39900  0.77700  0.43800  1.0000
  O   O23       1.0  0.12100  0.39900  0.46000  1.0000
  O   O24       1.0  0.83900  0.06170  0.46000  1.0000
  O   O25       1.0  0.87900  0.60100  0.54000  1.0000
  O   O26       1.0  0.16100  0.93800  0.54000  1.0000
  O   O27       1.0  0.60100  0.22300  0.56200  1.0000
  O   O28       1.0  0.46000  0.33900  0.56200  1.0000
  O   O29       1.0  0.72300  0.06170  0.60100  1.0000
  O   O30       1.0  0.37900  0.54000  0.60100  1.0000
  O   O31       1.0  0.16100  0.72300  0.62100  1.0000
  O   O32       1.0  0.96000  0.89900  0.62100  1.0000
  O   O33       1.0  0.12100  0.22300  0.66100  1.0000
  O   O34       1.0  0.03970  0.43800  0.66100  1.0000
  O   O35       1.0  0.56200  0.10100  0.72300  1.0000
  O   O36       1.0  0.66100  0.62100  0.72300  1.0000
  O   O37       1.0  0.37900  0.33900  0.77700  1.0000
  O   O38       1.0  0.89900  0.43800  0.77700  1.0000
  O   O39       1.0  0.77700  0.87900  0.83900  1.0000
  O   O40       1.0  0.56200  0.96000  0.83900  1.0000
  O   O41       1.0  0.10100  0.03970  0.87900  1.0000
  O   O42       1.0  0.27700  0.83900  0.87900  1.0000
  O   O43       1.0  0.93800  0.27700  0.89900  1.0000
  O   O44       1.0  0.46000  0.62100  0.89900  1.0000
  O   O45       1.0  0.77700  0.39900  0.93800  1.0000
  O   O46       1.0  0.66100  0.54000  0.93800  1.0000
  O   O47       1.0  0.39900  0.12100  0.96000  1.0000
  O   O48       1.0  0.06170  0.83900  0.96000  1.0000
  Sc  Sc1       1.0  0.00000  0.00000  0.00000  1.0000
  Sc  Sc2       1.0  0.50000  0.00000  0.00000  1.0000
  Sc  Sc3       1.0  0.00000  0.50000  0.00000  1.0000
  Sc  Sc4       1.0  0.50000  0.50000  0.00000  1.0000
  Sc  Sc5       1.0  0.00000  0.00000  0.50000  1.0000
  Sc  Sc6       1.0  0.50000  0.50000  0.50000  1.0000
  Sc  Sc7       1.0  0.50000  0.00000  0.50000  1.0000
  Sc  Sc8       1.0  0.00000  0.50000  0.50000  1.0000
