data_image0
_chemical_formula_structural       Ag12Cd12Eu8O48
_chemical_formula_sum              "Ag12 Cd12 Eu8 O48"
_cell_length_a       11.3788
_cell_length_b       11.3788
_cell_length_c       11.3788
_cell_angle_alpha    109.471
_cell_angle_beta     109.471
_cell_angle_gamma    109.471

_space_group_name_H-M_alt    "P 1"
_space_group_IT_number       1

loop_
  _space_group_symop_operation_xyz
  'x, y, z'

loop_
  _atom_site_type_symbol
  _atom_site_label
  _atom_site_symmetry_multiplicity
  _atom_site_fract_x
  _atom_site_fract_y
  _atom_site_fract_z
  _atom_site_occupancy
  Ag  Ag1       1.0  0.37500  0.25000  0.12500  1.0000
  Ag  Ag2       1.0  0.25000  0.87500  0.12500  1.0000
  Ag  Ag3       1.0  0.37500  0.62500  0.25000  1.0000
  Ag  Ag4       1.0  0.87500  0.12500  0.25000  1.0000
  Ag  Ag5       1.0  0.75000  0.62500  0.37500  1.0000
  Ag  Ag6       1.0  0.12500  0.75000  0.37500  1.0000
  Ag  Ag7       1.0  0.87500  0.25000  0.62500  1.0000
  Ag  Ag8       1.0  0.25000  0.37500  0.62500  1.0000
  Ag  Ag9       1.0  0.62500  0.37500  0.75000  1.0000
  Ag  Ag10      1.0  0.12500  0.87500  0.75000  1.0000
  Ag  Ag11      1.0  0.75000  0.12500  0.87500  1.0000
  Ag  Ag12      1.0  0.62500  0.75000  0.87500  1.0000
  Cd  Cd1       1.0  0.75000  0.37500  0.12500  1.0000
  Cd  Cd2       1.0  0.87500  0.75000  0.12500  1.0000
  Cd  Cd3       1.0  0.12500  0.37500  0.25000  1.0000
  Cd  Cd4       1.0  0.62500  0.87500  0.25000  1.0000
  Cd  Cd5       1.0  0.25000  0.12500  0.37500  1.0000
  Cd  Cd6       1.0  0.62500  0.25000  0.37500  1.0000
  Cd  Cd7       1.0  0.37500  0.75000  0.62500  1.0000
  Cd  Cd8       1.0  0.75000  0.87500  0.62500  1.0000
  Cd  Cd9       1.0  0.37500  0.12500  0.75000  1.0000
  Cd  Cd10      1.0  0.87500  0.62500  0.75000  1.0000
  Cd  Cd11      1.0  0.25000  0.62500  0.87500  1.0000
  Cd  Cd12      1.0  0.12500  0.25000  0.87500  1.0000
  Eu  Eu1       1.0  0.00000  0.00000  0.00000  1.0000
  Eu  Eu2       1.0  0.50000  0.00000  0.00000  1.0000
  Eu  Eu3       1.0  0.00000  0.50000  0.00000  1.0000
  Eu  Eu4       1.0  0.50000  0.50000  0.00000  1.0000
  Eu  Eu5       1.0  0.00000  0.00000  0.50000  1.0000
  Eu  Eu6       1.0  0.50000  0.50000  0.50000  1.0000
  Eu  Eu7       1.0  0.50000  0.00000  0.50000  1.0000
  Eu  Eu8       1.0  0.00000  0.50000  0.50000  1.0000
  O   O1        1.0  0.94300  0.18600  0.04920  1.0000
  O   O2        1.0  0.60600  0.86300  0.04920  1.0000
  O   O3        1.0  0.24300  0.60600  0.05680  1.0000
  O   O4        1.0  0.31400  0.45100  0.05680  1.0000
  O   O5        1.0  0.05680  0.74300  0.10600  1.0000
  O   O6        1.0  0.54900  0.36300  0.10600  1.0000
  O   O7        1.0  0.74300  0.18600  0.13700  1.0000
  O   O8        1.0  0.89400  0.95100  0.13700  1.0000
  O   O9        1.0  0.44300  0.04920  0.18600  1.0000
  O   O10       1.0  0.24300  0.13700  0.18600  1.0000
  O   O11       1.0  0.10600  0.55700  0.24300  1.0000
  O   O12       1.0  0.63700  0.68600  0.24300  1.0000
  O   O13       1.0  0.44300  0.89400  0.25700  1.0000
  O   O14       1.0  0.31400  0.36300  0.25700  1.0000
  O   O15       1.0  0.95100  0.55700  0.31400  1.0000
  O   O16       1.0  0.86300  0.75700  0.31400  1.0000
  O   O17       1.0  0.81400  0.25700  0.36300  1.0000
  O   O18       1.0  0.04920  0.10600  0.36300  1.0000
  O   O19       1.0  0.63700  0.45100  0.39400  1.0000
  O   O20       1.0  0.25700  0.94300  0.39400  1.0000
  O   O21       1.0  0.39400  0.75700  0.44300  1.0000
  O   O22       1.0  0.54900  0.68600  0.44300  1.0000
  O   O23       1.0  0.81400  0.05680  0.45100  1.0000
  O   O24       1.0  0.13700  0.39400  0.45100  1.0000
  O   O25       1.0  0.86300  0.60600  0.54900  1.0000
  O   O26       1.0  0.18600  0.94300  0.54900  1.0000
  O   O27       1.0  0.60600  0.24300  0.55700  1.0000
  O   O28       1.0  0.45100  0.31400  0.55700  1.0000
  O   O29       1.0  0.74300  0.05680  0.60600  1.0000
  O   O30       1.0  0.36300  0.54900  0.60600  1.0000
  O   O31       1.0  0.18600  0.74300  0.63700  1.0000
  O   O32       1.0  0.95100  0.89400  0.63700  1.0000
  O   O33       1.0  0.13700  0.24300  0.68600  1.0000
  O   O34       1.0  0.04920  0.44300  0.68600  1.0000
  O   O35       1.0  0.55700  0.10600  0.74300  1.0000
  O   O36       1.0  0.68600  0.63700  0.74300  1.0000
  O   O37       1.0  0.36300  0.31400  0.75700  1.0000
  O   O38       1.0  0.89400  0.44300  0.75700  1.0000
  O   O39       1.0  0.75700  0.86300  0.81400  1.0000
  O   O40       1.0  0.55700  0.95100  0.81400  1.0000
  O   O41       1.0  0.10600  0.04920  0.86300  1.0000
  O   O42       1.0  0.25700  0.81400  0.86300  1.0000
  O   O43       1.0  0.45100  0.63700  0.89400  1.0000
  O   O44       1.0  0.94300  0.25700  0.89400  1.0000
  O   O45       1.0  0.68600  0.54900  0.94300  1.0000
  O   O46       1.0  0.75700  0.39400  0.94300  1.0000
  O   O47       1.0  0.39400  0.13700  0.95100  1.0000
  O   O48       1.0  0.05680  0.81400  0.95100  1.0000
