data_image0
_chemical_formula_structural       P4Pd2
_chemical_formula_sum              "P4 Pd2"
_cell_length_a       4.52358
_cell_length_b       4.52358
_cell_length_c       5.82491
_cell_angle_alpha    111.48
_cell_angle_beta     107.145
_cell_angle_gamma    98.562

_space_group_name_H-M_alt    "P 1"
_space_group_IT_number       1

loop_
  _space_group_symop_operation_xyz
  'x, y, z'

loop_
  _atom_site_type_symbol
  _atom_site_label
  _atom_site_symmetry_multiplicity
  _atom_site_fract_x
  _atom_site_fract_y
  _atom_site_fract_z
  _atom_site_occupancy
  P   P1        1.0  0.43500  0.97700  0.16500  1.0000
  P   P2        1.0  0.81200  0.77000  0.33500  1.0000
  P   P3        1.0  0.18800  0.23000  0.66500  1.0000
  P   P4        1.0  0.56500  0.02280  0.83500  1.0000
  Pd  Pd1       1.0  0.00000  0.50000  0.00000  1.0000
  Pd  Pd2       1.0  0.50000  0.50000  0.50000  1.0000
