data_image0
_chemical_formula_structural       Au12Hg12O48Pa8
_chemical_formula_sum              "Au12 Hg12 O48 Pa8"
_cell_length_a       12.0248
_cell_length_b       12.0248
_cell_length_c       12.0248
_cell_angle_alpha    109.471
_cell_angle_beta     109.471
_cell_angle_gamma    109.471

_space_group_name_H-M_alt    "P 1"
_space_group_IT_number       1

loop_
  _space_group_symop_operation_xyz
  'x, y, z'

loop_
  _atom_site_type_symbol
  _atom_site_label
  _atom_site_symmetry_multiplicity
  _atom_site_fract_x
  _atom_site_fract_y
  _atom_site_fract_z
  _atom_site_occupancy
  Au  Au1       1.0  0.87500  0.75000  0.12500  1.0000
  Au  Au2       1.0  0.75000  0.37500  0.12500  1.0000
  Au  Au3       1.0  0.12500  0.37500  0.25000  1.0000
  Au  Au4       1.0  0.62500  0.87500  0.25000  1.0000
  Au  Au5       1.0  0.25000  0.12500  0.37500  1.0000
  Au  Au6       1.0  0.62500  0.25000  0.37500  1.0000
  Au  Au7       1.0  0.37500  0.75000  0.62500  1.0000
  Au  Au8       1.0  0.75000  0.87500  0.62500  1.0000
  Au  Au9       1.0  0.37500  0.12500  0.75000  1.0000
  Au  Au10      1.0  0.87500  0.62500  0.75000  1.0000
  Au  Au11      1.0  0.12500  0.25000  0.87500  1.0000
  Au  Au12      1.0  0.25000  0.62500  0.87500  1.0000
  Hg  Hg1       1.0  0.37500  0.25000  0.12500  1.0000
  Hg  Hg2       1.0  0.25000  0.87500  0.12500  1.0000
  Hg  Hg3       1.0  0.87500  0.12500  0.25000  1.0000
  Hg  Hg4       1.0  0.37500  0.62500  0.25000  1.0000
  Hg  Hg5       1.0  0.12500  0.75000  0.37500  1.0000
  Hg  Hg6       1.0  0.75000  0.62500  0.37500  1.0000
  Hg  Hg7       1.0  0.87500  0.25000  0.62500  1.0000
  Hg  Hg8       1.0  0.25000  0.37500  0.62500  1.0000
  Hg  Hg9       1.0  0.62500  0.37500  0.75000  1.0000
  Hg  Hg10      1.0  0.12500  0.87500  0.75000  1.0000
  Hg  Hg11      1.0  0.75000  0.12500  0.87500  1.0000
  Hg  Hg12      1.0  0.62500  0.75000  0.87500  1.0000
  O   O1        1.0  0.33700  0.36200  0.01140  1.0000
  O   O2        1.0  0.17400  0.65000  0.01140  1.0000
  O   O3        1.0  0.85000  0.86200  0.02460  1.0000
  O   O4        1.0  0.67400  0.16300  0.02460  1.0000
  O   O5        1.0  0.65000  0.97500  0.13800  1.0000
  O   O6        1.0  0.98900  0.16300  0.13800  1.0000
  O   O7        1.0  0.63800  0.47500  0.15000  1.0000
  O   O8        1.0  0.01140  0.67400  0.15000  1.0000
  O   O9        1.0  0.48900  0.13800  0.16300  1.0000
  O   O10       1.0  0.17400  0.02460  0.16300  1.0000
  O   O11       1.0  0.52500  0.66300  0.17400  1.0000
  O   O12       1.0  0.15000  0.51100  0.17400  1.0000
  O   O13       1.0  0.33700  0.47500  0.32600  1.0000
  O   O14       1.0  0.48900  0.85000  0.32600  1.0000
  O   O15       1.0  0.86200  0.51100  0.33700  1.0000
  O   O16       1.0  0.97500  0.82600  0.33700  1.0000
  O   O17       1.0  0.52500  0.36200  0.35000  1.0000
  O   O18       1.0  0.32600  0.98900  0.35000  1.0000
  O   O19       1.0  0.02460  0.35000  0.36200  1.0000
  O   O20       1.0  0.83700  0.01140  0.36200  1.0000
  O   O21       1.0  0.13800  0.15000  0.47500  1.0000
  O   O22       1.0  0.83700  0.32600  0.47500  1.0000
  O   O23       1.0  0.63800  0.66300  0.48900  1.0000
  O   O24       1.0  0.35000  0.82600  0.48900  1.0000
  O   O25       1.0  0.65000  0.17400  0.51100  1.0000
  O   O26       1.0  0.36200  0.33700  0.51100  1.0000
  O   O27       1.0  0.86200  0.85000  0.52500  1.0000
  O   O28       1.0  0.16300  0.67400  0.52500  1.0000
  O   O29       1.0  0.16300  0.98900  0.63800  1.0000
  O   O30       1.0  0.97500  0.65000  0.63800  1.0000
  O   O31       1.0  0.67400  0.01140  0.65000  1.0000
  O   O32       1.0  0.47500  0.63800  0.65000  1.0000
  O   O33       1.0  0.02460  0.17400  0.66300  1.0000
  O   O34       1.0  0.13800  0.48900  0.66300  1.0000
  O   O35       1.0  0.66300  0.52500  0.67400  1.0000
  O   O36       1.0  0.51100  0.15000  0.67400  1.0000
  O   O37       1.0  0.85000  0.48900  0.82600  1.0000
  O   O38       1.0  0.47500  0.33700  0.82600  1.0000
  O   O39       1.0  0.82600  0.97500  0.83700  1.0000
  O   O40       1.0  0.51100  0.86200  0.83700  1.0000
  O   O41       1.0  0.98900  0.32600  0.85000  1.0000
  O   O42       1.0  0.36200  0.52500  0.85000  1.0000
  O   O43       1.0  0.01140  0.83700  0.86200  1.0000
  O   O44       1.0  0.35000  0.02460  0.86200  1.0000
  O   O45       1.0  0.32600  0.83700  0.97500  1.0000
  O   O46       1.0  0.15000  0.13800  0.97500  1.0000
  O   O47       1.0  0.82600  0.35000  0.98900  1.0000
  O   O48       1.0  0.66300  0.63800  0.98900  1.0000
  Pa  Pa1       1.0  0.00000  0.00000  0.00000  1.0000
  Pa  Pa2       1.0  0.50000  0.00000  0.00000  1.0000
  Pa  Pa3       1.0  0.50000  0.50000  0.00000  1.0000
  Pa  Pa4       1.0  0.00000  0.50000  0.00000  1.0000
  Pa  Pa5       1.0  0.50000  0.00000  0.50000  1.0000
  Pa  Pa6       1.0  0.00000  0.50000  0.50000  1.0000
  Pa  Pa7       1.0  0.00000  0.00000  0.50000  1.0000
  Pa  Pa8       1.0  0.50000  0.50000  0.50000  1.0000
