data_image0
_chemical_formula_structural       Ga4Sc2
_chemical_formula_sum              "Ga4 Sc2"
_cell_length_a       4.13013
_cell_length_b       5.54707
_cell_length_c       5.54707
_cell_angle_alpha    90.9888
_cell_angle_beta     111.856
_cell_angle_gamma    111.856

_space_group_name_H-M_alt    "P 1"
_space_group_IT_number       1

loop_
  _space_group_symop_operation_xyz
  'x, y, z'

loop_
  _atom_site_type_symbol
  _atom_site_label
  _atom_site_symmetry_multiplicity
  _atom_site_fract_x
  _atom_site_fract_y
  _atom_site_fract_z
  _atom_site_occupancy
  Ga  Ga1       1.0  0.04330  0.88400  0.20200  1.0000
  Ga  Ga2       1.0  0.54300  0.70200  0.38400  1.0000
  Ga  Ga3       1.0  0.45700  0.29800  0.61600  1.0000
  Ga  Ga4       1.0  0.95700  0.11600  0.79800  1.0000
  Sc  Sc1       1.0  0.75000  0.30700  0.19300  1.0000
  Sc  Sc2       1.0  0.25000  0.69300  0.80700  1.0000
