data_image0
_chemical_formula_structural       Al2MgS4
_chemical_formula_sum              "Al2 Mg1 S4"
_cell_length_a       3.70395
_cell_length_b       3.70395
_cell_length_c       12.465
_cell_angle_alpha    81.4557
_cell_angle_beta     98.5443
_cell_angle_gamma    120

_space_group_name_H-M_alt    "P 1"
_space_group_IT_number       1

loop_
  _space_group_symop_operation_xyz
  'x, y, z'

loop_
  _atom_site_type_symbol
  _atom_site_label
  _atom_site_symmetry_multiplicity
  _atom_site_fract_x
  _atom_site_fract_y
  _atom_site_fract_z
  _atom_site_occupancy
  Al  Al1       1.0  0.76200  0.23800  0.28700  1.0000
  Al  Al2       1.0  0.23600  0.76400  0.70900  1.0000
  Mg  Mg1       1.0  0.99900  0.00059  0.99800  1.0000
  S   S1        1.0  0.70400  0.29600  0.11100  1.0000
  S   S2        1.0  0.12200  0.87800  0.36700  1.0000
  S   S3        1.0  0.87700  0.12300  0.63000  1.0000
  S   S4        1.0  0.29500  0.70500  0.88600  1.0000
