data_image0
_chemical_formula_structural       Ho2S4
_chemical_formula_sum              "Ho2 S4"
_cell_length_a       3.84035
_cell_length_b       3.84035
_cell_length_c       7.91384
_cell_angle_alpha    90
_cell_angle_beta     90
_cell_angle_gamma    90

_space_group_name_H-M_alt    "P 1"
_space_group_IT_number       1

loop_
  _space_group_symop_operation_xyz
  'x, y, z'

loop_
  _atom_site_type_symbol
  _atom_site_label
  _atom_site_symmetry_multiplicity
  _atom_site_fract_x
  _atom_site_fract_y
  _atom_site_fract_z
  _atom_site_occupancy
  Ho  Ho1       1.0  0.25000  0.25000  0.27300  1.0000
  Ho  Ho2       1.0  0.75000  0.75000  0.72700  1.0000
  S   S1        1.0  0.75000  0.25000  0.00000  1.0000
  S   S2        1.0  0.25000  0.75000  0.00000  1.0000
  S   S3        1.0  0.75000  0.75000  0.36800  1.0000
  S   S4        1.0  0.25000  0.25000  0.63200  1.0000
