data_image0
_chemical_formula_structural       Ac8Au12Hg12O48
_chemical_formula_sum              "Ac8 Au12 Hg12 O48"
_cell_length_a       12.0568
_cell_length_b       12.0568
_cell_length_c       12.0568
_cell_angle_alpha    109.471
_cell_angle_beta     109.471
_cell_angle_gamma    109.471

_space_group_name_H-M_alt    "P 1"
_space_group_IT_number       1

loop_
  _space_group_symop_operation_xyz
  'x, y, z'

loop_
  _atom_site_type_symbol
  _atom_site_label
  _atom_site_symmetry_multiplicity
  _atom_site_fract_x
  _atom_site_fract_y
  _atom_site_fract_z
  _atom_site_occupancy
  Ac  Ac1       1.0  0.00000  0.00000  0.00000  1.0000
  Ac  Ac2       1.0  0.50000  0.00000  0.00000  1.0000
  Ac  Ac3       1.0  0.50000  0.50000  0.00000  1.0000
  Ac  Ac4       1.0  0.00000  0.50000  0.00000  1.0000
  Ac  Ac5       1.0  0.50000  0.00000  0.50000  1.0000
  Ac  Ac6       1.0  0.00000  0.50000  0.50000  1.0000
  Ac  Ac7       1.0  0.00000  0.00000  0.50000  1.0000
  Ac  Ac8       1.0  0.50000  0.50000  0.50000  1.0000
  Au  Au1       1.0  0.75000  0.37500  0.12500  1.0000
  Au  Au2       1.0  0.87500  0.75000  0.12500  1.0000
  Au  Au3       1.0  0.12500  0.37500  0.25000  1.0000
  Au  Au4       1.0  0.62500  0.87500  0.25000  1.0000
  Au  Au5       1.0  0.25000  0.12500  0.37500  1.0000
  Au  Au6       1.0  0.62500  0.25000  0.37500  1.0000
  Au  Au7       1.0  0.37500  0.75000  0.62500  1.0000
  Au  Au8       1.0  0.75000  0.87500  0.62500  1.0000
  Au  Au9       1.0  0.37500  0.12500  0.75000  1.0000
  Au  Au10      1.0  0.87500  0.62500  0.75000  1.0000
  Au  Au11      1.0  0.12500  0.25000  0.87500  1.0000
  Au  Au12      1.0  0.25000  0.62500  0.87500  1.0000
  Hg  Hg1       1.0  0.37500  0.25000  0.12500  1.0000
  Hg  Hg2       1.0  0.25000  0.87500  0.12500  1.0000
  Hg  Hg3       1.0  0.87500  0.12500  0.25000  1.0000
  Hg  Hg4       1.0  0.37500  0.62500  0.25000  1.0000
  Hg  Hg5       1.0  0.12500  0.75000  0.37500  1.0000
  Hg  Hg6       1.0  0.75000  0.62500  0.37500  1.0000
  Hg  Hg7       1.0  0.87500  0.25000  0.62500  1.0000
  Hg  Hg8       1.0  0.25000  0.37500  0.62500  1.0000
  Hg  Hg9       1.0  0.62500  0.37500  0.75000  1.0000
  Hg  Hg10      1.0  0.12500  0.87500  0.75000  1.0000
  Hg  Hg11      1.0  0.75000  0.12500  0.87500  1.0000
  Hg  Hg12      1.0  0.62500  0.75000  0.87500  1.0000
  O   O1        1.0  0.31700  0.37700  0.03150  1.0000
  O   O2        1.0  0.21500  0.65500  0.03150  1.0000
  O   O3        1.0  0.84500  0.87700  0.05990  1.0000
  O   O4        1.0  0.71500  0.18300  0.05990  1.0000
  O   O5        1.0  0.65500  0.94000  0.12300  1.0000
  O   O6        1.0  0.96800  0.18300  0.12300  1.0000
  O   O7        1.0  0.03150  0.71500  0.15500  1.0000
  O   O8        1.0  0.62300  0.44000  0.15500  1.0000
  O   O9        1.0  0.46800  0.12300  0.18300  1.0000
  O   O10       1.0  0.21500  0.05990  0.18300  1.0000
  O   O11       1.0  0.15500  0.53200  0.21500  1.0000
  O   O12       1.0  0.56000  0.68300  0.21500  1.0000
  O   O13       1.0  0.31700  0.44000  0.28500  1.0000
  O   O14       1.0  0.46800  0.84500  0.28500  1.0000
  O   O15       1.0  0.87700  0.53200  0.31700  1.0000
  O   O16       1.0  0.94000  0.78500  0.31700  1.0000
  O   O17       1.0  0.28500  0.96800  0.34500  1.0000
  O   O18       1.0  0.56000  0.37700  0.34500  1.0000
  O   O19       1.0  0.05990  0.34500  0.37700  1.0000
  O   O20       1.0  0.81700  0.03150  0.37700  1.0000
  O   O21       1.0  0.12300  0.15500  0.44000  1.0000
  O   O22       1.0  0.81700  0.28500  0.44000  1.0000
  O   O23       1.0  0.62300  0.68300  0.46800  1.0000
  O   O24       1.0  0.34500  0.78500  0.46800  1.0000
  O   O25       1.0  0.65500  0.21500  0.53200  1.0000
  O   O26       1.0  0.37700  0.31700  0.53200  1.0000
  O   O27       1.0  0.18300  0.71500  0.56000  1.0000
  O   O28       1.0  0.87700  0.84500  0.56000  1.0000
  O   O29       1.0  0.18300  0.96800  0.62300  1.0000
  O   O30       1.0  0.94000  0.65500  0.62300  1.0000
  O   O31       1.0  0.44000  0.62300  0.65500  1.0000
  O   O32       1.0  0.71500  0.03150  0.65500  1.0000
  O   O33       1.0  0.05990  0.21500  0.68300  1.0000
  O   O34       1.0  0.12300  0.46800  0.68300  1.0000
  O   O35       1.0  0.68300  0.56000  0.71500  1.0000
  O   O36       1.0  0.53200  0.15500  0.71500  1.0000
  O   O37       1.0  0.44000  0.31700  0.78500  1.0000
  O   O38       1.0  0.84500  0.46800  0.78500  1.0000
  O   O39       1.0  0.78500  0.94000  0.81700  1.0000
  O   O40       1.0  0.53200  0.87700  0.81700  1.0000
  O   O41       1.0  0.37700  0.56000  0.84500  1.0000
  O   O42       1.0  0.96800  0.28500  0.84500  1.0000
  O   O43       1.0  0.03150  0.81700  0.87700  1.0000
  O   O44       1.0  0.34500  0.05990  0.87700  1.0000
  O   O45       1.0  0.15500  0.12300  0.94000  1.0000
  O   O46       1.0  0.28500  0.81700  0.94000  1.0000
  O   O47       1.0  0.78500  0.34500  0.96800  1.0000
  O   O48       1.0  0.68300  0.62300  0.96800  1.0000
