data_image0
_chemical_formula_structural       Co4Dy4Ga4
_chemical_formula_sum              "Co4 Dy4 Ga4"
_cell_length_a       7.04554
_cell_length_b       4.41853
_cell_length_c       6.8326
_cell_angle_alpha    90
_cell_angle_beta     90
_cell_angle_gamma    90

_space_group_name_H-M_alt    "P 1"
_space_group_IT_number       1

loop_
  _space_group_symop_operation_xyz
  'x, y, z'

loop_
  _atom_site_type_symbol
  _atom_site_label
  _atom_site_symmetry_multiplicity
  _atom_site_fract_x
  _atom_site_fract_y
  _atom_site_fract_z
  _atom_site_occupancy
  Co  Co1       1.0  0.65200  0.75000  0.06330  1.0000
  Co  Co2       1.0  0.15200  0.75000  0.43700  1.0000
  Co  Co3       1.0  0.84800  0.25000  0.56300  1.0000
  Co  Co4       1.0  0.34800  0.25000  0.93700  1.0000
  Dy  Dy1       1.0  0.02500  0.25000  0.19500  1.0000
  Dy  Dy2       1.0  0.52500  0.25000  0.30500  1.0000
  Dy  Dy3       1.0  0.47500  0.75000  0.69500  1.0000
  Dy  Dy4       1.0  0.97500  0.75000  0.80500  1.0000
  Ga  Ga1       1.0  0.30500  0.75000  0.10800  1.0000
  Ga  Ga2       1.0  0.80500  0.75000  0.39200  1.0000
  Ga  Ga3       1.0  0.19500  0.25000  0.60800  1.0000
  Ga  Ga4       1.0  0.69500  0.25000  0.89200  1.0000
