data_image0
_chemical_formula_structural       Co4Ge4Tb4
_chemical_formula_sum              "Co4 Ge4 Tb4"
_cell_length_a       6.96009
_cell_length_b       4.26123
_cell_length_c       7.14168
_cell_angle_alpha    90
_cell_angle_beta     90
_cell_angle_gamma    90

_space_group_name_H-M_alt    "P 1"
_space_group_IT_number       1

loop_
  _space_group_symop_operation_xyz
  'x, y, z'

loop_
  _atom_site_type_symbol
  _atom_site_label
  _atom_site_symmetry_multiplicity
  _atom_site_fract_x
  _atom_site_fract_y
  _atom_site_fract_z
  _atom_site_occupancy
  Co  Co1       1.0  0.34700  0.75000  0.06710  1.0000
  Co  Co2       1.0  0.84700  0.75000  0.43300  1.0000
  Co  Co3       1.0  0.15300  0.25000  0.56700  1.0000
  Co  Co4       1.0  0.65300  0.25000  0.93300  1.0000
  Ge  Ge1       1.0  0.70000  0.75000  0.10200  1.0000
  Ge  Ge2       1.0  0.20000  0.75000  0.39800  1.0000
  Ge  Ge3       1.0  0.80000  0.25000  0.60200  1.0000
  Ge  Ge4       1.0  0.30000  0.25000  0.89800  1.0000
  Tb  Tb1       1.0  0.98600  0.25000  0.19500  1.0000
  Tb  Tb2       1.0  0.48600  0.25000  0.30500  1.0000
  Tb  Tb3       1.0  0.51400  0.75000  0.69500  1.0000
  Tb  Tb4       1.0  0.01400  0.75000  0.80500  1.0000
