data_image0
_chemical_formula_structural       Ca4H16Mg4Ni4
_chemical_formula_sum              "Ca4 H16 Mg4 Ni4"
_cell_length_a       6.65614
_cell_length_b       6.65614
_cell_length_c       6.65614
_cell_angle_alpha    90
_cell_angle_beta     90
_cell_angle_gamma    90

_space_group_name_H-M_alt    "P 1"
_space_group_IT_number       1

loop_
  _space_group_symop_operation_xyz
  'x, y, z'

loop_
  _atom_site_type_symbol
  _atom_site_label
  _atom_site_symmetry_multiplicity
  _atom_site_fract_x
  _atom_site_fract_y
  _atom_site_fract_z
  _atom_site_occupancy
  Ca  Ca1       1.0  0.67300  0.82700  0.17300  1.0000
  Ca  Ca2       1.0  0.32700  0.32700  0.32700  1.0000
  Ca  Ca3       1.0  0.82700  0.17300  0.67300  1.0000
  Ca  Ca4       1.0  0.17300  0.67300  0.82700  1.0000
  H   H1        1.0  0.56500  0.23400  0.04880  1.0000
  H   H2        1.0  0.26600  0.95100  0.06500  1.0000
  H   H3        1.0  0.40900  0.59100  0.09100  1.0000
  H   H4        1.0  0.04880  0.56500  0.23400  1.0000
  H   H5        1.0  0.95100  0.06500  0.26600  1.0000
  H   H6        1.0  0.59100  0.09100  0.40900  1.0000
  H   H7        1.0  0.73400  0.45100  0.43500  1.0000
  H   H8        1.0  0.43500  0.73400  0.45100  1.0000
  H   H9        1.0  0.93500  0.76600  0.54900  1.0000
  H   H10       1.0  0.23400  0.04880  0.56500  1.0000
  H   H11       1.0  0.09100  0.40900  0.59100  1.0000
  H   H12       1.0  0.45100  0.43500  0.73400  1.0000
  H   H13       1.0  0.54900  0.93500  0.76600  1.0000
  H   H14       1.0  0.90900  0.90900  0.90900  1.0000
  H   H15       1.0  0.76600  0.54900  0.93500  1.0000
  H   H16       1.0  0.06500  0.26600  0.95100  1.0000
  Mg  Mg1       1.0  0.83700  0.33700  0.16300  1.0000
  Mg  Mg2       1.0  0.16300  0.83700  0.33700  1.0000
  Mg  Mg3       1.0  0.66300  0.66300  0.66300  1.0000
  Mg  Mg4       1.0  0.33700  0.16300  0.83700  1.0000
  Ni  Ni1       1.0  0.04750  0.04750  0.04750  1.0000
  Ni  Ni2       1.0  0.95300  0.54700  0.45300  1.0000
  Ni  Ni3       1.0  0.45300  0.95300  0.54700  1.0000
  Ni  Ni4       1.0  0.54700  0.45300  0.95300  1.0000
