data_image0
_chemical_formula_structural       I2Sb2Te2
_chemical_formula_sum              "I2 Sb2 Te2"
_cell_length_a       7.72828
_cell_length_b       7.46887
_cell_length_c       4.29226
_cell_angle_alpha    106.709
_cell_angle_beta     106.121
_cell_angle_gamma    77.9554

_space_group_name_H-M_alt    "P 1"
_space_group_IT_number       1

loop_
  _space_group_symop_operation_xyz
  'x, y, z'

loop_
  _atom_site_type_symbol
  _atom_site_label
  _atom_site_symmetry_multiplicity
  _atom_site_fract_x
  _atom_site_fract_y
  _atom_site_fract_z
  _atom_site_occupancy
  I   I1        1.0  0.63500  0.21300  0.42400  1.0000
  I   I2        1.0  0.36500  0.78700  0.57600  1.0000
  Sb  Sb1       1.0  0.75600  0.50800  0.13200  1.0000
  Sb  Sb2       1.0  0.24400  0.49200  0.86800  1.0000
  Te  Te1       1.0  0.09610  0.26100  0.17900  1.0000
  Te  Te2       1.0  0.90400  0.73900  0.82100  1.0000
