data_image0
_chemical_formula_structural       Mg18Si10
_chemical_formula_sum              "Mg18 Si10"
_cell_length_a       7.16334
_cell_length_b       7.16336
_cell_length_c       12.2914
_cell_angle_alpha    90
_cell_angle_beta     90
_cell_angle_gamma    120

_space_group_name_H-M_alt    "P 1"
_space_group_IT_number       1

loop_
  _space_group_symop_operation_xyz
  'x, y, z'

loop_
  _atom_site_type_symbol
  _atom_site_label
  _atom_site_symmetry_multiplicity
  _atom_site_fract_x
  _atom_site_fract_y
  _atom_site_fract_z
  _atom_site_occupancy
  Mg  Mg1       1.0  0.67900  0.08450  0.08310  1.0000
  Mg  Mg2       1.0  0.40500  0.32100  0.08310  1.0000
  Mg  Mg3       1.0  0.91600  0.59500  0.08310  1.0000
  Mg  Mg4       1.0  0.07220  0.34600  0.25000  1.0000
  Mg  Mg5       1.0  0.65400  0.72600  0.25000  1.0000
  Mg  Mg6       1.0  0.27400  0.92800  0.25000  1.0000
  Mg  Mg7       1.0  0.91600  0.59500  0.41700  1.0000
  Mg  Mg8       1.0  0.67900  0.08450  0.41700  1.0000
  Mg  Mg9       1.0  0.40500  0.32100  0.41700  1.0000
  Mg  Mg10      1.0  0.59500  0.67900  0.58300  1.0000
  Mg  Mg11      1.0  0.32100  0.91600  0.58300  1.0000
  Mg  Mg12      1.0  0.08450  0.40500  0.58300  1.0000
  Mg  Mg13      1.0  0.72600  0.07220  0.75000  1.0000
  Mg  Mg14      1.0  0.34600  0.27400  0.75000  1.0000
  Mg  Mg15      1.0  0.92800  0.65400  0.75000  1.0000
  Mg  Mg16      1.0  0.08450  0.40500  0.91700  1.0000
  Mg  Mg17      1.0  0.59500  0.67900  0.91700  1.0000
  Mg  Mg18      1.0  0.32100  0.91600  0.91700  1.0000
  Si  Si1       1.0  0.33300  0.66700  0.08790  1.0000
  Si  Si2       1.0  0.00000  0.00000  0.10100  1.0000
  Si  Si3       1.0  0.66700  0.33300  0.25000  1.0000
  Si  Si4       1.0  0.00000  0.00000  0.39900  1.0000
  Si  Si5       1.0  0.33300  0.66700  0.41200  1.0000
  Si  Si6       1.0  0.66700  0.33300  0.58800  1.0000
  Si  Si7       1.0  0.00000  0.00000  0.60100  1.0000
  Si  Si8       1.0  0.33300  0.66700  0.75000  1.0000
  Si  Si9       1.0  0.00000  0.00000  0.89900  1.0000
  Si  Si10      1.0  0.66700  0.33300  0.91200  1.0000
