data_image0
_chemical_formula_structural       Mg18Sn10
_chemical_formula_sum              "Mg18 Sn10"
_cell_length_a       8.84425
_cell_length_b       8.84425
_cell_length_c       8.84425
_cell_angle_alpha    96.961
_cell_angle_beta     96.961
_cell_angle_gamma    96.961

_space_group_name_H-M_alt    "P 1"
_space_group_IT_number       1

loop_
  _space_group_symop_operation_xyz
  'x, y, z'

loop_
  _atom_site_type_symbol
  _atom_site_label
  _atom_site_symmetry_multiplicity
  _atom_site_fract_x
  _atom_site_fract_y
  _atom_site_fract_z
  _atom_site_occupancy
  Mg  Mg1       1.0  0.91800  0.32500  0.00448  1.0000
  Mg  Mg2       1.0  0.32100  0.39500  0.02030  1.0000
  Mg  Mg3       1.0  0.68100  0.99400  0.07260  1.0000
  Mg  Mg4       1.0  0.65200  0.34300  0.25600  1.0000
  Mg  Mg5       1.0  0.39500  0.02030  0.32100  1.0000
  Mg  Mg6       1.0  0.00448  0.91800  0.32500  1.0000
  Mg  Mg7       1.0  0.65300  0.74400  0.33600  1.0000
  Mg  Mg8       1.0  0.25600  0.65200  0.34300  1.0000
  Mg  Mg9       1.0  0.02030  0.32100  0.39500  1.0000
  Mg  Mg10      1.0  0.97100  0.66600  0.59600  1.0000
  Mg  Mg11      1.0  0.34300  0.25600  0.65200  1.0000
  Mg  Mg12      1.0  0.74400  0.33600  0.65300  1.0000
  Mg  Mg13      1.0  0.59600  0.97100  0.66600  1.0000
  Mg  Mg14      1.0  0.99400  0.07260  0.68100  1.0000
  Mg  Mg15      1.0  0.33600  0.65300  0.74400  1.0000
  Mg  Mg16      1.0  0.32500  0.00448  0.91800  1.0000
  Mg  Mg17      1.0  0.66600  0.59600  0.97100  1.0000
  Mg  Mg18      1.0  0.07260  0.68100  0.99400  1.0000
  Sn  Sn1       1.0  0.41000  0.74900  0.08190  1.0000
  Sn  Sn2       1.0  0.11300  0.11300  0.11300  1.0000
  Sn  Sn3       1.0  0.91100  0.58400  0.24900  1.0000
  Sn  Sn4       1.0  0.35100  0.35100  0.35100  1.0000
  Sn  Sn5       1.0  0.74900  0.08190  0.41000  1.0000
  Sn  Sn6       1.0  0.24900  0.91100  0.58400  1.0000
  Sn  Sn7       1.0  0.61300  0.61300  0.61300  1.0000
  Sn  Sn8       1.0  0.08190  0.41000  0.74900  1.0000
  Sn  Sn9       1.0  0.85000  0.85000  0.85000  1.0000
  Sn  Sn10      1.0  0.58400  0.24900  0.91100  1.0000
