data_image0
_chemical_formula_structural       Cd2Ni2O2Te2
_chemical_formula_sum              "Cd2 Ni2 O2 Te2"
_cell_length_a       3.45816
_cell_length_b       5.80736
_cell_length_c       7.09509
_cell_angle_alpha    90
_cell_angle_beta     75.8949
_cell_angle_gamma    90

_space_group_name_H-M_alt    "P 1"
_space_group_IT_number       1

loop_
  _space_group_symop_operation_xyz
  'x, y, z'

loop_
  _atom_site_type_symbol
  _atom_site_label
  _atom_site_symmetry_multiplicity
  _atom_site_fract_x
  _atom_site_fract_y
  _atom_site_fract_z
  _atom_site_occupancy
  Cd  Cd1       1.0  0.43800  0.75000  0.12400  1.0000
  Cd  Cd2       1.0  0.56200  0.25000  0.87600  1.0000
  Ni  Ni1       1.0  0.89300  0.25000  0.21400  1.0000
  Ni  Ni2       1.0  0.10700  0.75000  0.78600  1.0000
  O   O1        1.0  0.00000  0.00000  0.00000  1.0000
  O   O2        1.0  0.00000  0.50000  0.00000  1.0000
  Te  Te1       1.0  0.75000  0.75000  0.49900  1.0000
  Te  Te2       1.0  0.25000  0.25000  0.50100  1.0000
