data_image0
_chemical_formula_structural       Ag12Ce8Na12O48
_chemical_formula_sum              "Ag12 Ce8 Na12 O48"
_cell_length_a       11.1126
_cell_length_b       11.1126
_cell_length_c       11.1126
_cell_angle_alpha    109.471
_cell_angle_beta     109.471
_cell_angle_gamma    109.471

_space_group_name_H-M_alt    "P 1"
_space_group_IT_number       1

loop_
  _space_group_symop_operation_xyz
  'x, y, z'

loop_
  _atom_site_type_symbol
  _atom_site_label
  _atom_site_symmetry_multiplicity
  _atom_site_fract_x
  _atom_site_fract_y
  _atom_site_fract_z
  _atom_site_occupancy
  Ag  Ag1       1.0  0.87500  0.75000  0.12500  1.0000
  Ag  Ag2       1.0  0.75000  0.37500  0.12500  1.0000
  Ag  Ag3       1.0  0.12500  0.37500  0.25000  1.0000
  Ag  Ag4       1.0  0.62500  0.87500  0.25000  1.0000
  Ag  Ag5       1.0  0.62500  0.25000  0.37500  1.0000
  Ag  Ag6       1.0  0.25000  0.12500  0.37500  1.0000
  Ag  Ag7       1.0  0.37500  0.75000  0.62500  1.0000
  Ag  Ag8       1.0  0.75000  0.87500  0.62500  1.0000
  Ag  Ag9       1.0  0.37500  0.12500  0.75000  1.0000
  Ag  Ag10      1.0  0.87500  0.62500  0.75000  1.0000
  Ag  Ag11      1.0  0.12500  0.25000  0.87500  1.0000
  Ag  Ag12      1.0  0.25000  0.62500  0.87500  1.0000
  Ce  Ce1       1.0  0.00000  0.00000  0.00000  1.0000
  Ce  Ce2       1.0  0.50000  0.00000  0.00000  1.0000
  Ce  Ce3       1.0  0.50000  0.50000  0.00000  1.0000
  Ce  Ce4       1.0  0.00000  0.50000  0.00000  1.0000
  Ce  Ce5       1.0  0.50000  0.00000  0.50000  1.0000
  Ce  Ce6       1.0  1.00000  0.50000  0.50000  1.0000
  Ce  Ce7       1.0  0.00000  0.00000  0.50000  1.0000
  Ce  Ce8       1.0  0.50000  0.50000  0.50000  1.0000
  Na  Na1       1.0  0.25000  0.87500  0.12500  1.0000
  Na  Na2       1.0  0.37500  0.25000  0.12500  1.0000
  Na  Na3       1.0  0.87500  0.12500  0.25000  1.0000
  Na  Na4       1.0  0.37500  0.62500  0.25000  1.0000
  Na  Na5       1.0  0.12500  0.75000  0.37500  1.0000
  Na  Na6       1.0  0.75000  0.62500  0.37500  1.0000
  Na  Na7       1.0  0.87500  0.25000  0.62500  1.0000
  Na  Na8       1.0  0.25000  0.37500  0.62500  1.0000
  Na  Na9       1.0  0.62500  0.37500  0.75000  1.0000
  Na  Na10      1.0  0.12500  0.87500  0.75000  1.0000
  Na  Na11      1.0  0.62500  0.75000  0.87500  1.0000
  Na  Na12      1.0  0.75000  0.12500  0.87500  1.0000
  O   O1        1.0  0.90900  0.18100  0.08600  1.0000
  O   O2        1.0  0.67700  0.90500  0.08600  1.0000
  O   O3        1.0  0.27200  0.67700  0.09110  1.0000
  O   O4        1.0  0.31900  0.41400  0.09110  1.0000
  O   O5        1.0  0.82300  0.91400  0.09520  1.0000
  O   O6        1.0  0.77200  0.18100  0.09520  1.0000
  O   O7        1.0  0.09110  0.77200  0.17700  1.0000
  O   O8        1.0  0.58600  0.40500  0.17700  1.0000
  O   O9        1.0  0.27200  0.09520  0.18100  1.0000
  O   O10       1.0  0.40900  0.08600  0.18100  1.0000
  O   O11       1.0  0.31900  0.40500  0.22800  1.0000
  O   O12       1.0  0.40900  0.82300  0.22800  1.0000
  O   O13       1.0  0.17700  0.59100  0.27200  1.0000
  O   O14       1.0  0.59500  0.68100  0.27200  1.0000
  O   O15       1.0  0.90500  0.72800  0.31900  1.0000
  O   O16       1.0  0.91400  0.59100  0.31900  1.0000
  O   O17       1.0  0.59500  0.41400  0.32300  1.0000
  O   O18       1.0  0.22800  0.90900  0.32300  1.0000
  O   O19       1.0  0.08600  0.17700  0.40500  1.0000
  O   O20       1.0  0.81900  0.22800  0.40500  1.0000
  O   O21       1.0  0.32300  0.72800  0.40900  1.0000
  O   O22       1.0  0.58600  0.68100  0.40900  1.0000
  O   O23       1.0  0.81900  0.09110  0.41400  1.0000
  O   O24       1.0  0.09520  0.32300  0.41400  1.0000
  O   O25       1.0  0.90500  0.67700  0.58600  1.0000
  O   O26       1.0  0.18100  0.90900  0.58600  1.0000
  O   O27       1.0  0.41400  0.31900  0.59100  1.0000
  O   O28       1.0  0.67700  0.27200  0.59100  1.0000
  O   O29       1.0  0.18100  0.77200  0.59500  1.0000
  O   O30       1.0  0.91400  0.82300  0.59500  1.0000
  O   O31       1.0  0.40500  0.58600  0.67700  1.0000
  O   O32       1.0  0.77200  0.09110  0.67700  1.0000
  O   O33       1.0  0.09520  0.27200  0.68100  1.0000
  O   O34       1.0  0.08600  0.40900  0.68100  1.0000
  O   O35       1.0  0.82300  0.40900  0.72800  1.0000
  O   O36       1.0  0.40500  0.31900  0.72800  1.0000
  O   O37       1.0  0.59100  0.17700  0.77200  1.0000
  O   O38       1.0  0.68100  0.59500  0.77200  1.0000
  O   O39       1.0  0.59100  0.91400  0.81900  1.0000
  O   O40       1.0  0.72800  0.90500  0.81900  1.0000
  O   O41       1.0  0.90900  0.22800  0.82300  1.0000
  O   O42       1.0  0.41400  0.59500  0.82300  1.0000
  O   O43       1.0  0.17700  0.08600  0.90500  1.0000
  O   O44       1.0  0.22800  0.81900  0.90500  1.0000
  O   O45       1.0  0.72800  0.32300  0.90900  1.0000
  O   O46       1.0  0.68100  0.58600  0.90900  1.0000
  O   O47       1.0  0.32300  0.09520  0.91400  1.0000
  O   O48       1.0  0.09110  0.81900  0.91400  1.0000
