data_image0
_chemical_formula_structural       Ag12Cd12Ce8O48
_chemical_formula_sum              "Ag12 Cd12 Ce8 O48"
_cell_length_a       11.6621
_cell_length_b       11.6621
_cell_length_c       11.6621
_cell_angle_alpha    109.471
_cell_angle_beta     109.471
_cell_angle_gamma    109.471

_space_group_name_H-M_alt    "P 1"
_space_group_IT_number       1

loop_
  _space_group_symop_operation_xyz
  'x, y, z'

loop_
  _atom_site_type_symbol
  _atom_site_label
  _atom_site_symmetry_multiplicity
  _atom_site_fract_x
  _atom_site_fract_y
  _atom_site_fract_z
  _atom_site_occupancy
  Ag  Ag1       1.0  0.75000  0.37500  0.12500  1.0000
  Ag  Ag2       1.0  0.87500  0.75000  0.12500  1.0000
  Ag  Ag3       1.0  0.12500  0.37500  0.25000  1.0000
  Ag  Ag4       1.0  0.62500  0.87500  0.25000  1.0000
  Ag  Ag5       1.0  0.62500  0.25000  0.37500  1.0000
  Ag  Ag6       1.0  0.25000  0.12500  0.37500  1.0000
  Ag  Ag7       1.0  0.37500  0.75000  0.62500  1.0000
  Ag  Ag8       1.0  0.75000  0.87500  0.62500  1.0000
  Ag  Ag9       1.0  0.37500  0.12500  0.75000  1.0000
  Ag  Ag10      1.0  0.87500  0.62500  0.75000  1.0000
  Ag  Ag11      1.0  0.12500  0.25000  0.87500  1.0000
  Ag  Ag12      1.0  0.25000  0.62500  0.87500  1.0000
  Cd  Cd1       1.0  0.25000  0.87500  0.12500  1.0000
  Cd  Cd2       1.0  0.37500  0.25000  0.12500  1.0000
  Cd  Cd3       1.0  0.87500  0.12500  0.25000  1.0000
  Cd  Cd4       1.0  0.37500  0.62500  0.25000  1.0000
  Cd  Cd5       1.0  0.12500  0.75000  0.37500  1.0000
  Cd  Cd6       1.0  0.75000  0.62500  0.37500  1.0000
  Cd  Cd7       1.0  0.87500  0.25000  0.62500  1.0000
  Cd  Cd8       1.0  0.25000  0.37500  0.62500  1.0000
  Cd  Cd9       1.0  0.62500  0.37500  0.75000  1.0000
  Cd  Cd10      1.0  0.12500  0.87500  0.75000  1.0000
  Cd  Cd11      1.0  0.62500  0.75000  0.87500  1.0000
  Cd  Cd12      1.0  0.75000  0.12500  0.87500  1.0000
  Ce  Ce1       1.0  0.00000  0.00000  0.00000  1.0000
  Ce  Ce2       1.0  0.50000  0.00000  0.00000  1.0000
  Ce  Ce3       1.0  0.50000  0.50000  0.00000  1.0000
  Ce  Ce4       1.0  0.00000  0.50000  0.00000  1.0000
  Ce  Ce5       1.0  0.50000  0.00000  0.50000  1.0000
  Ce  Ce6       1.0  1.00000  0.50000  0.50000  1.0000
  Ce  Ce7       1.0  0.00000  0.00000  0.50000  1.0000
  Ce  Ce8       1.0  0.50000  0.50000  0.50000  1.0000
  O   O1        1.0  0.32000  0.39100  0.04250  1.0000
  O   O2        1.0  0.22300  0.65100  0.04250  1.0000
  O   O3        1.0  0.72300  0.18000  0.07140  1.0000
  O   O4        1.0  0.84900  0.89100  0.07140  1.0000
  O   O5        1.0  0.65100  0.92900  0.10900  1.0000
  O   O6        1.0  0.95800  0.18000  0.10900  1.0000
  O   O7        1.0  0.60900  0.42900  0.15100  1.0000
  O   O8        1.0  0.04250  0.72300  0.15100  1.0000
  O   O9        1.0  0.45800  0.10900  0.18000  1.0000
  O   O10       1.0  0.22300  0.07140  0.18000  1.0000
  O   O11       1.0  0.15100  0.54200  0.22300  1.0000
  O   O12       1.0  0.57100  0.68000  0.22300  1.0000
  O   O13       1.0  0.45800  0.84900  0.27700  1.0000
  O   O14       1.0  0.32000  0.42900  0.27700  1.0000
  O   O15       1.0  0.89100  0.54200  0.32000  1.0000
  O   O16       1.0  0.92900  0.77700  0.32000  1.0000
  O   O17       1.0  0.27700  0.95800  0.34900  1.0000
  O   O18       1.0  0.57100  0.39100  0.34900  1.0000
  O   O19       1.0  0.07140  0.34900  0.39100  1.0000
  O   O20       1.0  0.82000  0.04250  0.39100  1.0000
  O   O21       1.0  0.10900  0.15100  0.42900  1.0000
  O   O22       1.0  0.82000  0.27700  0.42900  1.0000
  O   O23       1.0  0.60900  0.68000  0.45800  1.0000
  O   O24       1.0  0.34900  0.77700  0.45800  1.0000
  O   O25       1.0  0.65100  0.22300  0.54200  1.0000
  O   O26       1.0  0.39100  0.32000  0.54200  1.0000
  O   O27       1.0  0.89100  0.84900  0.57100  1.0000
  O   O28       1.0  0.18000  0.72300  0.57100  1.0000
  O   O29       1.0  0.18000  0.95800  0.60900  1.0000
  O   O30       1.0  0.92900  0.65100  0.60900  1.0000
  O   O31       1.0  0.72300  0.04250  0.65100  1.0000
  O   O32       1.0  0.42900  0.60900  0.65100  1.0000
  O   O33       1.0  0.07140  0.22300  0.68000  1.0000
  O   O34       1.0  0.10900  0.45800  0.68000  1.0000
  O   O35       1.0  0.68000  0.57100  0.72300  1.0000
  O   O36       1.0  0.54200  0.15100  0.72300  1.0000
  O   O37       1.0  0.42900  0.32000  0.77700  1.0000
  O   O38       1.0  0.84900  0.45800  0.77700  1.0000
  O   O39       1.0  0.54200  0.89100  0.82000  1.0000
  O   O40       1.0  0.77700  0.92900  0.82000  1.0000
  O   O41       1.0  0.39100  0.57100  0.84900  1.0000
  O   O42       1.0  0.95800  0.27700  0.84900  1.0000
  O   O43       1.0  0.04250  0.82000  0.89100  1.0000
  O   O44       1.0  0.34900  0.07140  0.89100  1.0000
  O   O45       1.0  0.15100  0.10900  0.92900  1.0000
  O   O46       1.0  0.27700  0.82000  0.92900  1.0000
  O   O47       1.0  0.77700  0.34900  0.95800  1.0000
  O   O48       1.0  0.68000  0.60900  0.95800  1.0000
