data_image0
_chemical_formula_structural       Li4Lu4O4Te4
_chemical_formula_sum              "Li4 Lu4 O4 Te4"
_cell_length_a       6.78632
_cell_length_b       7.26928
_cell_length_c       6.38453
_cell_angle_alpha    90
_cell_angle_beta     100.218
_cell_angle_gamma    90

_space_group_name_H-M_alt    "P 1"
_space_group_IT_number       1

loop_
  _space_group_symop_operation_xyz
  'x, y, z'

loop_
  _atom_site_type_symbol
  _atom_site_label
  _atom_site_symmetry_multiplicity
  _atom_site_fract_x
  _atom_site_fract_y
  _atom_site_fract_z
  _atom_site_occupancy
  Li  Li1       1.0  0.87100  0.28700  0.04940  1.0000
  Li  Li2       1.0  0.12900  0.78700  0.45100  1.0000
  Li  Li3       1.0  0.87100  0.21300  0.54900  1.0000
  Li  Li4       1.0  0.12900  0.71300  0.95100  1.0000
  Lu  Lu1       1.0  0.53500  0.62200  0.22200  1.0000
  Lu  Lu2       1.0  0.46500  0.12200  0.27800  1.0000
  Lu  Lu3       1.0  0.53500  0.87800  0.72200  1.0000
  Lu  Lu4       1.0  0.46500  0.37800  0.77800  1.0000
  O   O1        1.0  0.59900  0.34700  0.10600  1.0000
  O   O2        1.0  0.40100  0.84700  0.39400  1.0000
  O   O3        1.0  0.59900  0.15300  0.60600  1.0000
  O   O4        1.0  0.40100  0.65300  0.89400  1.0000
  Te  Te1       1.0  0.82200  0.92400  0.16500  1.0000
  Te  Te2       1.0  0.17800  0.42400  0.33500  1.0000
  Te  Te3       1.0  0.82200  0.57600  0.66500  1.0000
  Te  Te4       1.0  0.17800  0.07630  0.83500  1.0000
