data_image0
_chemical_formula_structural       Co4Sn4Tb4
_chemical_formula_sum              "Co4 Sn4 Tb4"
_cell_length_a       7.34564
_cell_length_b       4.58606
_cell_length_c       7.25852
_cell_angle_alpha    90
_cell_angle_beta     90
_cell_angle_gamma    90

_space_group_name_H-M_alt    "P 1"
_space_group_IT_number       1

loop_
  _space_group_symop_operation_xyz
  'x, y, z'

loop_
  _atom_site_type_symbol
  _atom_site_label
  _atom_site_symmetry_multiplicity
  _atom_site_fract_x
  _atom_site_fract_y
  _atom_site_fract_z
  _atom_site_occupancy
  Co  Co1       1.0  0.34800  0.75000  0.05980  1.0000
  Co  Co2       1.0  0.84800  0.75000  0.44000  1.0000
  Co  Co3       1.0  0.15200  0.25000  0.56000  1.0000
  Co  Co4       1.0  0.65200  0.25000  0.94000  1.0000
  Sn  Sn1       1.0  0.70100  0.75000  0.10900  1.0000
  Sn  Sn2       1.0  0.20100  0.75000  0.39100  1.0000
  Sn  Sn3       1.0  0.79900  0.25000  0.60900  1.0000
  Sn  Sn4       1.0  0.29900  0.25000  0.89100  1.0000
  Tb  Tb1       1.0  0.97500  0.25000  0.19700  1.0000
  Tb  Tb2       1.0  0.47500  0.25000  0.30300  1.0000
  Tb  Tb3       1.0  0.52500  0.75000  0.69700  1.0000
  Tb  Tb4       1.0  0.02490  0.75000  0.80300  1.0000
