data_image0
_chemical_formula_structural       H16Mg4Ni4Sr4
_chemical_formula_sum              "H16 Mg4 Ni4 Sr4"
_cell_length_a       6.82639
_cell_length_b       6.82639
_cell_length_c       6.82639
_cell_angle_alpha    90
_cell_angle_beta     90
_cell_angle_gamma    90

_space_group_name_H-M_alt    "P 1"
_space_group_IT_number       1

loop_
  _space_group_symop_operation_xyz
  'x, y, z'

loop_
  _atom_site_type_symbol
  _atom_site_label
  _atom_site_symmetry_multiplicity
  _atom_site_fract_x
  _atom_site_fract_y
  _atom_site_fract_z
  _atom_site_occupancy
  H   H1        1.0  0.58200  0.23100  0.04450  1.0000
  H   H2        1.0  0.42400  0.57600  0.07580  1.0000
  H   H3        1.0  0.26900  0.95600  0.08180  1.0000
  H   H4        1.0  0.04450  0.58200  0.23100  1.0000
  H   H5        1.0  0.95600  0.08180  0.26900  1.0000
  H   H6        1.0  0.73100  0.45600  0.41800  1.0000
  H   H7        1.0  0.57600  0.07580  0.42400  1.0000
  H   H8        1.0  0.41800  0.73100  0.45600  1.0000
  H   H9        1.0  0.91800  0.76900  0.54400  1.0000
  H   H10       1.0  0.07580  0.42400  0.57600  1.0000
  H   H11       1.0  0.23100  0.04450  0.58200  1.0000
  H   H12       1.0  0.45600  0.41800  0.73100  1.0000
  H   H13       1.0  0.54400  0.91800  0.76900  1.0000
  H   H14       1.0  0.76900  0.54400  0.91800  1.0000
  H   H15       1.0  0.92400  0.92400  0.92400  1.0000
  H   H16       1.0  0.08180  0.26900  0.95600  1.0000
  Mg  Mg1       1.0  0.84800  0.34800  0.15200  1.0000
  Mg  Mg2       1.0  0.15200  0.84800  0.34800  1.0000
  Mg  Mg3       1.0  0.65200  0.65200  0.65200  1.0000
  Mg  Mg4       1.0  0.34800  0.15200  0.84800  1.0000
  Ni  Ni1       1.0  0.06030  0.06030  0.06030  1.0000
  Ni  Ni2       1.0  0.94000  0.56000  0.44000  1.0000
  Ni  Ni3       1.0  0.44000  0.94000  0.56000  1.0000
  Ni  Ni4       1.0  0.56000  0.44000  0.94000  1.0000
  Sr  Sr1       1.0  0.66000  0.84000  0.16000  1.0000
  Sr  Sr2       1.0  0.34000  0.34000  0.34000  1.0000
  Sr  Sr3       1.0  0.84000  0.16000  0.66000  1.0000
  Sr  Sr4       1.0  0.16000  0.66000  0.84000  1.0000
