data_image0
_chemical_formula_structural       Hg4O4Sb4Te4
_chemical_formula_sum              "Hg4 O4 Sb4 Te4"
_cell_length_a       6.25408
_cell_length_b       8.31187
_cell_length_c       8.07635
_cell_angle_alpha    90
_cell_angle_beta     107.352
_cell_angle_gamma    90

_space_group_name_H-M_alt    "P 1"
_space_group_IT_number       1

loop_
  _space_group_symop_operation_xyz
  'x, y, z'

loop_
  _atom_site_type_symbol
  _atom_site_label
  _atom_site_symmetry_multiplicity
  _atom_site_fract_x
  _atom_site_fract_y
  _atom_site_fract_z
  _atom_site_occupancy
  Hg  Hg1       1.0  0.04890  0.75700  0.01060  1.0000
  Hg  Hg2       1.0  0.95100  0.25700  0.48900  1.0000
  Hg  Hg3       1.0  0.04890  0.74300  0.51100  1.0000
  Hg  Hg4       1.0  0.95100  0.24300  0.98900  1.0000
  O   O1        1.0  0.51600  0.34600  0.03530  1.0000
  O   O2        1.0  0.48400  0.84600  0.46500  1.0000
  O   O3        1.0  0.51600  0.15400  0.53500  1.0000
  O   O4        1.0  0.48400  0.65400  0.96500  1.0000
  Sb  Sb1       1.0  0.58100  0.53900  0.19900  1.0000
  Sb  Sb2       1.0  0.41900  0.03850  0.30100  1.0000
  Sb  Sb3       1.0  0.58100  0.96100  0.69900  1.0000
  Sb  Sb4       1.0  0.41900  0.46100  0.80100  1.0000
  Te  Te1       1.0  0.86600  0.98100  0.22700  1.0000
  Te  Te2       1.0  0.13400  0.48100  0.27300  1.0000
  Te  Te3       1.0  0.86600  0.51900  0.72700  1.0000
  Te  Te4       1.0  0.13400  0.01930  0.77300  1.0000
