data_image0
_chemical_formula_structural       Ag12Au12Eu8O48
_chemical_formula_sum              "Ag12 Au12 Eu8 O48"
_cell_length_a       11.592
_cell_length_b       11.592
_cell_length_c       11.592
_cell_angle_alpha    109.471
_cell_angle_beta     109.471
_cell_angle_gamma    109.471

_space_group_name_H-M_alt    "P 1"
_space_group_IT_number       1

loop_
  _space_group_symop_operation_xyz
  'x, y, z'

loop_
  _atom_site_type_symbol
  _atom_site_label
  _atom_site_symmetry_multiplicity
  _atom_site_fract_x
  _atom_site_fract_y
  _atom_site_fract_z
  _atom_site_occupancy
  Ag  Ag1       1.0  0.25000  0.87500  0.12500  1.0000
  Ag  Ag2       1.0  0.37500  0.25000  0.12500  1.0000
  Ag  Ag3       1.0  0.87500  0.12500  0.25000  1.0000
  Ag  Ag4       1.0  0.37500  0.62500  0.25000  1.0000
  Ag  Ag5       1.0  0.12500  0.75000  0.37500  1.0000
  Ag  Ag6       1.0  0.75000  0.62500  0.37500  1.0000
  Ag  Ag7       1.0  0.87500  0.25000  0.62500  1.0000
  Ag  Ag8       1.0  0.25000  0.37500  0.62500  1.0000
  Ag  Ag9       1.0  0.12500  0.87500  0.75000  1.0000
  Ag  Ag10      1.0  0.62500  0.37500  0.75000  1.0000
  Ag  Ag11      1.0  0.75000  0.12500  0.87500  1.0000
  Ag  Ag12      1.0  0.62500  0.75000  0.87500  1.0000
  Au  Au1       1.0  0.75000  0.37500  0.12500  1.0000
  Au  Au2       1.0  0.87500  0.75000  0.12500  1.0000
  Au  Au3       1.0  0.12500  0.37500  0.25000  1.0000
  Au  Au4       1.0  0.62500  0.87500  0.25000  1.0000
  Au  Au5       1.0  0.62500  0.25000  0.37500  1.0000
  Au  Au6       1.0  0.25000  0.12500  0.37500  1.0000
  Au  Au7       1.0  0.37500  0.75000  0.62500  1.0000
  Au  Au8       1.0  0.75000  0.87500  0.62500  1.0000
  Au  Au9       1.0  0.37500  0.12500  0.75000  1.0000
  Au  Au10      1.0  0.87500  0.62500  0.75000  1.0000
  Au  Au11      1.0  0.12500  0.25000  0.87500  1.0000
  Au  Au12      1.0  0.25000  0.62500  0.87500  1.0000
  Eu  Eu1       1.0  0.00000  0.00000  0.00000  1.0000
  Eu  Eu2       1.0  0.50000  0.00000  0.00000  1.0000
  Eu  Eu3       1.0  0.50000  0.50000  0.00000  1.0000
  Eu  Eu4       1.0  0.00000  0.50000  0.00000  1.0000
  Eu  Eu5       1.0  0.50000  0.00000  0.50000  1.0000
  Eu  Eu6       1.0  0.00000  0.50000  0.50000  1.0000
  Eu  Eu7       1.0  0.00000  0.00000  0.50000  1.0000
  Eu  Eu8       1.0  0.50000  0.50000  0.50000  1.0000
  O   O1        1.0  0.32300  0.37400  0.03860  1.0000
  O   O2        1.0  0.21600  0.66500  0.03860  1.0000
  O   O3        1.0  0.71600  0.17700  0.05140  1.0000
  O   O4        1.0  0.83500  0.87400  0.05140  1.0000
  O   O5        1.0  0.96100  0.17700  0.12600  1.0000
  O   O6        1.0  0.66500  0.94900  0.12600  1.0000
  O   O7        1.0  0.03860  0.71600  0.16500  1.0000
  O   O8        1.0  0.62600  0.44900  0.16500  1.0000
  O   O9        1.0  0.21600  0.05140  0.17700  1.0000
  O   O10       1.0  0.46100  0.12600  0.17700  1.0000
  O   O11       1.0  0.16500  0.53900  0.21600  1.0000
  O   O12       1.0  0.55100  0.67700  0.21600  1.0000
  O   O13       1.0  0.32300  0.44900  0.28400  1.0000
  O   O14       1.0  0.46100  0.83500  0.28400  1.0000
  O   O15       1.0  0.87400  0.53900  0.32300  1.0000
  O   O16       1.0  0.94900  0.78400  0.32300  1.0000
  O   O17       1.0  0.55100  0.37400  0.33500  1.0000
  O   O18       1.0  0.28400  0.96100  0.33500  1.0000
  O   O19       1.0  0.82300  0.03860  0.37400  1.0000
  O   O20       1.0  0.05140  0.33500  0.37400  1.0000
  O   O21       1.0  0.12600  0.16500  0.44900  1.0000
  O   O22       1.0  0.82300  0.28400  0.44900  1.0000
  O   O23       1.0  0.33500  0.78400  0.46100  1.0000
  O   O24       1.0  0.62600  0.67700  0.46100  1.0000
  O   O25       1.0  0.66500  0.21600  0.53900  1.0000
  O   O26       1.0  0.37400  0.32300  0.53900  1.0000
  O   O27       1.0  0.87400  0.83500  0.55100  1.0000
  O   O28       1.0  0.17700  0.71600  0.55100  1.0000
  O   O29       1.0  0.94900  0.66500  0.62600  1.0000
  O   O30       1.0  0.17700  0.96100  0.62600  1.0000
  O   O31       1.0  0.71600  0.03860  0.66500  1.0000
  O   O32       1.0  0.44900  0.62600  0.66500  1.0000
  O   O33       1.0  0.05140  0.21600  0.67700  1.0000
  O   O34       1.0  0.12600  0.46100  0.67700  1.0000
  O   O35       1.0  0.67700  0.55100  0.71600  1.0000
  O   O36       1.0  0.53900  0.16500  0.71600  1.0000
  O   O37       1.0  0.44900  0.32300  0.78400  1.0000
  O   O38       1.0  0.83500  0.46100  0.78400  1.0000
  O   O39       1.0  0.53900  0.87400  0.82300  1.0000
  O   O40       1.0  0.78400  0.94900  0.82300  1.0000
  O   O41       1.0  0.96100  0.28400  0.83500  1.0000
  O   O42       1.0  0.37400  0.55100  0.83500  1.0000
  O   O43       1.0  0.33500  0.05140  0.87400  1.0000
  O   O44       1.0  0.03860  0.82300  0.87400  1.0000
  O   O45       1.0  0.16500  0.12600  0.94900  1.0000
  O   O46       1.0  0.28400  0.82300  0.94900  1.0000
  O   O47       1.0  0.67700  0.62600  0.96100  1.0000
  O   O48       1.0  0.78400  0.33500  0.96100  1.0000
