data_image0
_chemical_formula_structural       Ag12Ce8O48Tl12
_chemical_formula_sum              "Ag12 Ce8 O48 Tl12"
_cell_length_a       11.8324
_cell_length_b       11.8324
_cell_length_c       11.8324
_cell_angle_alpha    109.471
_cell_angle_beta     109.471
_cell_angle_gamma    109.471

_space_group_name_H-M_alt    "P 1"
_space_group_IT_number       1

loop_
  _space_group_symop_operation_xyz
  'x, y, z'

loop_
  _atom_site_type_symbol
  _atom_site_label
  _atom_site_symmetry_multiplicity
  _atom_site_fract_x
  _atom_site_fract_y
  _atom_site_fract_z
  _atom_site_occupancy
  Ag  Ag1       1.0  0.75000  0.37500  0.12500  1.0000
  Ag  Ag2       1.0  0.87500  0.75000  0.12500  1.0000
  Ag  Ag3       1.0  0.12500  0.37500  0.25000  1.0000
  Ag  Ag4       1.0  0.62500  0.87500  0.25000  1.0000
  Ag  Ag5       1.0  0.25000  0.12500  0.37500  1.0000
  Ag  Ag6       1.0  0.62500  0.25000  0.37500  1.0000
  Ag  Ag7       1.0  0.75000  0.87500  0.62500  1.0000
  Ag  Ag8       1.0  0.37500  0.75000  0.62500  1.0000
  Ag  Ag9       1.0  0.37500  0.12500  0.75000  1.0000
  Ag  Ag10      1.0  0.87500  0.62500  0.75000  1.0000
  Ag  Ag11      1.0  0.25000  0.62500  0.87500  1.0000
  Ag  Ag12      1.0  0.12500  0.25000  0.87500  1.0000
  Ce  Ce1       1.0  0.00000  0.00000  0.00000  1.0000
  Ce  Ce2       1.0  0.50000  0.00000  0.00000  1.0000
  Ce  Ce3       1.0  0.00000  0.50000  0.00000  1.0000
  Ce  Ce4       1.0  0.50000  0.50000  0.00000  1.0000
  Ce  Ce5       1.0  0.00000  0.00000  0.50000  1.0000
  Ce  Ce6       1.0  0.50000  0.50000  0.50000  1.0000
  Ce  Ce7       1.0  0.50000  0.00000  0.50000  1.0000
  Ce  Ce8       1.0  0.00000  0.50000  0.50000  1.0000
  O   O1        1.0  0.32500  0.38600  0.04180  1.0000
  O   O2        1.0  0.21700  0.65600  0.04180  1.0000
  O   O3        1.0  0.84400  0.88600  0.06120  1.0000
  O   O4        1.0  0.71700  0.17500  0.06120  1.0000
  O   O5        1.0  0.95800  0.17500  0.11400  1.0000
  O   O6        1.0  0.65600  0.93900  0.11400  1.0000
  O   O7        1.0  0.61400  0.43900  0.15600  1.0000
  O   O8        1.0  0.04180  0.71700  0.15600  1.0000
  O   O9        1.0  0.21700  0.06120  0.17500  1.0000
  O   O10       1.0  0.45800  0.11400  0.17500  1.0000
  O   O11       1.0  0.56100  0.67500  0.21700  1.0000
  O   O12       1.0  0.15600  0.54200  0.21700  1.0000
  O   O13       1.0  0.32500  0.43900  0.28300  1.0000
  O   O14       1.0  0.45800  0.84400  0.28300  1.0000
  O   O15       1.0  0.93900  0.78300  0.32500  1.0000
  O   O16       1.0  0.88600  0.54200  0.32500  1.0000
  O   O17       1.0  0.56100  0.38600  0.34400  1.0000
  O   O18       1.0  0.28300  0.95800  0.34400  1.0000
  O   O19       1.0  0.82500  0.04180  0.38600  1.0000
  O   O20       1.0  0.06120  0.34400  0.38600  1.0000
  O   O21       1.0  0.11400  0.15600  0.43900  1.0000
  O   O22       1.0  0.82500  0.28300  0.43900  1.0000
  O   O23       1.0  0.34400  0.78300  0.45800  1.0000
  O   O24       1.0  0.61400  0.67500  0.45800  1.0000
  O   O25       1.0  0.65600  0.21700  0.54200  1.0000
  O   O26       1.0  0.38600  0.32500  0.54200  1.0000
  O   O27       1.0  0.17500  0.71700  0.56100  1.0000
  O   O28       1.0  0.88600  0.84400  0.56100  1.0000
  O   O29       1.0  0.93900  0.65600  0.61400  1.0000
  O   O30       1.0  0.17500  0.95800  0.61400  1.0000
  O   O31       1.0  0.71700  0.04180  0.65600  1.0000
  O   O32       1.0  0.43900  0.61400  0.65600  1.0000
  O   O33       1.0  0.11400  0.45800  0.67500  1.0000
  O   O34       1.0  0.06120  0.21700  0.67500  1.0000
  O   O35       1.0  0.54200  0.15600  0.71700  1.0000
  O   O36       1.0  0.67500  0.56100  0.71700  1.0000
  O   O37       1.0  0.43900  0.32500  0.78300  1.0000
  O   O38       1.0  0.84400  0.45800  0.78300  1.0000
  O   O39       1.0  0.54200  0.88600  0.82500  1.0000
  O   O40       1.0  0.78300  0.93900  0.82500  1.0000
  O   O41       1.0  0.95800  0.28300  0.84400  1.0000
  O   O42       1.0  0.38600  0.56100  0.84400  1.0000
  O   O43       1.0  0.04180  0.82500  0.88600  1.0000
  O   O44       1.0  0.34400  0.06120  0.88600  1.0000
  O   O45       1.0  0.15600  0.11400  0.93900  1.0000
  O   O46       1.0  0.28300  0.82500  0.93900  1.0000
  O   O47       1.0  0.67500  0.61400  0.95800  1.0000
  O   O48       1.0  0.78300  0.34400  0.95800  1.0000
  Tl  Tl1       1.0  0.25000  0.87500  0.12500  1.0000
  Tl  Tl2       1.0  0.37500  0.25000  0.12500  1.0000
  Tl  Tl3       1.0  0.37500  0.62500  0.25000  1.0000
  Tl  Tl4       1.0  0.87500  0.12500  0.25000  1.0000
  Tl  Tl5       1.0  0.75000  0.62500  0.37500  1.0000
  Tl  Tl6       1.0  0.12500  0.75000  0.37500  1.0000
  Tl  Tl7       1.0  0.25000  0.37500  0.62500  1.0000
  Tl  Tl8       1.0  0.87500  0.25000  0.62500  1.0000
  Tl  Tl9       1.0  0.12500  0.87500  0.75000  1.0000
  Tl  Tl10      1.0  0.62500  0.37500  0.75000  1.0000
  Tl  Tl11      1.0  0.75000  0.12500  0.87500  1.0000
  Tl  Tl12      1.0  0.62500  0.75000  0.87500  1.0000
