data_image0
_chemical_formula_structural       H4O16Si4Y4
_chemical_formula_sum              "H4 O16 Si4 Y4"
_cell_length_a       9.0643
_cell_length_b       6.26952
_cell_length_c       6.86456
_cell_angle_alpha    90
_cell_angle_beta     129.437
_cell_angle_gamma    90

_space_group_name_H-M_alt    "P 1"
_space_group_IT_number       1

loop_
  _space_group_symop_operation_xyz
  'x, y, z'

loop_
  _atom_site_type_symbol
  _atom_site_label
  _atom_site_symmetry_multiplicity
  _atom_site_fract_x
  _atom_site_fract_y
  _atom_site_fract_z
  _atom_site_occupancy
  H   H1        1.0  0.39500  0.37200  0.06060  1.0000
  H   H2        1.0  0.60500  0.87200  0.43900  1.0000
  H   H3        1.0  0.39500  0.12800  0.56100  1.0000
  H   H4        1.0  0.60500  0.62800  0.93900  1.0000
  O   O1        1.0  0.56600  0.70600  0.03530  1.0000
  O   O2        1.0  0.76200  0.05430  0.07250  1.0000
  O   O3        1.0  0.07560  0.20800  0.10100  1.0000
  O   O4        1.0  0.28600  0.51900  0.10100  1.0000
  O   O5        1.0  0.71400  0.01920  0.39900  1.0000
  O   O6        1.0  0.92400  0.70800  0.39900  1.0000
  O   O7        1.0  0.23800  0.55400  0.42800  1.0000
  O   O8        1.0  0.43400  0.20600  0.46500  1.0000
  O   O9        1.0  0.56600  0.79400  0.53500  1.0000
  O   O10       1.0  0.76200  0.44600  0.57200  1.0000
  O   O11       1.0  0.07560  0.29200  0.60100  1.0000
  O   O12       1.0  0.28600  0.98100  0.60100  1.0000
  O   O13       1.0  0.71400  0.48100  0.89900  1.0000
  O   O14       1.0  0.92400  0.79200  0.89900  1.0000
  O   O15       1.0  0.23800  0.94600  0.92800  1.0000
  O   O16       1.0  0.43400  0.29400  0.96500  1.0000
  Si  Si1       1.0  0.75100  0.87700  0.23400  1.0000
  Si  Si2       1.0  0.24900  0.37700  0.26600  1.0000
  Si  Si3       1.0  0.75100  0.62300  0.73400  1.0000
  Si  Si4       1.0  0.24900  0.12300  0.76600  1.0000
  Y   Y1        1.0  0.22300  0.86200  0.23100  1.0000
  Y   Y2        1.0  0.77700  0.36200  0.26900  1.0000
  Y   Y3        1.0  0.22300  0.63800  0.73100  1.0000
  Y   Y4        1.0  0.77700  0.13800  0.76900  1.0000
