data_image0
_chemical_formula_structural       H4O8Pm2Si2
_chemical_formula_sum              "H4 O8 Pm2 Si2"
_cell_length_a       6.22841
_cell_length_b       6.22841
_cell_length_c       6.22841
_cell_angle_alpha    96.2132
_cell_angle_beta     116.48
_cell_angle_gamma    116.48

_space_group_name_H-M_alt    "P 1"
_space_group_IT_number       1

loop_
  _space_group_symop_operation_xyz
  'x, y, z'

loop_
  _atom_site_type_symbol
  _atom_site_label
  _atom_site_symmetry_multiplicity
  _atom_site_fract_x
  _atom_site_fract_y
  _atom_site_fract_z
  _atom_site_occupancy
  H   H1        1.0  0.50000  0.52300  0.02340  1.0000
  H   H2        1.0  0.00000  0.22700  0.22700  1.0000
  H   H3        1.0  0.50000  0.97700  0.47700  1.0000
  H   H4        1.0  0.00000  0.77300  0.77300  1.0000
  O   O1        1.0  0.68300  0.61300  0.29800  1.0000
  O   O2        1.0  0.18400  0.13700  0.32000  1.0000
  O   O3        1.0  0.31600  0.70200  0.38600  1.0000
  O   O4        1.0  0.68400  0.07010  0.38700  1.0000
  O   O5        1.0  0.18300  0.04750  0.86300  1.0000
  O   O6        1.0  0.81700  0.68000  0.86400  1.0000
  O   O7        1.0  0.31700  0.61400  0.93000  1.0000
  O   O8        1.0  0.81600  0.13600  0.95200  1.0000
  Pm  Pm1       1.0  0.00000  0.50000  0.50000  1.0000
  Pm  Pm2       1.0  0.50000  0.25000  0.75000  1.0000
  Si  Si1       1.0  0.00000  0.00000  0.00000  1.0000
  Si  Si2       1.0  0.50000  0.75000  0.25000  1.0000
