data_image0
_chemical_formula_structural       H2O2Rb2
_chemical_formula_sum              "H2 O2 Rb2"
_cell_length_a       4.09372
_cell_length_b       4.15203
_cell_length_c       5.78481
_cell_angle_alpha    90
_cell_angle_beta     69.2781
_cell_angle_gamma    90

_space_group_name_H-M_alt    "P 1"
_space_group_IT_number       1

loop_
  _space_group_symop_operation_xyz
  'x, y, z'

loop_
  _atom_site_type_symbol
  _atom_site_label
  _atom_site_symmetry_multiplicity
  _atom_site_fract_x
  _atom_site_fract_y
  _atom_site_fract_z
  _atom_site_occupancy
  H   H1        1.0  0.46800  0.12600  0.06470  1.0000
  H   H2        1.0  0.53200  0.62600  0.93500  1.0000
  O   O1        1.0  0.40200  0.29000  0.19600  1.0000
  O   O2        1.0  0.59800  0.79000  0.80400  1.0000
  Rb  Rb1       1.0  0.86000  0.76500  0.28100  1.0000
  Rb  Rb2       1.0  0.14000  0.26500  0.71900  1.0000
