data_image0
_chemical_formula_structural       Ag12Hg12Lu8O48
_chemical_formula_sum              "Ag12 Hg12 Lu8 O48"
_cell_length_a       11.2061
_cell_length_b       11.2061
_cell_length_c       11.2061
_cell_angle_alpha    109.471
_cell_angle_beta     109.471
_cell_angle_gamma    109.471

_space_group_name_H-M_alt    "P 1"
_space_group_IT_number       1

loop_
  _space_group_symop_operation_xyz
  'x, y, z'

loop_
  _atom_site_type_symbol
  _atom_site_label
  _atom_site_symmetry_multiplicity
  _atom_site_fract_x
  _atom_site_fract_y
  _atom_site_fract_z
  _atom_site_occupancy
  Ag  Ag1       1.0  0.37500  0.25000  0.12500  1.0000
  Ag  Ag2       1.0  0.25000  0.87500  0.12500  1.0000
  Ag  Ag3       1.0  0.37500  0.62500  0.25000  1.0000
  Ag  Ag4       1.0  0.87500  0.12500  0.25000  1.0000
  Ag  Ag5       1.0  0.75000  0.62500  0.37500  1.0000
  Ag  Ag6       1.0  0.12500  0.75000  0.37500  1.0000
  Ag  Ag7       1.0  0.25000  0.37500  0.62500  1.0000
  Ag  Ag8       1.0  0.87500  0.25000  0.62500  1.0000
  Ag  Ag9       1.0  0.12500  0.87500  0.75000  1.0000
  Ag  Ag10      1.0  0.62500  0.37500  0.75000  1.0000
  Ag  Ag11      1.0  0.75000  0.12500  0.87500  1.0000
  Ag  Ag12      1.0  0.62500  0.75000  0.87500  1.0000
  Hg  Hg1       1.0  0.87500  0.75000  0.12500  1.0000
  Hg  Hg2       1.0  0.75000  0.37500  0.12500  1.0000
  Hg  Hg3       1.0  0.12500  0.37500  0.25000  1.0000
  Hg  Hg4       1.0  0.62500  0.87500  0.25000  1.0000
  Hg  Hg5       1.0  0.25000  0.12500  0.37500  1.0000
  Hg  Hg6       1.0  0.62500  0.25000  0.37500  1.0000
  Hg  Hg7       1.0  0.37500  0.75000  0.62500  1.0000
  Hg  Hg8       1.0  0.75000  0.87500  0.62500  1.0000
  Hg  Hg9       1.0  0.37500  0.12500  0.75000  1.0000
  Hg  Hg10      1.0  0.87500  0.62500  0.75000  1.0000
  Hg  Hg11      1.0  0.12500  0.25000  0.87500  1.0000
  Hg  Hg12      1.0  0.25000  0.62500  0.87500  1.0000
  Lu  Lu1       1.0  0.00000  0.00000  0.00000  1.0000
  Lu  Lu2       1.0  0.50000  0.00000  0.00000  1.0000
  Lu  Lu3       1.0  0.00000  0.50000  0.00000  1.0000
  Lu  Lu4       1.0  0.50000  0.50000  0.00000  1.0000
  Lu  Lu5       1.0  0.00000  0.00000  0.50000  1.0000
  Lu  Lu6       1.0  0.00000  0.50000  0.50000  1.0000
  Lu  Lu7       1.0  0.50000  0.00000  0.50000  1.0000
  Lu  Lu8       1.0  0.50000  0.50000  0.50000  1.0000
  O   O1        1.0  0.94000  0.16900  0.05030  1.0000
  O   O2        1.0  0.61000  0.88100  0.05030  1.0000
  O   O3        1.0  0.22900  0.61000  0.05970  1.0000
  O   O4        1.0  0.33100  0.45000  0.05970  1.0000
  O   O5        1.0  0.55000  0.38100  0.11000  1.0000
  O   O6        1.0  0.05970  0.72900  0.11000  1.0000
  O   O7        1.0  0.72900  0.16900  0.11900  1.0000
  O   O8        1.0  0.89000  0.95000  0.11900  1.0000
  O   O9        1.0  0.44000  0.05030  0.16900  1.0000
  O   O10       1.0  0.22900  0.11900  0.16900  1.0000
  O   O11       1.0  0.11000  0.56000  0.22900  1.0000
  O   O12       1.0  0.61900  0.66900  0.22900  1.0000
  O   O13       1.0  0.44000  0.89000  0.27100  1.0000
  O   O14       1.0  0.33100  0.38100  0.27100  1.0000
  O   O15       1.0  0.95000  0.56000  0.33100  1.0000
  O   O16       1.0  0.88100  0.77100  0.33100  1.0000
  O   O17       1.0  0.83100  0.27100  0.38100  1.0000
  O   O18       1.0  0.05030  0.11000  0.38100  1.0000
  O   O19       1.0  0.27100  0.94000  0.39000  1.0000
  O   O20       1.0  0.61900  0.45000  0.39000  1.0000
  O   O21       1.0  0.39000  0.77100  0.44000  1.0000
  O   O22       1.0  0.55000  0.66900  0.44000  1.0000
  O   O23       1.0  0.83100  0.05970  0.45000  1.0000
  O   O24       1.0  0.11900  0.39000  0.45000  1.0000
  O   O25       1.0  0.88100  0.61000  0.55000  1.0000
  O   O26       1.0  0.16900  0.94000  0.55000  1.0000
  O   O27       1.0  0.61000  0.22900  0.56000  1.0000
  O   O28       1.0  0.45000  0.33100  0.56000  1.0000
  O   O29       1.0  0.72900  0.05970  0.61000  1.0000
  O   O30       1.0  0.38100  0.55000  0.61000  1.0000
  O   O31       1.0  0.16900  0.72900  0.61900  1.0000
  O   O32       1.0  0.95000  0.89000  0.61900  1.0000
  O   O33       1.0  0.05030  0.44000  0.66900  1.0000
  O   O34       1.0  0.11900  0.22900  0.66900  1.0000
  O   O35       1.0  0.56000  0.11000  0.72900  1.0000
  O   O36       1.0  0.66900  0.61900  0.72900  1.0000
  O   O37       1.0  0.38100  0.33100  0.77100  1.0000
  O   O38       1.0  0.89000  0.44000  0.77100  1.0000
  O   O39       1.0  0.56000  0.95000  0.83100  1.0000
  O   O40       1.0  0.77100  0.88100  0.83100  1.0000
  O   O41       1.0  0.11000  0.05030  0.88100  1.0000
  O   O42       1.0  0.27100  0.83100  0.88100  1.0000
  O   O43       1.0  0.45000  0.61900  0.89000  1.0000
  O   O44       1.0  0.94000  0.27100  0.89000  1.0000
  O   O45       1.0  0.66900  0.55000  0.94000  1.0000
  O   O46       1.0  0.77100  0.39000  0.94000  1.0000
  O   O47       1.0  0.05970  0.83100  0.95000  1.0000
  O   O48       1.0  0.39000  0.11900  0.95000  1.0000
