data_image0
_chemical_formula_structural       Co4Fe4Si4
_chemical_formula_sum              "Co4 Fe4 Si4"
_cell_length_a       4.85581
_cell_length_b       3.77079
_cell_length_c       7.12523
_cell_angle_alpha    90
_cell_angle_beta     90
_cell_angle_gamma    90

_space_group_name_H-M_alt    "P 1"
_space_group_IT_number       1

loop_
  _space_group_symop_operation_xyz
  'x, y, z'

loop_
  _atom_site_type_symbol
  _atom_site_label
  _atom_site_symmetry_multiplicity
  _atom_site_fract_x
  _atom_site_fract_y
  _atom_site_fract_z
  _atom_site_occupancy
  Co  Co1       1.0  0.18200  0.25000  0.06540  1.0000
  Co  Co2       1.0  0.68200  0.25000  0.43500  1.0000
  Co  Co3       1.0  0.31800  0.75000  0.56500  1.0000
  Co  Co4       1.0  0.81800  0.75000  0.93500  1.0000
  Fe  Fe1       1.0  0.45500  0.75000  0.22900  1.0000
  Fe  Fe2       1.0  0.95500  0.75000  0.27100  1.0000
  Fe  Fe3       1.0  0.04450  0.25000  0.72900  1.0000
  Fe  Fe4       1.0  0.54500  0.25000  0.77100  1.0000
  Si  Si1       1.0  0.70400  0.25000  0.10300  1.0000
  Si  Si2       1.0  0.20400  0.25000  0.39700  1.0000
  Si  Si3       1.0  0.79600  0.75000  0.60300  1.0000
  Si  Si4       1.0  0.29600  0.75000  0.89700  1.0000
