data_image0
_chemical_formula_structural       Cd4Sr2
_chemical_formula_sum              "Cd4 Sr2"
_cell_length_a       5.08691
_cell_length_b       6.37715
_cell_length_c       6.37715
_cell_angle_alpha    96.2604
_cell_angle_beta     113.506
_cell_angle_gamma    66.4944

_space_group_name_H-M_alt    "P 1"
_space_group_IT_number       1

loop_
  _space_group_symop_operation_xyz
  'x, y, z'

loop_
  _atom_site_type_symbol
  _atom_site_label
  _atom_site_symmetry_multiplicity
  _atom_site_fract_x
  _atom_site_fract_y
  _atom_site_fract_z
  _atom_site_occupancy
  Cd  Cd1       1.0  0.05690  0.10700  0.22100  1.0000
  Cd  Cd2       1.0  0.55700  0.27900  0.39300  1.0000
  Cd  Cd3       1.0  0.44300  0.72100  0.60700  1.0000
  Cd  Cd4       1.0  0.94300  0.89300  0.77900  1.0000
  Sr  Sr1       1.0  0.75000  0.70200  0.20200  1.0000
  Sr  Sr2       1.0  0.25000  0.29800  0.79800  1.0000
