data_image0
_chemical_formula_structural       Mg2N2O2Sc2
_chemical_formula_sum              "Mg2 N2 O2 Sc2"
_cell_length_a       3.69743
_cell_length_b       4.39314
_cell_length_c       6.06552
_cell_angle_alpha    90
_cell_angle_beta     90
_cell_angle_gamma    90

_space_group_name_H-M_alt    "P 1"
_space_group_IT_number       1

loop_
  _space_group_symop_operation_xyz
  'x, y, z'

loop_
  _atom_site_type_symbol
  _atom_site_label
  _atom_site_symmetry_multiplicity
  _atom_site_fract_x
  _atom_site_fract_y
  _atom_site_fract_z
  _atom_site_occupancy
  Mg  Mg1       1.0  0.50000  0.93900  0.17100  1.0000
  Mg  Mg2       1.0  0.50000  0.43900  0.82900  1.0000
  N   N1        1.0  0.00000  0.93800  0.32900  1.0000
  N   N2        1.0  0.00000  0.43800  0.67100  1.0000
  O   O1        1.0  0.50000  0.43800  0.16200  1.0000
  O   O2        1.0  0.50000  0.93800  0.83800  1.0000
  Sc  Sc1       1.0  0.00000  0.43900  0.32700  1.0000
  Sc  Sc2       1.0  1.00000  0.93900  0.67300  1.0000
