data_image0
_chemical_formula_structural       Mg2N2O2Y2
_chemical_formula_sum              "Mg2 N2 O2 Y2"
_cell_length_a       3.86751
_cell_length_b       4.8491
_cell_length_c       6.15756
_cell_angle_alpha    90
_cell_angle_beta     90
_cell_angle_gamma    90

_space_group_name_H-M_alt    "P 1"
_space_group_IT_number       1

loop_
  _space_group_symop_operation_xyz
  'x, y, z'

loop_
  _atom_site_type_symbol
  _atom_site_label
  _atom_site_symmetry_multiplicity
  _atom_site_fract_x
  _atom_site_fract_y
  _atom_site_fract_z
  _atom_site_occupancy
  Mg  Mg1       1.0  0.50000  0.97000  0.17200  1.0000
  Mg  Mg2       1.0  0.50000  0.47000  0.82800  1.0000
  N   N1        1.0  0.00000  0.93600  0.31700  1.0000
  N   N2        1.0  0.00000  0.43600  0.68300  1.0000
  O   O1        1.0  0.50000  0.40000  0.14600  1.0000
  O   O2        1.0  0.50000  0.90000  0.85400  1.0000
  Y   Y1        1.0  0.00000  0.44900  0.31300  1.0000
  Y   Y2        1.0  0.00000  0.94900  0.68700  1.0000
