data_image0
_chemical_formula_structural       Ge4Mg8S16
_chemical_formula_sum              "Ge4 Mg8 S16"
_cell_length_a       12.878
_cell_length_b       7.47492
_cell_length_c       6.04716
_cell_angle_alpha    90
_cell_angle_beta     90
_cell_angle_gamma    90

_space_group_name_H-M_alt    "P 1"
_space_group_IT_number       1

loop_
  _space_group_symop_operation_xyz
  'x, y, z'

loop_
  _atom_site_type_symbol
  _atom_site_label
  _atom_site_symmetry_multiplicity
  _atom_site_fract_x
  _atom_site_fract_y
  _atom_site_fract_z
  _atom_site_occupancy
  Ge  Ge1       1.0  0.41100  0.25000  0.08540  1.0000
  Ge  Ge2       1.0  0.91100  0.25000  0.41500  1.0000
  Ge  Ge3       1.0  0.08910  0.75000  0.58500  1.0000
  Ge  Ge4       1.0  0.58900  0.75000  0.91500  1.0000
  Mg  Mg1       1.0  0.73100  0.25000  0.99700  1.0000
  Mg  Mg2       1.0  0.00000  0.00000  0.00000  1.0000
  Mg  Mg3       1.0  0.00000  0.50000  0.00000  1.0000
  Mg  Mg4       1.0  0.26900  0.75000  0.00280  1.0000
  Mg  Mg5       1.0  0.76900  0.75000  0.49700  1.0000
  Mg  Mg6       1.0  0.50000  0.00000  0.50000  1.0000
  Mg  Mg7       1.0  0.50000  0.50000  0.50000  1.0000
  Mg  Mg8       1.0  0.23100  0.25000  0.50300  1.0000
  S   S1        1.0  0.09300  0.75000  0.22000  1.0000
  S   S2        1.0  0.56900  0.25000  0.24500  1.0000
  S   S3        1.0  0.83300  0.01680  0.24900  1.0000
  S   S4        1.0  0.83300  0.48300  0.24900  1.0000
  S   S5        1.0  0.33300  0.01680  0.25100  1.0000
  S   S6        1.0  0.33300  0.48300  0.25100  1.0000
  S   S7        1.0  0.06910  0.25000  0.25500  1.0000
  S   S8        1.0  0.59300  0.75000  0.28000  1.0000
  S   S9        1.0  0.40700  0.25000  0.72000  1.0000
  S   S10       1.0  0.93100  0.75000  0.74500  1.0000
  S   S11       1.0  0.66700  0.51700  0.74900  1.0000
  S   S12       1.0  0.66700  0.98300  0.74900  1.0000
  S   S13       1.0  0.16700  0.51700  0.75100  1.0000
  S   S14       1.0  0.16700  0.98300  0.75100  1.0000
  S   S15       1.0  0.43100  0.75000  0.75500  1.0000
  S   S16       1.0  0.90700  0.25000  0.78000  1.0000
