data_image0
_chemical_formula_structural       Ag12Hg12La8O48
_chemical_formula_sum              "Ag12 Hg12 La8 O48"
_cell_length_a       11.5635
_cell_length_b       11.5635
_cell_length_c       11.5635
_cell_angle_alpha    109.471
_cell_angle_beta     109.471
_cell_angle_gamma    109.471

_space_group_name_H-M_alt    "P 1"
_space_group_IT_number       1

loop_
  _space_group_symop_operation_xyz
  'x, y, z'

loop_
  _atom_site_type_symbol
  _atom_site_label
  _atom_site_symmetry_multiplicity
  _atom_site_fract_x
  _atom_site_fract_y
  _atom_site_fract_z
  _atom_site_occupancy
  Ag  Ag1       1.0  0.37500  0.25000  0.12500  1.0000
  Ag  Ag2       1.0  0.25000  0.87500  0.12500  1.0000
  Ag  Ag3       1.0  0.87500  0.12500  0.25000  1.0000
  Ag  Ag4       1.0  0.37500  0.62500  0.25000  1.0000
  Ag  Ag5       1.0  0.12500  0.75000  0.37500  1.0000
  Ag  Ag6       1.0  0.75000  0.62500  0.37500  1.0000
  Ag  Ag7       1.0  0.87500  0.25000  0.62500  1.0000
  Ag  Ag8       1.0  0.25000  0.37500  0.62500  1.0000
  Ag  Ag9       1.0  0.12500  0.87500  0.75000  1.0000
  Ag  Ag10      1.0  0.62500  0.37500  0.75000  1.0000
  Ag  Ag11      1.0  0.75000  0.12500  0.87500  1.0000
  Ag  Ag12      1.0  0.62500  0.75000  0.87500  1.0000
  Hg  Hg1       1.0  0.87500  0.75000  0.12500  1.0000
  Hg  Hg2       1.0  0.75000  0.37500  0.12500  1.0000
  Hg  Hg3       1.0  0.12500  0.37500  0.25000  1.0000
  Hg  Hg4       1.0  0.62500  0.87500  0.25000  1.0000
  Hg  Hg5       1.0  0.25000  0.12500  0.37500  1.0000
  Hg  Hg6       1.0  0.62500  0.25000  0.37500  1.0000
  Hg  Hg7       1.0  0.37500  0.75000  0.62500  1.0000
  Hg  Hg8       1.0  0.75000  0.87500  0.62500  1.0000
  Hg  Hg9       1.0  0.37500  0.12500  0.75000  1.0000
  Hg  Hg10      1.0  0.87500  0.62500  0.75000  1.0000
  Hg  Hg11      1.0  0.12500  0.25000  0.87500  1.0000
  Hg  Hg12      1.0  0.25000  0.62500  0.87500  1.0000
  La  La1       1.0  0.00000  0.00000  0.00000  1.0000
  La  La2       1.0  0.50000  0.00000  0.00000  1.0000
  La  La3       1.0  0.50000  0.50000  0.00000  1.0000
  La  La4       1.0  0.00000  0.50000  0.00000  1.0000
  La  La5       1.0  0.50000  0.00000  0.50000  1.0000
  La  La6       1.0  0.00000  0.50000  0.50000  1.0000
  La  La7       1.0  0.00000  0.00000  0.50000  1.0000
  La  La8       1.0  0.50000  0.50000  0.50000  1.0000
  O   O1        1.0  0.61600  0.87300  0.05390  1.0000
  O   O2        1.0  0.93800  0.18100  0.05390  1.0000
  O   O3        1.0  0.31900  0.44600  0.06230  1.0000
  O   O4        1.0  0.24300  0.61600  0.06230  1.0000
  O   O5        1.0  0.06230  0.74300  0.11600  1.0000
  O   O6        1.0  0.55400  0.37300  0.11600  1.0000
  O   O7        1.0  0.74300  0.18100  0.12700  1.0000
  O   O8        1.0  0.88400  0.94600  0.12700  1.0000
  O   O9        1.0  0.24300  0.12700  0.18100  1.0000
  O   O10       1.0  0.43800  0.05390  0.18100  1.0000
  O   O11       1.0  0.62700  0.68100  0.24300  1.0000
  O   O12       1.0  0.11600  0.56200  0.24300  1.0000
  O   O13       1.0  0.31900  0.37300  0.25700  1.0000
  O   O14       1.0  0.43800  0.88400  0.25700  1.0000
  O   O15       1.0  0.94600  0.56200  0.31900  1.0000
  O   O16       1.0  0.87300  0.75700  0.31900  1.0000
  O   O17       1.0  0.05390  0.11600  0.37300  1.0000
  O   O18       1.0  0.81900  0.25700  0.37300  1.0000
  O   O19       1.0  0.25700  0.93800  0.38400  1.0000
  O   O20       1.0  0.62700  0.44600  0.38400  1.0000
  O   O21       1.0  0.55400  0.68100  0.43800  1.0000
  O   O22       1.0  0.38400  0.75700  0.43800  1.0000
  O   O23       1.0  0.12700  0.38400  0.44600  1.0000
  O   O24       1.0  0.81900  0.06230  0.44600  1.0000
  O   O25       1.0  0.18100  0.93800  0.55400  1.0000
  O   O26       1.0  0.87300  0.61600  0.55400  1.0000
  O   O27       1.0  0.61600  0.24300  0.56200  1.0000
  O   O28       1.0  0.44600  0.31900  0.56200  1.0000
  O   O29       1.0  0.74300  0.06230  0.61600  1.0000
  O   O30       1.0  0.37300  0.55400  0.61600  1.0000
  O   O31       1.0  0.18100  0.74300  0.62700  1.0000
  O   O32       1.0  0.94600  0.88400  0.62700  1.0000
  O   O33       1.0  0.05390  0.43800  0.68100  1.0000
  O   O34       1.0  0.12700  0.24300  0.68100  1.0000
  O   O35       1.0  0.56200  0.11600  0.74300  1.0000
  O   O36       1.0  0.68100  0.62700  0.74300  1.0000
  O   O37       1.0  0.37300  0.31900  0.75700  1.0000
  O   O38       1.0  0.88400  0.43800  0.75700  1.0000
  O   O39       1.0  0.75700  0.87300  0.81900  1.0000
  O   O40       1.0  0.56200  0.94600  0.81900  1.0000
  O   O41       1.0  0.25700  0.81900  0.87300  1.0000
  O   O42       1.0  0.11600  0.05390  0.87300  1.0000
  O   O43       1.0  0.44600  0.62700  0.88400  1.0000
  O   O44       1.0  0.93800  0.25700  0.88400  1.0000
  O   O45       1.0  0.68100  0.55400  0.93800  1.0000
  O   O46       1.0  0.75700  0.38400  0.93800  1.0000
  O   O47       1.0  0.06230  0.81900  0.94600  1.0000
  O   O48       1.0  0.38400  0.12700  0.94600  1.0000
