data_image0
_chemical_formula_structural       N2O2Sc2Sr2
_chemical_formula_sum              "N2 O2 Sc2 Sr2"
_cell_length_a       3.73893
_cell_length_b       5.72614
_cell_length_c       6.57548
_cell_angle_alpha    90
_cell_angle_beta     90
_cell_angle_gamma    90

_space_group_name_H-M_alt    "P 1"
_space_group_IT_number       1

loop_
  _space_group_symop_operation_xyz
  'x, y, z'

loop_
  _atom_site_type_symbol
  _atom_site_label
  _atom_site_symmetry_multiplicity
  _atom_site_fract_x
  _atom_site_fract_y
  _atom_site_fract_z
  _atom_site_occupancy
  N   N1        1.0  0.00000  0.84500  0.37700  1.0000
  N   N2        1.0  0.00000  0.34500  0.62300  1.0000
  O   O1        1.0  0.50000  0.42800  0.19400  1.0000
  O   O2        1.0  0.50000  0.92800  0.80600  1.0000
  Sc  Sc1       1.0  0.00000  0.49500  0.34400  1.0000
  Sc  Sc2       1.0  0.00000  0.99500  0.65600  1.0000
  Sr  Sr1       1.0  0.50000  0.98700  0.18400  1.0000
  Sr  Sr2       1.0  0.50000  0.48700  0.81600  1.0000
