data_image0
_chemical_formula_structural       Bi2N2O2Sr2
_chemical_formula_sum              "Bi2 N2 O2 Sr2"
_cell_length_a       5.0013
_cell_length_b       5.31132
_cell_length_c       5.40109
_cell_angle_alpha    90
_cell_angle_beta     90
_cell_angle_gamma    90

_space_group_name_H-M_alt    "P 1"
_space_group_IT_number       1

loop_
  _space_group_symop_operation_xyz
  'x, y, z'

loop_
  _atom_site_type_symbol
  _atom_site_label
  _atom_site_symmetry_multiplicity
  _atom_site_fract_x
  _atom_site_fract_y
  _atom_site_fract_z
  _atom_site_occupancy
  Bi  Bi1       1.0  0.00000  0.46700  0.26600  1.0000
  Bi  Bi2       1.0  1.00000  0.96700  0.73400  1.0000
  N   N1        1.0  0.00000  0.86800  0.34100  1.0000
  N   N2        1.0  0.00000  0.36800  0.65900  1.0000
  O   O1        1.0  0.50000  0.45900  0.23600  1.0000
  O   O2        1.0  0.50000  0.95900  0.76400  1.0000
  Sr  Sr1       1.0  0.50000  0.96000  0.25000  1.0000
  Sr  Sr2       1.0  0.50000  0.46000  0.75000  1.0000
