data_image0
_chemical_formula_structural       Er2N2Ni2O2
_chemical_formula_sum              "Er2 N2 Ni2 O2"
_cell_length_a       4.66829
_cell_length_b       4.66829
_cell_length_c       4.39128
_cell_angle_alpha    89.9994
_cell_angle_beta     89.9994
_cell_angle_gamma    90.0134

_space_group_name_H-M_alt    "P 1"
_space_group_IT_number       1

loop_
  _space_group_symop_operation_xyz
  'x, y, z'

loop_
  _atom_site_type_symbol
  _atom_site_label
  _atom_site_symmetry_multiplicity
  _atom_site_fract_x
  _atom_site_fract_y
  _atom_site_fract_z
  _atom_site_occupancy
  Er  Er1       1.0  0.22000  0.72100  0.67400  1.0000
  Er  Er2       1.0  0.72100  0.22000  0.67400  1.0000
  N   N1        1.0  0.72100  0.72100  0.67400  1.0000
  N   N2        1.0  0.22000  0.22000  0.67400  1.0000
  Ni  Ni1       1.0  0.71100  0.71100  0.17400  1.0000
  Ni  Ni2       1.0  0.22700  0.22700  0.17500  1.0000
  O   O1        1.0  0.23000  0.71300  0.17400  1.0000
  O   O2        1.0  0.71300  0.23000  0.17400  1.0000
