data_image0
_chemical_formula_structural       Cu2N2O2Y2
_chemical_formula_sum              "Cu2 N2 O2 Y2"
_cell_length_a       3.6601
_cell_length_b       5.15027
_cell_length_c       5.74861
_cell_angle_alpha    90
_cell_angle_beta     90
_cell_angle_gamma    90

_space_group_name_H-M_alt    "P 1"
_space_group_IT_number       1

loop_
  _space_group_symop_operation_xyz
  'x, y, z'

loop_
  _atom_site_type_symbol
  _atom_site_label
  _atom_site_symmetry_multiplicity
  _atom_site_fract_x
  _atom_site_fract_y
  _atom_site_fract_z
  _atom_site_occupancy
  Cu  Cu1       1.0  0.50000  0.98200  0.23700  1.0000
  Cu  Cu2       1.0  0.50000  0.48200  0.76300  1.0000
  N   N1        1.0  0.00000  0.93900  0.32600  1.0000
  N   N2        1.0  0.00000  0.43900  0.67400  1.0000
  O   O1        1.0  0.50000  0.35200  0.11700  1.0000
  O   O2        1.0  0.50000  0.85200  0.88300  1.0000
  Y   Y1        1.0  0.00000  0.48100  0.27900  1.0000
  Y   Y2        1.0  0.00000  0.98100  0.72100  1.0000
