data_image0
_chemical_formula_structural       Fe2Sb4
_chemical_formula_sum              "Fe2 Sb4"
_cell_length_a       5.78488
_cell_length_b       6.50231
_cell_length_c       3.25711
_cell_angle_alpha    90
_cell_angle_beta     90
_cell_angle_gamma    90

_space_group_name_H-M_alt    "P 1"
_space_group_IT_number       1

loop_
  _space_group_symop_operation_xyz
  'x, y, z'

loop_
  _atom_site_type_symbol
  _atom_site_label
  _atom_site_symmetry_multiplicity
  _atom_site_fract_x
  _atom_site_fract_y
  _atom_site_fract_z
  _atom_site_occupancy
  Fe  Fe1       1.0  0.00000  0.00000  0.00664  1.0000
  Fe  Fe2       1.0  0.50000  0.50000  0.50700  1.0000
  Sb  Sb1       1.0  0.19600  0.35500  0.00638  1.0000
  Sb  Sb2       1.0  0.80400  0.64500  0.00638  1.0000
  Sb  Sb3       1.0  0.69600  0.14500  0.50600  1.0000
  Sb  Sb4       1.0  0.30400  0.85500  0.50600  1.0000
