data_image0
_chemical_formula_structural       Al2Ge2Y2
_chemical_formula_sum              "Al2 Ge2 Y2"
_cell_length_a       4.06584
_cell_length_b       5.61425
_cell_length_c       5.78081
_cell_angle_alpha    90
_cell_angle_beta     90
_cell_angle_gamma    68.7708

_space_group_name_H-M_alt    "P 1"
_space_group_IT_number       1

loop_
  _space_group_symop_operation_xyz
  'x, y, z'

loop_
  _atom_site_type_symbol
  _atom_site_label
  _atom_site_symmetry_multiplicity
  _atom_site_fract_x
  _atom_site_fract_y
  _atom_site_fract_z
  _atom_site_occupancy
  Al  Al1       1.0  0.00000  0.00000  0.00000  1.0000
  Al  Al2       1.0  0.00000  0.00000  0.50000  1.0000
  Ge  Ge1       1.0  0.39400  0.21100  0.25000  1.0000
  Ge  Ge2       1.0  0.60600  0.78900  0.75000  1.0000
  Y   Y1        1.0  0.69000  0.62000  0.25000  1.0000
  Y   Y2        1.0  0.31000  0.38000  0.75000  1.0000
