data_image0
_chemical_formula_structural       Ba2N2O2Sc2
_chemical_formula_sum              "Ba2 N2 O2 Sc2"
_cell_length_a       3.74479
_cell_length_b       6.22426
_cell_length_c       6.39557
_cell_angle_alpha    90
_cell_angle_beta     90
_cell_angle_gamma    90

_space_group_name_H-M_alt    "P 1"
_space_group_IT_number       1

loop_
  _space_group_symop_operation_xyz
  'x, y, z'

loop_
  _atom_site_type_symbol
  _atom_site_label
  _atom_site_symmetry_multiplicity
  _atom_site_fract_x
  _atom_site_fract_y
  _atom_site_fract_z
  _atom_site_occupancy
  Ba  Ba1       1.0  0.50000  0.00778  0.26500  1.0000
  Ba  Ba2       1.0  0.50000  0.50800  0.73500  1.0000
  N   N1        1.0  0.00000  0.76000  0.48900  1.0000
  N   N2        1.0  0.00000  0.26000  0.51100  1.0000
  O   O1        1.0  0.50000  0.48500  0.15100  1.0000
  O   O2        1.0  0.50000  0.98500  0.84900  1.0000
  Sc  Sc1       1.0  0.00000  0.50100  0.29500  1.0000
  Sc  Sc2       1.0  0.00000  0.00090  0.70500  1.0000
