data_image0
_chemical_formula_structural       Mg6O16V4
_chemical_formula_sum              "Mg6 O16 V4"
_cell_length_a       6.01043
_cell_length_b       6.45407
_cell_length_c       8.28093
_cell_angle_alpha    90
_cell_angle_beta     90
_cell_angle_gamma    62.2489

_space_group_name_H-M_alt    "P 1"
_space_group_IT_number       1

loop_
  _space_group_symop_operation_xyz
  'x, y, z'

loop_
  _atom_site_type_symbol
  _atom_site_label
  _atom_site_symmetry_multiplicity
  _atom_site_fract_x
  _atom_site_fract_y
  _atom_site_fract_z
  _atom_site_occupancy
  Mg  Mg1       1.0  0.00000  0.00000  0.00000  1.0000
  Mg  Mg2       1.0  0.11500  0.27100  0.25000  1.0000
  Mg  Mg3       1.0  0.61500  0.27100  0.25000  1.0000
  Mg  Mg4       1.0  0.50000  0.00000  0.50000  1.0000
  Mg  Mg5       1.0  0.38500  0.72900  0.75000  1.0000
  Mg  Mg6       1.0  0.88500  0.72900  0.75000  1.0000
  O   O1        1.0  0.14800  0.23800  0.00000  1.0000
  O   O2        1.0  0.61400  0.23800  0.00000  1.0000
  O   O3        1.0  0.38600  0.76200  0.00013  1.0000
  O   O4        1.0  0.85200  0.76200  0.00013  1.0000
  O   O5        1.0  0.74900  0.50300  0.23000  1.0000
  O   O6        1.0  0.99600  0.00852  0.24500  1.0000
  O   O7        1.0  0.49600  0.00852  0.25500  1.0000
  O   O8        1.0  0.24900  0.50300  0.27000  1.0000
  O   O9        1.0  0.35200  0.76200  0.50000  1.0000
  O   O10       1.0  0.88600  0.76200  0.50000  1.0000
  O   O11       1.0  0.11400  0.23800  0.50000  1.0000
  O   O12       1.0  0.64800  0.23800  0.50000  1.0000
  O   O13       1.0  0.75100  0.49700  0.73000  1.0000
  O   O14       1.0  0.50400  0.99100  0.74500  1.0000
  O   O15       1.0  0.00426  0.99100  0.75500  1.0000
  O   O16       1.0  0.25100  0.49700  0.77000  1.0000
  V   V1        1.0  0.62000  0.75900  0.12000  1.0000
  V   V2        1.0  0.12000  0.75900  0.38000  1.0000
  V   V3        1.0  0.88000  0.24100  0.62000  1.0000
  V   V4        1.0  0.38000  0.24100  0.88000  1.0000
