data_image0
_chemical_formula_structural       Cs2Ho2O2Se2
_chemical_formula_sum              "Cs2 Ho2 O2 Se2"
_cell_length_a       4.66801
_cell_length_b       4.66801
_cell_length_c       11.0695
_cell_angle_alpha    90
_cell_angle_beta     90
_cell_angle_gamma    90

_space_group_name_H-M_alt    "P 1"
_space_group_IT_number       1

loop_
  _space_group_symop_operation_xyz
  'x, y, z'

loop_
  _atom_site_type_symbol
  _atom_site_label
  _atom_site_symmetry_multiplicity
  _atom_site_fract_x
  _atom_site_fract_y
  _atom_site_fract_z
  _atom_site_occupancy
  Cs  Cs1       1.0  0.75000  0.25000  0.50000  1.0000
  Cs  Cs2       1.0  0.25000  0.75000  0.50000  1.0000
  Ho  Ho1       1.0  0.75000  0.75000  0.04920  1.0000
  Ho  Ho2       1.0  0.25000  0.25000  0.95100  1.0000
  O   O1        1.0  0.75000  0.25000  0.00000  1.0000
  O   O2        1.0  0.25000  0.75000  0.00000  1.0000
  Se  Se1       1.0  0.75000  0.75000  0.28400  1.0000
  Se  Se2       1.0  0.25000  0.25000  0.71600  1.0000
