data_image0
_chemical_formula_structural       Al2N2Ni2O2
_chemical_formula_sum              "Al2 N2 Ni2 O2"
_cell_length_a       3.086
_cell_length_b       5.08969
_cell_length_c       5.58283
_cell_angle_alpha    90
_cell_angle_beta     90
_cell_angle_gamma    90

_space_group_name_H-M_alt    "P 1"
_space_group_IT_number       1

loop_
  _space_group_symop_operation_xyz
  'x, y, z'

loop_
  _atom_site_type_symbol
  _atom_site_label
  _atom_site_symmetry_multiplicity
  _atom_site_fract_x
  _atom_site_fract_y
  _atom_site_fract_z
  _atom_site_occupancy
  Al  Al1       1.0  0.00000  0.50100  0.35000  1.0000
  Al  Al2       1.0  0.00000  0.00135  0.65000  1.0000
  N   N1        1.0  0.00000  0.86300  0.34700  1.0000
  N   N2        1.0  0.00000  0.36300  0.65300  1.0000
  Ni  Ni1       1.0  0.50000  0.99400  0.17300  1.0000
  Ni  Ni2       1.0  0.50000  0.49400  0.82700  1.0000
  O   O1        1.0  0.50000  0.39600  0.19100  1.0000
  O   O2        1.0  0.50000  0.89600  0.80900  1.0000
