data_image0
_chemical_formula_structural       N2Ni2O2Sc2
_chemical_formula_sum              "N2 Ni2 O2 Sc2"
_cell_length_a       3.66049
_cell_length_b       4.45484
_cell_length_c       5.72254
_cell_angle_alpha    90
_cell_angle_beta     90
_cell_angle_gamma    90

_space_group_name_H-M_alt    "P 1"
_space_group_IT_number       1

loop_
  _space_group_symop_operation_xyz
  'x, y, z'

loop_
  _atom_site_type_symbol
  _atom_site_label
  _atom_site_symmetry_multiplicity
  _atom_site_fract_x
  _atom_site_fract_y
  _atom_site_fract_z
  _atom_site_occupancy
  N   N1        1.0  1.00000  0.93800  0.32200  1.0000
  N   N2        1.0  1.00000  0.43800  0.67800  1.0000
  Ni  Ni1       1.0  0.50000  0.94100  0.18800  1.0000
  Ni  Ni2       1.0  0.50000  0.44100  0.81200  1.0000
  O   O1        1.0  0.50000  0.43500  0.16000  1.0000
  O   O2        1.0  0.50000  0.93500  0.84000  1.0000
  Sc  Sc1       1.0  0.00000  0.43900  0.31400  1.0000
  Sc  Sc2       1.0  0.00000  0.93900  0.68600  1.0000
