data_image0
_chemical_formula_structural       Mg20Rh8
_chemical_formula_sum              "Mg20 Rh8"
_cell_length_a       8.59161
_cell_length_b       8.5917
_cell_length_c       8.0296
_cell_angle_alpha    90
_cell_angle_beta     90
_cell_angle_gamma    120

_space_group_name_H-M_alt    "P 1"
_space_group_IT_number       1

loop_
  _space_group_symop_operation_xyz
  'x, y, z'

loop_
  _atom_site_type_symbol
  _atom_site_label
  _atom_site_symmetry_multiplicity
  _atom_site_fract_x
  _atom_site_fract_y
  _atom_site_fract_z
  _atom_site_occupancy
  Mg  Mg1       1.0  0.00000  0.00000  0.00000  1.0000
  Mg  Mg2       1.0  0.80900  0.61700  0.06400  1.0000
  Mg  Mg3       1.0  0.38300  0.19100  0.06400  1.0000
  Mg  Mg4       1.0  0.80900  0.19100  0.06400  1.0000
  Mg  Mg5       1.0  0.08140  0.54100  0.25000  1.0000
  Mg  Mg6       1.0  0.45900  0.54100  0.25000  1.0000
  Mg  Mg7       1.0  0.45900  0.91900  0.25000  1.0000
  Mg  Mg8       1.0  0.38300  0.19100  0.43600  1.0000
  Mg  Mg9       1.0  0.80900  0.19100  0.43600  1.0000
  Mg  Mg10      1.0  0.80900  0.61700  0.43600  1.0000
  Mg  Mg11      1.0  0.00000  0.00000  0.50000  1.0000
  Mg  Mg12      1.0  0.19100  0.38300  0.56400  1.0000
  Mg  Mg13      1.0  0.19100  0.80900  0.56400  1.0000
  Mg  Mg14      1.0  0.61700  0.80900  0.56400  1.0000
  Mg  Mg15      1.0  0.54100  0.08140  0.75000  1.0000
  Mg  Mg16      1.0  0.54100  0.45900  0.75000  1.0000
  Mg  Mg17      1.0  0.91900  0.45900  0.75000  1.0000
  Mg  Mg18      1.0  0.19100  0.80900  0.93600  1.0000
  Mg  Mg19      1.0  0.61700  0.80900  0.93600  1.0000
  Mg  Mg20      1.0  0.19100  0.38300  0.93600  1.0000
  Rh  Rh1       1.0  0.12200  0.24500  0.25000  1.0000
  Rh  Rh2       1.0  0.66700  0.33300  0.25000  1.0000
  Rh  Rh3       1.0  0.12200  0.87800  0.25000  1.0000
  Rh  Rh4       1.0  0.75500  0.87800  0.25000  1.0000
  Rh  Rh5       1.0  0.24500  0.12200  0.75000  1.0000
  Rh  Rh6       1.0  0.87800  0.12200  0.75000  1.0000
  Rh  Rh7       1.0  0.33300  0.66700  0.75000  1.0000
  Rh  Rh8       1.0  0.87800  0.75500  0.75000  1.0000
