data_image0
_chemical_formula_structural       Al3Co3Pu3
_chemical_formula_sum              "Al3 Co3 Pu3"
_cell_length_a       6.69831
_cell_length_b       6.69831
_cell_length_c       3.9609
_cell_angle_alpha    90
_cell_angle_beta     90
_cell_angle_gamma    119.983

_space_group_name_H-M_alt    "P 1"
_space_group_IT_number       1

loop_
  _space_group_symop_operation_xyz
  'x, y, z'

loop_
  _atom_site_type_symbol
  _atom_site_label
  _atom_site_symmetry_multiplicity
  _atom_site_fract_x
  _atom_site_fract_y
  _atom_site_fract_z
  _atom_site_occupancy
  Al  Al1       1.0  0.23400  0.00000  0.00000  1.0000
  Al  Al2       1.0  0.00000  0.23400  0.00000  1.0000
  Al  Al3       1.0  0.76600  0.76600  0.00000  1.0000
  Co  Co1       1.0  0.66700  0.33300  0.00000  1.0000
  Co  Co2       1.0  0.33300  0.66700  0.00000  1.0000
  Co  Co3       1.0  0.00000  0.00000  0.50000  1.0000
  Pu  Pu1       1.0  0.58000  0.00000  0.50000  1.0000
  Pu  Pu2       1.0  0.42000  0.42000  0.50000  1.0000
  Pu  Pu3       1.0  0.00000  0.58000  0.50000  1.0000
