data_image0
_chemical_formula_structural       N2O2Y2Zn2
_chemical_formula_sum              "N2 O2 Y2 Zn2"
_cell_length_a       3.70113
_cell_length_b       5.10684
_cell_length_c       6.07103
_cell_angle_alpha    90
_cell_angle_beta     90
_cell_angle_gamma    90

_space_group_name_H-M_alt    "P 1"
_space_group_IT_number       1

loop_
  _space_group_symop_operation_xyz
  'x, y, z'

loop_
  _atom_site_type_symbol
  _atom_site_label
  _atom_site_symmetry_multiplicity
  _atom_site_fract_x
  _atom_site_fract_y
  _atom_site_fract_z
  _atom_site_occupancy
  N   N1        1.0  0.00000  0.92700  0.32400  1.0000
  N   N2        1.0  0.00000  0.42700  0.67600  1.0000
  O   O1        1.0  0.50000  0.38600  0.13500  1.0000
  O   O2        1.0  0.50000  0.88600  0.86500  1.0000
  Y   Y1        1.0  0.00000  0.46700  0.30400  1.0000
  Y   Y2        1.0  0.00000  0.96700  0.69600  1.0000
  Zn  Zn1       1.0  0.50000  0.97500  0.19300  1.0000
  Zn  Zn2       1.0  0.50000  0.47500  0.80700  1.0000
