data_image0
_chemical_formula_structural       Cr2N2O2Pb2
_chemical_formula_sum              "Cr2 N2 O2 Pb2"
_cell_length_a       3.74383
_cell_length_b       4.61296
_cell_length_c       7.28494
_cell_angle_alpha    90
_cell_angle_beta     90
_cell_angle_gamma    90

_space_group_name_H-M_alt    "P 1"
_space_group_IT_number       1

loop_
  _space_group_symop_operation_xyz
  'x, y, z'

loop_
  _atom_site_type_symbol
  _atom_site_label
  _atom_site_symmetry_multiplicity
  _atom_site_fract_x
  _atom_site_fract_y
  _atom_site_fract_z
  _atom_site_occupancy
  Cr  Cr1       1.0  0.00000  0.46400  0.37500  1.0000
  Cr  Cr2       1.0  0.00000  0.96400  0.62500  1.0000
  N   N1        1.0  0.00000  0.90700  0.36200  1.0000
  N   N2        1.0  0.00000  0.40700  0.63800  1.0000
  O   O1        1.0  0.50000  0.43300  0.29800  1.0000
  O   O2        1.0  0.50000  0.93300  0.70200  1.0000
  Pb  Pb1       1.0  0.50000  0.95000  0.17600  1.0000
  Pb  Pb2       1.0  0.50000  0.45000  0.82400  1.0000
