data_image0
_chemical_formula_structural       Co4Er4Ga4
_chemical_formula_sum              "Co4 Er4 Ga4"
_cell_length_a       6.70139
_cell_length_b       4.23939
_cell_length_c       7.31981
_cell_angle_alpha    90
_cell_angle_beta     90
_cell_angle_gamma    90

_space_group_name_H-M_alt    "P 1"
_space_group_IT_number       1

loop_
  _space_group_symop_operation_xyz
  'x, y, z'

loop_
  _atom_site_type_symbol
  _atom_site_label
  _atom_site_symmetry_multiplicity
  _atom_site_fract_x
  _atom_site_fract_y
  _atom_site_fract_z
  _atom_site_occupancy
  Co  Co1       1.0  0.71200  0.75000  0.09910  1.0000
  Co  Co2       1.0  0.21200  0.75000  0.40100  1.0000
  Co  Co3       1.0  0.78800  0.25000  0.59900  1.0000
  Co  Co4       1.0  0.28800  0.25000  0.90100  1.0000
  Er  Er1       1.0  0.01730  0.25000  0.19200  1.0000
  Er  Er2       1.0  0.51700  0.25000  0.30800  1.0000
  Er  Er3       1.0  0.48300  0.75000  0.69200  1.0000
  Er  Er4       1.0  0.98300  0.75000  0.80800  1.0000
  Ga  Ga1       1.0  0.32800  0.75000  0.07660  1.0000
  Ga  Ga2       1.0  0.82800  0.75000  0.42300  1.0000
  Ga  Ga3       1.0  0.17200  0.25000  0.57700  1.0000
  Ga  Ga4       1.0  0.67200  0.25000  0.92300  1.0000
