data_image0
_chemical_formula_structural       As4Li4Mg4O16
_chemical_formula_sum              "As4 Li4 Mg4 O16"
_cell_length_a       10.3619
_cell_length_b       5.92324
_cell_length_c       4.87034
_cell_angle_alpha    90
_cell_angle_beta     90
_cell_angle_gamma    90

_space_group_name_H-M_alt    "P 1"
_space_group_IT_number       1

loop_
  _space_group_symop_operation_xyz
  'x, y, z'

loop_
  _atom_site_type_symbol
  _atom_site_label
  _atom_site_symmetry_multiplicity
  _atom_site_fract_x
  _atom_site_fract_y
  _atom_site_fract_z
  _atom_site_occupancy
  As  As1       1.0  0.59300  0.25000  0.06560  1.0000
  As  As2       1.0  0.09290  0.25000  0.43400  1.0000
  As  As3       1.0  0.90700  0.75000  0.56600  1.0000
  As  As4       1.0  0.40700  0.75000  0.93400  1.0000
  Li  Li1       1.0  0.00000  0.00000  0.00000  1.0000
  Li  Li2       1.0  0.00000  0.50000  0.00000  1.0000
  Li  Li3       1.0  0.50000  0.00000  0.50000  1.0000
  Li  Li4       1.0  0.50000  0.50000  0.50000  1.0000
  Mg  Mg1       1.0  0.72700  0.75000  0.00643  1.0000
  Mg  Mg2       1.0  0.22700  0.75000  0.49400  1.0000
  Mg  Mg3       1.0  0.77300  0.25000  0.50600  1.0000
  Mg  Mg4       1.0  0.27300  0.25000  0.99400  1.0000
  O   O1        1.0  0.44200  0.25000  0.20900  1.0000
  O   O2        1.0  0.90400  0.75000  0.21700  1.0000
  O   O3        1.0  0.67100  0.02750  0.22500  1.0000
  O   O4        1.0  0.67100  0.47200  0.22500  1.0000
  O   O5        1.0  0.17100  0.02750  0.27500  1.0000
  O   O6        1.0  0.17100  0.47200  0.27500  1.0000
  O   O7        1.0  0.40400  0.75000  0.28300  1.0000
  O   O8        1.0  0.94200  0.25000  0.29100  1.0000
  O   O9        1.0  0.05840  0.75000  0.70900  1.0000
  O   O10       1.0  0.59600  0.25000  0.71700  1.0000
  O   O11       1.0  0.82900  0.52800  0.72500  1.0000
  O   O12       1.0  0.82900  0.97200  0.72500  1.0000
  O   O13       1.0  0.32900  0.52800  0.77500  1.0000
  O   O14       1.0  0.32900  0.97200  0.77500  1.0000
  O   O15       1.0  0.09600  0.25000  0.78300  1.0000
  O   O16       1.0  0.55800  0.75000  0.79100  1.0000
