data_image0
_chemical_formula_structural       Co12Eu8Na12O48
_chemical_formula_sum              "Co12 Eu8 Na12 O48"
_cell_length_a       10.9522
_cell_length_b       10.9522
_cell_length_c       10.9522
_cell_angle_alpha    109.471
_cell_angle_beta     109.471
_cell_angle_gamma    109.471

_space_group_name_H-M_alt    "P 1"
_space_group_IT_number       1

loop_
  _space_group_symop_operation_xyz
  'x, y, z'

loop_
  _atom_site_type_symbol
  _atom_site_label
  _atom_site_symmetry_multiplicity
  _atom_site_fract_x
  _atom_site_fract_y
  _atom_site_fract_z
  _atom_site_occupancy
  Co  Co1       1.0  0.37500  0.25000  0.12500  1.0000
  Co  Co2       1.0  0.25000  0.87500  0.12500  1.0000
  Co  Co3       1.0  0.37500  0.62500  0.25000  1.0000
  Co  Co4       1.0  0.87500  0.12500  0.25000  1.0000
  Co  Co5       1.0  0.75000  0.62500  0.37500  1.0000
  Co  Co6       1.0  0.12500  0.75000  0.37500  1.0000
  Co  Co7       1.0  0.25000  0.37500  0.62500  1.0000
  Co  Co8       1.0  0.87500  0.25000  0.62500  1.0000
  Co  Co9       1.0  0.62500  0.37500  0.75000  1.0000
  Co  Co10      1.0  0.12500  0.87500  0.75000  1.0000
  Co  Co11      1.0  0.75000  0.12500  0.87500  1.0000
  Co  Co12      1.0  0.62500  0.75000  0.87500  1.0000
  Eu  Eu1       1.0  0.00000  0.00000  0.00000  1.0000
  Eu  Eu2       1.0  0.50000  0.00000  0.00000  1.0000
  Eu  Eu3       1.0  0.00000  0.50000  0.00000  1.0000
  Eu  Eu4       1.0  0.50000  0.50000  0.00000  1.0000
  Eu  Eu5       1.0  0.00000  0.00000  0.50000  1.0000
  Eu  Eu6       1.0  0.50000  0.50000  0.50000  1.0000
  Eu  Eu7       1.0  0.50000  0.00000  0.50000  1.0000
  Eu  Eu8       1.0  0.00000  0.50000  0.50000  1.0000
  Na  Na1       1.0  0.75000  0.37500  0.12500  1.0000
  Na  Na2       1.0  0.87500  0.75000  0.12500  1.0000
  Na  Na3       1.0  0.12500  0.37500  0.25000  1.0000
  Na  Na4       1.0  0.62500  0.87500  0.25000  1.0000
  Na  Na5       1.0  0.25000  0.12500  0.37500  1.0000
  Na  Na6       1.0  0.62500  0.25000  0.37500  1.0000
  Na  Na7       1.0  0.75000  0.87500  0.62500  1.0000
  Na  Na8       1.0  0.37500  0.75000  0.62500  1.0000
  Na  Na9       1.0  0.37500  0.12500  0.75000  1.0000
  Na  Na10      1.0  0.87500  0.62500  0.75000  1.0000
  Na  Na11      1.0  0.25000  0.62500  0.87500  1.0000
  Na  Na12      1.0  0.12500  0.25000  0.87500  1.0000
  O   O1        1.0  0.62100  0.85400  0.04000  1.0000
  O   O2        1.0  0.91900  0.18600  0.04000  1.0000
  O   O3        1.0  0.31400  0.46000  0.08090  1.0000
  O   O4        1.0  0.26700  0.62100  0.08090  1.0000
  O   O5        1.0  0.08090  0.76700  0.12100  1.0000
  O   O6        1.0  0.54000  0.35400  0.12100  1.0000
  O   O7        1.0  0.87900  0.96000  0.14600  1.0000
  O   O8        1.0  0.76700  0.18600  0.14600  1.0000
  O   O9        1.0  0.26700  0.14600  0.18600  1.0000
  O   O10       1.0  0.41900  0.04000  0.18600  1.0000
  O   O11       1.0  0.31400  0.35400  0.23300  1.0000
  O   O12       1.0  0.41900  0.87900  0.23300  1.0000
  O   O13       1.0  0.64600  0.68600  0.26700  1.0000
  O   O14       1.0  0.12100  0.58100  0.26700  1.0000
  O   O15       1.0  0.85400  0.73300  0.31400  1.0000
  O   O16       1.0  0.96000  0.58100  0.31400  1.0000
  O   O17       1.0  0.04000  0.12100  0.35400  1.0000
  O   O18       1.0  0.81400  0.23300  0.35400  1.0000
  O   O19       1.0  0.23300  0.91900  0.37900  1.0000
  O   O20       1.0  0.64600  0.46000  0.37900  1.0000
  O   O21       1.0  0.37900  0.73300  0.41900  1.0000
  O   O22       1.0  0.54000  0.68600  0.41900  1.0000
  O   O23       1.0  0.81400  0.08090  0.46000  1.0000
  O   O24       1.0  0.14600  0.37900  0.46000  1.0000
  O   O25       1.0  0.85400  0.62100  0.54000  1.0000
  O   O26       1.0  0.18600  0.91900  0.54000  1.0000
  O   O27       1.0  0.62100  0.26700  0.58100  1.0000
  O   O28       1.0  0.46000  0.31400  0.58100  1.0000
  O   O29       1.0  0.35400  0.54000  0.62100  1.0000
  O   O30       1.0  0.76700  0.08090  0.62100  1.0000
  O   O31       1.0  0.18600  0.76700  0.64600  1.0000
  O   O32       1.0  0.96000  0.87900  0.64600  1.0000
  O   O33       1.0  0.14600  0.26700  0.68600  1.0000
  O   O34       1.0  0.04000  0.41900  0.68600  1.0000
  O   O35       1.0  0.87900  0.41900  0.73300  1.0000
  O   O36       1.0  0.35400  0.31400  0.73300  1.0000
  O   O37       1.0  0.58100  0.12100  0.76700  1.0000
  O   O38       1.0  0.68600  0.64600  0.76700  1.0000
  O   O39       1.0  0.58100  0.96000  0.81400  1.0000
  O   O40       1.0  0.73300  0.85400  0.81400  1.0000
  O   O41       1.0  0.12100  0.04000  0.85400  1.0000
  O   O42       1.0  0.23300  0.81400  0.85400  1.0000
  O   O43       1.0  0.46000  0.64600  0.87900  1.0000
  O   O44       1.0  0.91900  0.23300  0.87900  1.0000
  O   O45       1.0  0.68600  0.54000  0.91900  1.0000
  O   O46       1.0  0.73300  0.37900  0.91900  1.0000
  O   O47       1.0  0.37900  0.14600  0.96000  1.0000
  O   O48       1.0  0.08090  0.81400  0.96000  1.0000
