data_image0
_chemical_formula_structural       Cu4Mg16Tb4
_chemical_formula_sum              "Cu4 Mg16 Tb4"
_cell_length_a       3.89331
_cell_length_b       12.168
_cell_length_c       12.168
_cell_angle_alpha    112.493
_cell_angle_beta     90
_cell_angle_gamma    90

_space_group_name_H-M_alt    "P 1"
_space_group_IT_number       1

loop_
  _space_group_symop_operation_xyz
  'x, y, z'

loop_
  _atom_site_type_symbol
  _atom_site_label
  _atom_site_symmetry_multiplicity
  _atom_site_fract_x
  _atom_site_fract_y
  _atom_site_fract_z
  _atom_site_occupancy
  Cu  Cu1       1.0  0.50000  0.44600  0.23600  1.0000
  Cu  Cu2       1.0  0.50000  0.23600  0.44600  1.0000
  Cu  Cu3       1.0  0.50000  0.76400  0.55400  1.0000
  Cu  Cu4       1.0  0.50000  0.55400  0.76400  1.0000
  Mg  Mg1       1.0  0.00000  0.00000  0.00000  1.0000
  Mg  Mg2       1.0  0.50000  0.21100  0.05240  1.0000
  Mg  Mg3       1.0  0.00000  0.41400  0.07510  1.0000
  Mg  Mg4       1.0  0.50000  0.62600  0.13800  1.0000
  Mg  Mg5       1.0  0.00000  0.83500  0.16500  1.0000
  Mg  Mg6       1.0  0.50000  0.05240  0.21100  1.0000
  Mg  Mg7       1.0  0.50000  0.86200  0.37400  1.0000
  Mg  Mg8       1.0  0.00000  0.07510  0.41400  1.0000
  Mg  Mg9       1.0  0.50000  0.50000  0.50000  1.0000
  Mg  Mg10      1.0  0.00000  0.92500  0.58600  1.0000
  Mg  Mg11      1.0  0.50000  0.13800  0.62600  1.0000
  Mg  Mg12      1.0  0.50000  0.94800  0.78900  1.0000
  Mg  Mg13      1.0  0.00000  0.16500  0.83500  1.0000
  Mg  Mg14      1.0  0.50000  0.37400  0.86200  1.0000
  Mg  Mg15      1.0  0.00000  0.58600  0.92500  1.0000
  Mg  Mg16      1.0  0.50000  0.78900  0.94800  1.0000
  Tb  Tb1       1.0  0.00000  0.30200  0.30200  1.0000
  Tb  Tb2       1.0  0.00000  0.63200  0.36800  1.0000
  Tb  Tb3       1.0  0.00000  0.36800  0.63200  1.0000
  Tb  Tb4       1.0  0.00000  0.69800  0.69800  1.0000
