data_image0
_chemical_formula_structural       K2Mg2O18P6
_chemical_formula_sum              "K2 Mg2 O18 P6"
_cell_length_a       6.57465
_cell_length_b       6.5746
_cell_length_c       9.71683
_cell_angle_alpha    90
_cell_angle_beta     90
_cell_angle_gamma    120

_space_group_name_H-M_alt    "P 1"
_space_group_IT_number       1

loop_
  _space_group_symop_operation_xyz
  'x, y, z'

loop_
  _atom_site_type_symbol
  _atom_site_label
  _atom_site_symmetry_multiplicity
  _atom_site_fract_x
  _atom_site_fract_y
  _atom_site_fract_z
  _atom_site_occupancy
  K   K1        1.0  0.66700  0.33300  0.00000  1.0000
  K   K2        1.0  0.66700  0.33300  0.50000  1.0000
  Mg  Mg1       1.0  0.33300  0.66700  0.00000  1.0000
  Mg  Mg2       1.0  0.33300  0.66700  0.50000  1.0000
  O   O1        1.0  0.33500  0.92600  0.11800  1.0000
  O   O2        1.0  0.59100  0.66500  0.11800  1.0000
  O   O3        1.0  0.07360  0.40900  0.11800  1.0000
  O   O4        1.0  0.80600  0.04760  0.25000  1.0000
  O   O5        1.0  0.24200  0.19400  0.25000  1.0000
  O   O6        1.0  0.95200  0.75800  0.25000  1.0000
  O   O7        1.0  0.07360  0.40900  0.38200  1.0000
  O   O8        1.0  0.59100  0.66500  0.38200  1.0000
  O   O9        1.0  0.33500  0.92600  0.38200  1.0000
  O   O10       1.0  0.59100  0.92600  0.61800  1.0000
  O   O11       1.0  0.07360  0.66500  0.61800  1.0000
  O   O12       1.0  0.33500  0.40900  0.61800  1.0000
  O   O13       1.0  0.24200  0.04760  0.75000  1.0000
  O   O14       1.0  0.95200  0.19400  0.75000  1.0000
  O   O15       1.0  0.80600  0.75800  0.75000  1.0000
  O   O16       1.0  0.33500  0.40900  0.88200  1.0000
  O   O17       1.0  0.07360  0.66500  0.88200  1.0000
  O   O18       1.0  0.59100  0.92600  0.88200  1.0000
  P   P1        1.0  0.05630  0.28500  0.25000  1.0000
  P   P2        1.0  0.71500  0.77100  0.25000  1.0000
  P   P3        1.0  0.22900  0.94400  0.25000  1.0000
  P   P4        1.0  0.22900  0.28500  0.75000  1.0000
  P   P5        1.0  0.05630  0.77100  0.75000  1.0000
  P   P6        1.0  0.71500  0.94400  0.75000  1.0000
