data_image0
_chemical_formula_structural       Au2Pb4
_chemical_formula_sum              "Au2 Pb4"
_cell_length_a       5.73101
_cell_length_b       5.97557
_cell_length_c       5.97557
_cell_angle_alpha    103.294
_cell_angle_beta     61.3449
_cell_angle_gamma    118.655

_space_group_name_H-M_alt    "P 1"
_space_group_IT_number       1

loop_
  _space_group_symop_operation_xyz
  'x, y, z'

loop_
  _atom_site_type_symbol
  _atom_site_label
  _atom_site_symmetry_multiplicity
  _atom_site_fract_x
  _atom_site_fract_y
  _atom_site_fract_z
  _atom_site_occupancy
  Au  Au1       1.0  0.25000  0.00000  0.00000  1.0000
  Au  Au2       1.0  0.75000  0.00000  0.00000  1.0000
  Pb  Pb1       1.0  0.15900  0.50000  0.18200  1.0000
  Pb  Pb2       1.0  0.34100  0.18200  0.50000  1.0000
  Pb  Pb3       1.0  0.65900  0.81800  0.50000  1.0000
  Pb  Pb4       1.0  0.84100  0.50000  0.81800  1.0000
