data_image0
_chemical_formula_structural       La4Mg2O12Ti2
_chemical_formula_sum              "La4 Mg2 O12 Ti2"
_cell_length_a       5.55112
_cell_length_b       5.56298
_cell_length_c       7.84151
_cell_angle_alpha    90
_cell_angle_beta     90.093
_cell_angle_gamma    90

_space_group_name_H-M_alt    "P 1"
_space_group_IT_number       1

loop_
  _space_group_symop_operation_xyz
  'x, y, z'

loop_
  _atom_site_type_symbol
  _atom_site_label
  _atom_site_symmetry_multiplicity
  _atom_site_fract_x
  _atom_site_fract_y
  _atom_site_fract_z
  _atom_site_occupancy
  La  La1       1.0  0.99300  0.03230  0.24900  1.0000
  La  La2       1.0  0.50700  0.53200  0.25100  1.0000
  La  La3       1.0  0.49300  0.46800  0.74900  1.0000
  La  La4       1.0  0.00685  0.96800  0.75100  1.0000
  Mg  Mg1       1.0  0.00000  0.50000  0.00000  1.0000
  Mg  Mg2       1.0  0.50000  0.00000  0.50000  1.0000
  O   O1        1.0  0.77900  0.79100  0.04200  1.0000
  O   O2        1.0  0.70800  0.28100  0.04340  1.0000
  O   O3        1.0  0.42000  0.98300  0.24400  1.0000
  O   O4        1.0  0.08050  0.48300  0.25600  1.0000
  O   O5        1.0  0.79200  0.78100  0.45700  1.0000
  O   O6        1.0  0.72100  0.29100  0.45800  1.0000
  O   O7        1.0  0.27900  0.70900  0.54200  1.0000
  O   O8        1.0  0.20800  0.21900  0.54300  1.0000
  O   O9        1.0  0.92000  0.51700  0.74400  1.0000
  O   O10       1.0  0.58000  0.01710  0.75600  1.0000
  O   O11       1.0  0.29200  0.71900  0.95700  1.0000
  O   O12       1.0  0.22100  0.20900  0.95800  1.0000
  Ti  Ti1       1.0  0.50000  0.00000  0.00000  1.0000
  Ti  Ti2       1.0  0.00000  0.50000  0.50000  1.0000
