data_image0
_chemical_formula_structural       Li4Mg4O16P4
_chemical_formula_sum              "Li4 Mg4 O16 P4"
_cell_length_a       10.0748
_cell_length_b       5.85747
_cell_length_c       4.66594
_cell_angle_alpha    90
_cell_angle_beta     90
_cell_angle_gamma    90

_space_group_name_H-M_alt    "P 1"
_space_group_IT_number       1

loop_
  _space_group_symop_operation_xyz
  'x, y, z'

loop_
  _atom_site_type_symbol
  _atom_site_label
  _atom_site_symmetry_multiplicity
  _atom_site_fract_x
  _atom_site_fract_y
  _atom_site_fract_z
  _atom_site_occupancy
  Li  Li1       1.0  0.00000  0.00000  0.00000  1.0000
  Li  Li2       1.0  0.00000  0.50000  0.00000  1.0000
  Li  Li3       1.0  0.50000  0.00000  0.50000  1.0000
  Li  Li4       1.0  0.50000  0.50000  0.50000  1.0000
  Mg  Mg1       1.0  0.72300  0.75000  0.01750  1.0000
  Mg  Mg2       1.0  0.22300  0.75000  0.48300  1.0000
  Mg  Mg3       1.0  0.77700  0.25000  0.51700  1.0000
  Mg  Mg4       1.0  0.27700  0.25000  0.98300  1.0000
  O   O1        1.0  0.45100  0.25000  0.20300  1.0000
  O   O2        1.0  0.66700  0.04140  0.22200  1.0000
  O   O3        1.0  0.66700  0.45900  0.22200  1.0000
  O   O4        1.0  0.40100  0.75000  0.24500  1.0000
  O   O5        1.0  0.90100  0.75000  0.25500  1.0000
  O   O6        1.0  0.16700  0.04140  0.27800  1.0000
  O   O7        1.0  0.16700  0.45900  0.27800  1.0000
  O   O8        1.0  0.95100  0.25000  0.29700  1.0000
  O   O9        1.0  0.04920  0.75000  0.70300  1.0000
  O   O10       1.0  0.83300  0.54100  0.72200  1.0000
  O   O11       1.0  0.83300  0.95900  0.72200  1.0000
  O   O12       1.0  0.09950  0.25000  0.74500  1.0000
  O   O13       1.0  0.59900  0.25000  0.75500  1.0000
  O   O14       1.0  0.33300  0.54100  0.77800  1.0000
  O   O15       1.0  0.33300  0.95900  0.77800  1.0000
  O   O16       1.0  0.54900  0.75000  0.79700  1.0000
  P   P1        1.0  0.59400  0.25000  0.08270  1.0000
  P   P2        1.0  0.09400  0.25000  0.41700  1.0000
  P   P3        1.0  0.90600  0.75000  0.58300  1.0000
  P   P4        1.0  0.40600  0.75000  0.91700  1.0000
