data_image0
_chemical_formula_structural       H2Ni2Zr2
_chemical_formula_sum              "H2 Ni2 Zr2"
_cell_length_a       3.32281
_cell_length_b       4.04668
_cell_length_c       5.39208
_cell_angle_alpha    90
_cell_angle_beta     72.0541
_cell_angle_gamma    90

_space_group_name_H-M_alt    "P 1"
_space_group_IT_number       1

loop_
  _space_group_symop_operation_xyz
  'x, y, z'

loop_
  _atom_site_type_symbol
  _atom_site_label
  _atom_site_symmetry_multiplicity
  _atom_site_fract_x
  _atom_site_fract_y
  _atom_site_fract_z
  _atom_site_occupancy
  H   H1        1.0  0.78300  0.75000  0.43400  1.0000
  H   H2        1.0  0.21700  0.25000  0.56600  1.0000
  Ni  Ni1       1.0  0.42800  0.75000  0.14400  1.0000
  Ni  Ni2       1.0  0.57200  0.25000  0.85600  1.0000
  Zr  Zr1       1.0  0.85700  0.25000  0.28600  1.0000
  Zr  Zr2       1.0  0.14300  0.75000  0.71400  1.0000
