data_image0
_chemical_formula_structural       Al3H18Li3Mg3
_chemical_formula_sum              "Al3 H18 Li3 Mg3"
_cell_length_a       7.84575
_cell_length_b       7.8457
_cell_length_c       4.27526
_cell_angle_alpha    90.0001
_cell_angle_beta     89.9991
_cell_angle_gamma    120

_space_group_name_H-M_alt    "P 1"
_space_group_IT_number       1

loop_
  _space_group_symop_operation_xyz
  'x, y, z'

loop_
  _atom_site_type_symbol
  _atom_site_label
  _atom_site_symmetry_multiplicity
  _atom_site_fract_x
  _atom_site_fract_y
  _atom_site_fract_z
  _atom_site_occupancy
  Al  Al1       1.0  0.00000  0.00000  1.00000  1.0000
  Al  Al2       1.0  0.66700  0.33300  0.49800  1.0000
  Al  Al3       1.0  0.33300  0.66700  0.50200  1.0000
  H   H1        1.0  0.90500  0.78900  0.22300  1.0000
  H   H2        1.0  0.88400  0.09480  0.22400  1.0000
  H   H3        1.0  0.21100  0.11600  0.22400  1.0000
  H   H4        1.0  0.54200  0.12500  0.27000  1.0000
  H   H5        1.0  0.58300  0.45800  0.27000  1.0000
  H   H6        1.0  0.87500  0.41700  0.27000  1.0000
  H   H7        1.0  0.54300  0.77600  0.27500  1.0000
  H   H8        1.0  0.23400  0.45700  0.27500  1.0000
  H   H9        1.0  0.22400  0.76600  0.27500  1.0000
  H   H10       1.0  0.77600  0.54300  0.72500  1.0000
  H   H11       1.0  0.76600  0.22400  0.72500  1.0000
  H   H12       1.0  0.45700  0.23400  0.72500  1.0000
  H   H13       1.0  0.12500  0.54200  0.73000  1.0000
  H   H14       1.0  0.41700  0.87500  0.73000  1.0000
  H   H15       1.0  0.45800  0.58300  0.73000  1.0000
  H   H16       1.0  0.78900  0.90500  0.77600  1.0000
  H   H17       1.0  0.11600  0.21100  0.77600  1.0000
  H   H18       1.0  0.09480  0.88400  0.77700  1.0000
  Li  Li1       1.0  0.29500  0.00000  0.50000  1.0000
  Li  Li2       1.0  0.00000  0.29500  0.50000  1.0000
  Li  Li3       1.0  0.70500  0.70500  0.50000  1.0000
  Mg  Mg1       1.0  0.63600  0.00001  0.00000  1.0000
  Mg  Mg2       1.0  0.00000  0.63600  0.00000  1.0000
  Mg  Mg3       1.0  0.36400  0.36400  0.00000  1.0000
