data_image0
_chemical_formula_structural       Hf3Ir3Sn3
_chemical_formula_sum              "Hf3 Ir3 Sn3"
_cell_length_a       7.35223
_cell_length_b       7.35223
_cell_length_c       3.68889
_cell_angle_alpha    90
_cell_angle_beta     90
_cell_angle_gamma    120.001

_space_group_name_H-M_alt    "P 1"
_space_group_IT_number       1

loop_
  _space_group_symop_operation_xyz
  'x, y, z'

loop_
  _atom_site_type_symbol
  _atom_site_label
  _atom_site_symmetry_multiplicity
  _atom_site_fract_x
  _atom_site_fract_y
  _atom_site_fract_z
  _atom_site_occupancy
  Hf  Hf1       1.0  0.60600  0.00000  0.50000  1.0000
  Hf  Hf2       1.0  0.39400  0.39400  0.50000  1.0000
  Hf  Hf3       1.0  0.00000  0.60600  0.50000  1.0000
  Ir  Ir1       1.0  0.66700  0.33300  0.00000  1.0000
  Ir  Ir2       1.0  0.33300  0.66700  0.00000  1.0000
  Ir  Ir3       1.0  0.00002  0.00002  0.50000  1.0000
  Sn  Sn1       1.0  0.26800  0.00000  0.00000  1.0000
  Sn  Sn2       1.0  0.00000  0.26800  0.00000  1.0000
  Sn  Sn3       1.0  0.73200  0.73200  0.00000  1.0000
