data_image0
_chemical_formula_structural       Co5Sb5V4
_chemical_formula_sum              "Co5 Sb5 V4"
_cell_length_a       7.033
_cell_length_b       7.033
_cell_length_c       7.033
_cell_angle_alpha    99.7114
_cell_angle_beta     99.7114
_cell_angle_gamma    131.501

_space_group_name_H-M_alt    "P 1"
_space_group_IT_number       1

loop_
  _space_group_symop_operation_xyz
  'x, y, z'

loop_
  _atom_site_type_symbol
  _atom_site_label
  _atom_site_symmetry_multiplicity
  _atom_site_fract_x
  _atom_site_fract_y
  _atom_site_fract_z
  _atom_site_occupancy
  Co  Co1       1.0  0.10900  0.41500  0.07740  1.0000
  Co  Co2       1.0  0.98500  0.86300  0.29400  1.0000
  Co  Co3       1.0  0.76900  0.29100  0.50600  1.0000
  Co  Co4       1.0  0.53700  0.63100  0.72300  1.0000
  Co  Co5       1.0  0.35000  0.05000  0.90000  1.0000
  Sb  Sb1       1.0  0.50200  0.50700  0.02910  1.0000
  Sb  Sb2       1.0  0.32700  0.89800  0.20500  1.0000
  Sb  Sb3       1.0  0.10000  0.30000  0.40000  1.0000
  Sb  Sb4       1.0  0.89300  0.72200  0.59500  1.0000
  Sb  Sb5       1.0  0.67800  0.07330  0.77100  1.0000
  V   V1        1.0  0.99500  0.99300  0.00342  1.0000
  V   V2        1.0  0.80800  0.40500  0.19800  1.0000
  V   V3        1.0  0.40700  0.21000  0.60200  1.0000
  V   V4        1.0  0.19000  0.59200  0.79700  1.0000
