data_image0
_chemical_formula_structural       Nb4Rh5Sb5
_chemical_formula_sum              "Nb4 Rh5 Sb5"
_cell_length_a       6.20814
_cell_length_b       7.55016
_cell_length_c       7.55016
_cell_angle_alpha    99.7312
_cell_angle_beta     114.276
_cell_angle_gamma    65.7244

_space_group_name_H-M_alt    "P 1"
_space_group_IT_number       1

loop_
  _space_group_symop_operation_xyz
  'x, y, z'

loop_
  _atom_site_type_symbol
  _atom_site_label
  _atom_site_symmetry_multiplicity
  _atom_site_fract_x
  _atom_site_fract_y
  _atom_site_fract_z
  _atom_site_occupancy
  Nb  Nb1       1.0  0.79600  0.60100  0.20200  1.0000
  Nb  Nb2       1.0  0.60200  0.20200  0.39900  1.0000
  Nb  Nb3       1.0  0.40600  0.79800  0.60100  1.0000
  Nb  Nb4       1.0  0.19600  0.39900  0.79800  1.0000
  Rh  Rh1       1.0  0.62100  0.32100  0.10600  1.0000
  Rh  Rh2       1.0  0.48500  0.89400  0.32100  1.0000
  Rh  Rh3       1.0  0.25000  0.50000  0.50000  1.0000
  Rh  Rh4       1.0  0.05830  0.10600  0.67900  1.0000
  Rh  Rh5       1.0  0.83600  0.67900  0.89400  1.0000
  Sb  Sb1       1.0  0.50000  0.00000  0.00000  1.0000
  Sb  Sb2       1.0  0.27700  0.62500  0.19500  1.0000
  Sb  Sb3       1.0  0.09730  0.19500  0.37500  1.0000
  Sb  Sb4       1.0  0.91800  0.80500  0.62500  1.0000
  Sb  Sb5       1.0  0.70800  0.37500  0.80500  1.0000
