data_image0
_chemical_formula_structural       Co5Nb4Sb5
_chemical_formula_sum              "Co5 Nb4 Sb5"
_cell_length_a       7.23047
_cell_length_b       7.23047
_cell_length_c       7.23047
_cell_angle_alpha    99.739
_cell_angle_beta     99.739
_cell_angle_gamma    131.428

_space_group_name_H-M_alt    "P 1"
_space_group_IT_number       1

loop_
  _space_group_symop_operation_xyz
  'x, y, z'

loop_
  _atom_site_type_symbol
  _atom_site_label
  _atom_site_symmetry_multiplicity
  _atom_site_fract_x
  _atom_site_fract_y
  _atom_site_fract_z
  _atom_site_occupancy
  Co  Co1       1.0  0.65000  0.95000  0.10000  1.0000
  Co  Co2       1.0  0.45900  0.36400  0.28000  1.0000
  Co  Co3       1.0  0.23600  0.71500  0.49500  1.0000
  Co  Co4       1.0  0.02050  0.14100  0.70500  1.0000
  Co  Co5       1.0  0.88500  0.57900  0.92000  1.0000
  Nb  Nb1       1.0  0.80900  0.40400  0.20300  1.0000
  Nb  Nb2       1.0  0.59400  0.79100  0.39600  1.0000
  Nb  Nb3       1.0  0.19600  0.59800  0.80400  1.0000
  Nb  Nb4       1.0  0.00157  0.00602  0.99700  1.0000
  Sb  Sb1       1.0  0.31500  0.92400  0.22700  1.0000
  Sb  Sb2       1.0  0.11200  0.28500  0.40900  1.0000
  Sb  Sb3       1.0  0.90000  0.70000  0.60000  1.0000
  Sb  Sb4       1.0  0.67600  0.10300  0.79100  1.0000
  Sb  Sb5       1.0  0.49700  0.48800  0.97300  1.0000
