data_image0
_chemical_formula_structural       Pt4Sb4Zr3
_chemical_formula_sum              "Pt4 Sb4 Zr3"
_cell_length_a       6.40625
_cell_length_b       7.75319
_cell_length_c       6.40625
_cell_angle_alpha    65.598
_cell_angle_beta     90
_cell_angle_gamma    65.598

_space_group_name_H-M_alt    "P 1"
_space_group_IT_number       1

loop_
  _space_group_symop_operation_xyz
  'x, y, z'

loop_
  _atom_site_type_symbol
  _atom_site_label
  _atom_site_symmetry_multiplicity
  _atom_site_fract_x
  _atom_site_fract_y
  _atom_site_fract_z
  _atom_site_occupancy
  Pt  Pt1       1.0  0.60500  0.26100  0.13400  1.0000
  Pt  Pt2       1.0  0.39500  0.73900  0.39500  1.0000
  Pt  Pt3       1.0  0.13400  0.26100  0.60500  1.0000
  Pt  Pt4       1.0  0.86600  0.73900  0.86600  1.0000
  Sb  Sb1       1.0  0.50000  0.00000  0.00000  1.0000
  Sb  Sb2       1.0  0.23400  0.53200  0.23400  1.0000
  Sb  Sb3       1.0  0.00000  0.00000  0.50000  1.0000
  Sb  Sb4       1.0  0.76600  0.46800  0.76600  1.0000
  Zr  Zr1       1.0  0.75000  0.50000  0.25000  1.0000
  Zr  Zr2       1.0  0.50000  0.00000  0.50000  1.0000
  Zr  Zr3       1.0  0.25000  0.50000  0.75000  1.0000
