data_image0
_chemical_formula_structural       Pt4Sb4Ti3
_chemical_formula_sum              "Pt4 Sb4 Ti3"
_cell_length_a       6.22907
_cell_length_b       7.53457
_cell_length_c       6.22907
_cell_angle_alpha    65.5835
_cell_angle_beta     90
_cell_angle_gamma    65.5835

_space_group_name_H-M_alt    "P 1"
_space_group_IT_number       1

loop_
  _space_group_symop_operation_xyz
  'x, y, z'

loop_
  _atom_site_type_symbol
  _atom_site_label
  _atom_site_symmetry_multiplicity
  _atom_site_fract_x
  _atom_site_fract_y
  _atom_site_fract_z
  _atom_site_occupancy
  Pt  Pt1       1.0  0.60200  0.26100  0.13700  1.0000
  Pt  Pt2       1.0  0.39800  0.73900  0.39800  1.0000
  Pt  Pt3       1.0  0.13700  0.26100  0.60200  1.0000
  Pt  Pt4       1.0  0.86300  0.73900  0.86300  1.0000
  Sb  Sb1       1.0  0.50000  0.00000  0.00000  1.0000
  Sb  Sb2       1.0  0.23100  0.53700  0.23100  1.0000
  Sb  Sb3       1.0  0.00000  0.00000  0.50000  1.0000
  Sb  Sb4       1.0  0.76900  0.46300  0.76900  1.0000
  Ti  Ti1       1.0  0.75000  0.50000  0.25000  1.0000
  Ti  Ti2       1.0  0.50000  0.00000  0.50000  1.0000
  Ti  Ti3       1.0  0.25000  0.50000  0.75000  1.0000
