data_image0
_chemical_formula_structural       As4Fe2
_chemical_formula_sum              "As4 Fe2"
_cell_length_a       5.30213
_cell_length_b       5.97778
_cell_length_c       2.87998
_cell_angle_alpha    90
_cell_angle_beta     90
_cell_angle_gamma    90

_space_group_name_H-M_alt    "P 1"
_space_group_IT_number       1

loop_
  _space_group_symop_operation_xyz
  'x, y, z'

loop_
  _atom_site_type_symbol
  _atom_site_label
  _atom_site_symmetry_multiplicity
  _atom_site_fract_x
  _atom_site_fract_y
  _atom_site_fract_z
  _atom_site_occupancy
  As  As1       1.0  0.17900  0.36100  0.00000  1.0000
  As  As2       1.0  0.82100  0.63900  0.00000  1.0000
  As  As3       1.0  0.67900  0.13900  0.50000  1.0000
  As  As4       1.0  0.32100  0.86100  0.50000  1.0000
  Fe  Fe1       1.0  0.00000  0.00000  0.00000  1.0000
  Fe  Fe2       1.0  0.50000  0.50000  0.50000  1.0000
