data_image0
_chemical_formula_structural       Nb4Pt5Sn5
_chemical_formula_sum              "Nb4 Pt5 Sn5"
_cell_length_a       6.27472
_cell_length_b       7.66794
_cell_length_c       7.66794
_cell_angle_alpha    80.363
_cell_angle_beta     65.8484
_cell_angle_gamma    65.8484

_space_group_name_H-M_alt    "P 1"
_space_group_IT_number       1

loop_
  _space_group_symop_operation_xyz
  'x, y, z'

loop_
  _atom_site_type_symbol
  _atom_site_label
  _atom_site_symmetry_multiplicity
  _atom_site_fract_x
  _atom_site_fract_y
  _atom_site_fract_z
  _atom_site_occupancy
  Nb  Nb1       1.0  0.59600  0.60000  0.20200  1.0000
  Nb  Nb2       1.0  0.20200  0.20200  0.40000  1.0000
  Nb  Nb3       1.0  0.80500  0.79800  0.60000  1.0000
  Nb  Nb4       1.0  0.39800  0.40000  0.79800  1.0000
  Pt  Pt1       1.0  0.51000  0.32300  0.10700  1.0000
  Pt  Pt2       1.0  0.16800  0.89300  0.32300  1.0000
  Pt  Pt3       1.0  0.75000  0.50000  0.50000  1.0000
  Pt  Pt4       1.0  0.38300  0.10700  0.67700  1.0000
  Pt  Pt5       1.0  0.94000  0.67700  0.89300  1.0000
  Sn  Sn1       1.0  0.50000  0.00000  0.00000  1.0000
  Sn  Sn2       1.0  0.07680  0.63300  0.19300  1.0000
  Sn  Sn3       1.0  0.73000  0.19300  0.36700  1.0000
  Sn  Sn4       1.0  0.29000  0.80700  0.63300  1.0000
  Sn  Sn5       1.0  0.90300  0.36700  0.80700  1.0000
