data_image0
_chemical_formula_structural       H12MgN6O6
_chemical_formula_sum              "H12 Mg1 N6 O6"
_cell_length_a       6.14925
_cell_length_b       6.31901
_cell_length_c       7.16192
_cell_angle_alpha    102.057
_cell_angle_beta     115.423
_cell_angle_gamma    60.8848

_space_group_name_H-M_alt    "P 1"
_space_group_IT_number       1

loop_
  _space_group_symop_operation_xyz
  'x, y, z'

loop_
  _atom_site_type_symbol
  _atom_site_label
  _atom_site_symmetry_multiplicity
  _atom_site_fract_x
  _atom_site_fract_y
  _atom_site_fract_z
  _atom_site_occupancy
  H   H1        1.0  0.32800  0.46800  0.12400  1.0000
  H   H2        1.0  0.79600  0.53200  0.12400  1.0000
  H   H3        1.0  0.25600  0.14300  0.27800  1.0000
  H   H4        1.0  0.02160  0.85700  0.27800  1.0000
  H   H5        1.0  0.39900  0.85700  0.27800  1.0000
  H   H6        1.0  0.87900  0.14300  0.27800  1.0000
  H   H7        1.0  0.12100  0.85700  0.72200  1.0000
  H   H8        1.0  0.60100  0.14300  0.72200  1.0000
  H   H9        1.0  0.97800  0.14300  0.72200  1.0000
  H   H10       1.0  0.74400  0.85700  0.72200  1.0000
  H   H11       1.0  0.20400  0.46800  0.87600  1.0000
  H   H12       1.0  0.67200  0.53200  0.87600  1.0000
  Mg  Mg1       1.0  0.50000  0.00000  0.00000  1.0000
  N   N1        1.0  0.36400  0.62300  0.35100  1.0000
  N   N2        1.0  0.98700  0.37700  0.35100  1.0000
  N   N3        1.0  0.50000  0.50000  0.50000  1.0000
  N   N4        1.0  0.00000  0.50000  0.50000  1.0000
  N   N5        1.0  0.01320  0.62300  0.64900  1.0000
  N   N6        1.0  0.63600  0.37700  0.64900  1.0000
  O   O1        1.0  0.31900  0.36200  0.00000  1.0000
  O   O2        1.0  0.68100  0.63800  0.00000  1.0000
  O   O3        1.0  0.39000  0.00000  0.23400  1.0000
  O   O4        1.0  0.84400  0.00000  0.23400  1.0000
  O   O5        1.0  0.15600  0.00000  0.76600  1.0000
  O   O6        1.0  0.61000  0.00000  0.76600  1.0000
