data_image0
_chemical_formula_structural       Be5Fe
_chemical_formula_sum              "Be5 Fe1"
_cell_length_a       4.10903
_cell_length_b       4.10903
_cell_length_c       4.10903
_cell_angle_alpha    120
_cell_angle_beta     90
_cell_angle_gamma    120

_space_group_name_H-M_alt    "P 1"
_space_group_IT_number       1

loop_
  _space_group_symop_operation_xyz
  'x, y, z'

loop_
  _atom_site_type_symbol
  _atom_site_label
  _atom_site_symmetry_multiplicity
  _atom_site_fract_x
  _atom_site_fract_y
  _atom_site_fract_z
  _atom_site_occupancy
  Be  Be1       1.0  0.37400  0.74800  0.12200  1.0000
  Be  Be2       1.0  0.75000  0.50000  0.25000  1.0000
  Be  Be3       1.0  0.37400  0.25200  0.62600  1.0000
  Be  Be4       1.0  0.37400  0.74800  0.62600  1.0000
  Be  Be5       1.0  0.87800  0.25200  0.62600  1.0000
  Fe  Fe1       1.0  0.00000  0.00000  0.00000  1.0000
