data_image0
_chemical_formula_structural       Ir2La4Mg2O12
_chemical_formula_sum              "Ir2 La4 Mg2 O12"
_cell_length_a       5.56104
_cell_length_b       5.61857
_cell_length_c       7.89199
_cell_angle_alpha    90
_cell_angle_beta     89.8493
_cell_angle_gamma    90

_space_group_name_H-M_alt    "P 1"
_space_group_IT_number       1

loop_
  _space_group_symop_operation_xyz
  'x, y, z'

loop_
  _atom_site_type_symbol
  _atom_site_label
  _atom_site_symmetry_multiplicity
  _atom_site_fract_x
  _atom_site_fract_y
  _atom_site_fract_z
  _atom_site_occupancy
  Ir  Ir1       1.0  0.50000  0.00000  0.00000  1.0000
  Ir  Ir2       1.0  0.00000  0.50000  0.50000  1.0000
  La  La1       1.0  0.99200  0.04290  0.24900  1.0000
  La  La2       1.0  0.50800  0.54300  0.25100  1.0000
  La  La3       1.0  0.49200  0.45700  0.74900  1.0000
  La  La4       1.0  0.00825  0.95700  0.75100  1.0000
  Mg  Mg1       1.0  0.00000  0.50000  0.00000  1.0000
  Mg  Mg2       1.0  0.50000  0.00000  0.50000  1.0000
  O   O1        1.0  0.70500  0.29000  0.04360  1.0000
  O   O2        1.0  0.79200  0.79300  0.04380  1.0000
  O   O3        1.0  0.41800  0.98200  0.25000  1.0000
  O   O4        1.0  0.08180  0.48200  0.25000  1.0000
  O   O5        1.0  0.70800  0.29300  0.45600  1.0000
  O   O6        1.0  0.79500  0.79000  0.45600  1.0000
  O   O7        1.0  0.20500  0.21000  0.54400  1.0000
  O   O8        1.0  0.29200  0.70700  0.54400  1.0000
  O   O9        1.0  0.91800  0.51800  0.75000  1.0000
  O   O10       1.0  0.58200  0.01840  0.75000  1.0000
  O   O11       1.0  0.20800  0.20700  0.95600  1.0000
  O   O12       1.0  0.29500  0.71000  0.95600  1.0000
