data_image0
_chemical_formula_structural       Ba4Ge4Pt4
_chemical_formula_sum              "Ba4 Ge4 Pt4"
_cell_length_a       6.84289
_cell_length_b       6.84289
_cell_length_c       6.84289
_cell_angle_alpha    90
_cell_angle_beta     90
_cell_angle_gamma    90

_space_group_name_H-M_alt    "P 1"
_space_group_IT_number       1

loop_
  _space_group_symop_operation_xyz
  'x, y, z'

loop_
  _atom_site_type_symbol
  _atom_site_label
  _atom_site_symmetry_multiplicity
  _atom_site_fract_x
  _atom_site_fract_y
  _atom_site_fract_z
  _atom_site_occupancy
  Ba  Ba1       1.0  0.13800  0.13800  0.13800  1.0000
  Ba  Ba2       1.0  0.86200  0.63800  0.36200  1.0000
  Ba  Ba3       1.0  0.36200  0.86200  0.63800  1.0000
  Ba  Ba4       1.0  0.63800  0.36200  0.86200  1.0000
  Ge  Ge1       1.0  0.34400  0.65600  0.15600  1.0000
  Ge  Ge2       1.0  0.65600  0.15600  0.34400  1.0000
  Ge  Ge3       1.0  0.15600  0.34400  0.65600  1.0000
  Ge  Ge4       1.0  0.84400  0.84400  0.84400  1.0000
  Pt  Pt1       1.0  0.59000  0.91000  0.08970  1.0000
  Pt  Pt2       1.0  0.41000  0.41000  0.41000  1.0000
  Pt  Pt3       1.0  0.91000  0.08970  0.59000  1.0000
  Pt  Pt4       1.0  0.08970  0.59000  0.91000  1.0000
