data_image0
_chemical_formula_structural       Dy16Mg4Rh4
_chemical_formula_sum              "Dy16 Mg4 Rh4"
_cell_length_a       9.68354
_cell_length_b       9.68354
_cell_length_c       9.68354
_cell_angle_alpha    120
_cell_angle_beta     90
_cell_angle_gamma    120

_space_group_name_H-M_alt    "P 1"
_space_group_IT_number       1

loop_
  _space_group_symop_operation_xyz
  'x, y, z'

loop_
  _atom_site_type_symbol
  _atom_site_label
  _atom_site_symmetry_multiplicity
  _atom_site_fract_x
  _atom_site_fract_y
  _atom_site_fract_z
  _atom_site_occupancy
  Dy  Dy1       1.0  0.81200  0.00000  0.18800  1.0000
  Dy  Dy2       1.0  0.18800  0.00000  0.18800  1.0000
  Dy  Dy3       1.0  0.18800  0.37500  0.18800  1.0000
  Dy  Dy4       1.0  0.65300  0.30700  0.34700  1.0000
  Dy  Dy5       1.0  0.04010  0.69300  0.34700  1.0000
  Dy  Dy6       1.0  0.65300  0.69300  0.34700  1.0000
  Dy  Dy7       1.0  0.06450  0.12900  0.56500  1.0000
  Dy  Dy8       1.0  0.06450  0.50000  0.56500  1.0000
  Dy  Dy9       1.0  0.43500  0.50000  0.56500  1.0000
  Dy  Dy10      1.0  0.81200  0.00000  0.81200  1.0000
  Dy  Dy11      1.0  0.81200  0.62500  0.81200  1.0000
  Dy  Dy12      1.0  0.18800  0.00000  0.81200  1.0000
  Dy  Dy13      1.0  0.06450  0.50000  0.93500  1.0000
  Dy  Dy14      1.0  0.43500  0.50000  0.93500  1.0000
  Dy  Dy15      1.0  0.43500  0.87100  0.93500  1.0000
  Dy  Dy16      1.0  0.65300  0.30700  0.96000  1.0000
  Mg  Mg1       1.0  0.42000  0.84100  0.26100  1.0000
  Mg  Mg2       1.0  0.42000  0.15900  0.58000  1.0000
  Mg  Mg3       1.0  0.73900  0.15900  0.58000  1.0000
  Mg  Mg4       1.0  0.42000  0.84100  0.58000  1.0000
  Rh  Rh1       1.0  0.85800  0.28300  0.14200  1.0000
  Rh  Rh2       1.0  0.85800  0.71700  0.14200  1.0000
  Rh  Rh3       1.0  0.42500  0.28300  0.14200  1.0000
  Rh  Rh4       1.0  0.85800  0.71700  0.57500  1.0000
