data_image0
_chemical_formula_structural       H4Mg2O16Se4
_chemical_formula_sum              "H4 Mg2 O16 Se4"
_cell_length_a       5.01085
_cell_length_b       8.59766
_cell_length_c       7.15442
_cell_angle_alpha    90
_cell_angle_beta     98.7036
_cell_angle_gamma    90

_space_group_name_H-M_alt    "P 1"
_space_group_IT_number       1

loop_
  _space_group_symop_operation_xyz
  'x, y, z'

loop_
  _atom_site_type_symbol
  _atom_site_label
  _atom_site_symmetry_multiplicity
  _atom_site_fract_x
  _atom_site_fract_y
  _atom_site_fract_z
  _atom_site_occupancy
  H   H1        1.0  0.70600  0.48700  0.13400  1.0000
  H   H2        1.0  0.79400  0.98700  0.36600  1.0000
  H   H3        1.0  0.20600  0.01260  0.63400  1.0000
  H   H4        1.0  0.29400  0.51300  0.86600  1.0000
  Mg  Mg1       1.0  0.00000  0.00000  0.00000  1.0000
  Mg  Mg2       1.0  0.50000  0.50000  0.50000  1.0000
  O   O1        1.0  0.68700  0.14500  0.03060  1.0000
  O   O2        1.0  0.77700  0.58700  0.08230  1.0000
  O   O3        1.0  0.23100  0.13400  0.20200  1.0000
  O   O4        1.0  0.90100  0.86900  0.22100  1.0000
  O   O5        1.0  0.59900  0.36900  0.27900  1.0000
  O   O6        1.0  0.26900  0.63400  0.29800  1.0000
  O   O7        1.0  0.72300  0.08740  0.41800  1.0000
  O   O8        1.0  0.81300  0.64500  0.46900  1.0000
  O   O9        1.0  0.18700  0.35500  0.53100  1.0000
  O   O10       1.0  0.27700  0.91300  0.58200  1.0000
  O   O11       1.0  0.73100  0.36600  0.70200  1.0000
  O   O12       1.0  0.40100  0.63100  0.72100  1.0000
  O   O13       1.0  0.09860  0.13100  0.77900  1.0000
  O   O14       1.0  0.76900  0.86600  0.79800  1.0000
  O   O15       1.0  0.22300  0.41300  0.91800  1.0000
  O   O16       1.0  0.31300  0.85500  0.96900  1.0000
  Se  Se1       1.0  0.55000  0.18300  0.22100  1.0000
  Se  Se2       1.0  0.95000  0.68300  0.27900  1.0000
  Se  Se3       1.0  0.04980  0.31700  0.72100  1.0000
  Se  Se4       1.0  0.45000  0.81700  0.77900  1.0000
