data_image0
_chemical_formula_structural       Ba4Pt4Si4
_chemical_formula_sum              "Ba4 Pt4 Si4"
_cell_length_a       6.71064
_cell_length_b       6.71064
_cell_length_c       6.71064
_cell_angle_alpha    90
_cell_angle_beta     90
_cell_angle_gamma    90

_space_group_name_H-M_alt    "P 1"
_space_group_IT_number       1

loop_
  _space_group_symop_operation_xyz
  'x, y, z'

loop_
  _atom_site_type_symbol
  _atom_site_label
  _atom_site_symmetry_multiplicity
  _atom_site_fract_x
  _atom_site_fract_y
  _atom_site_fract_z
  _atom_site_occupancy
  Ba  Ba1       1.0  0.13300  0.13300  0.13300  1.0000
  Ba  Ba2       1.0  0.86700  0.63300  0.36700  1.0000
  Ba  Ba3       1.0  0.36700  0.86700  0.63300  1.0000
  Ba  Ba4       1.0  0.63300  0.36700  0.86700  1.0000
  Pt  Pt1       1.0  0.59400  0.90600  0.09350  1.0000
  Pt  Pt2       1.0  0.40600  0.40600  0.40600  1.0000
  Pt  Pt3       1.0  0.90600  0.09350  0.59400  1.0000
  Pt  Pt4       1.0  0.09350  0.59400  0.90600  1.0000
  Si  Si1       1.0  0.34500  0.65500  0.15500  1.0000
  Si  Si2       1.0  0.65500  0.15500  0.34500  1.0000
  Si  Si3       1.0  0.15500  0.34500  0.65500  1.0000
  Si  Si4       1.0  0.84500  0.84500  0.84500  1.0000
