data_image0
_chemical_formula_structural       H4MgNa2O8S2
_chemical_formula_sum              "H4 Mg1 Na2 O8 S2"
_cell_length_a       7.35714
_cell_length_b       5.7773
_cell_length_c       5.13096
_cell_angle_alpha    106.586
_cell_angle_beta     109.22
_cell_angle_gamma    103.154

_space_group_name_H-M_alt    "P 1"
_space_group_IT_number       1

loop_
  _space_group_symop_operation_xyz
  'x, y, z'

loop_
  _atom_site_type_symbol
  _atom_site_label
  _atom_site_symmetry_multiplicity
  _atom_site_fract_x
  _atom_site_fract_y
  _atom_site_fract_z
  _atom_site_occupancy
  H   H1        1.0  0.20000  0.04060  0.14500  1.0000
  H   H2        1.0  0.09910  0.24000  0.27100  1.0000
  H   H3        1.0  0.90100  0.76000  0.72900  1.0000
  H   H4        1.0  0.80000  0.95900  0.85500  1.0000
  Mg  Mg1       1.0  0.50000  0.50000  0.50000  1.0000
  Na  Na1       1.0  0.68100  0.00417  0.34200  1.0000
  Na  Na2       1.0  0.31900  0.99600  0.65800  1.0000
  O   O1        1.0  0.86600  0.22400  0.14300  1.0000
  O   O2        1.0  0.56200  0.31400  0.15200  1.0000
  O   O3        1.0  0.35500  0.69900  0.27000  1.0000
  O   O4        1.0  0.22800  0.19500  0.32500  1.0000
  O   O5        1.0  0.77200  0.80500  0.67500  1.0000
  O   O6        1.0  0.64500  0.30100  0.73000  1.0000
  O   O7        1.0  0.43800  0.68600  0.84800  1.0000
  O   O8        1.0  0.13400  0.77600  0.85700  1.0000
  S   S1        1.0  0.74600  0.40500  0.07600  1.0000
  S   S2        1.0  0.25400  0.59500  0.92400  1.0000
