data_image0
_chemical_formula_structural       Cs3HO8PSi
_chemical_formula_sum              "Cs3 H1 O8 P1 Si1"
_cell_length_a       6.23403
_cell_length_b       6.23403
_cell_length_c       7.97789
_cell_angle_alpha    109.381
_cell_angle_beta     109.381
_cell_angle_gamma    60.5705

_space_group_name_H-M_alt    "P 1"
_space_group_IT_number       1

loop_
  _space_group_symop_operation_xyz
  'x, y, z'

loop_
  _atom_site_type_symbol
  _atom_site_label
  _atom_site_symmetry_multiplicity
  _atom_site_fract_x
  _atom_site_fract_y
  _atom_site_fract_z
  _atom_site_occupancy
  Cs  Cs1       1.0  0.79200  0.79200  0.39100  1.0000
  Cs  Cs2       1.0  0.20500  0.20500  0.60900  1.0000
  Cs  Cs3       1.0  0.00032  0.00032  0.99900  1.0000
  H   H1        1.0  0.52200  0.52200  0.00150  1.0000
  O   O1        1.0  0.38600  0.38600  0.03370  1.0000
  O   O2        1.0  0.28000  0.28000  0.26900  1.0000
  O   O3        1.0  0.69900  0.29300  0.32000  1.0000
  O   O4        1.0  0.29300  0.69900  0.32000  1.0000
  O   O5        1.0  0.71000  0.28200  0.67200  1.0000
  O   O6        1.0  0.28200  0.71000  0.67200  1.0000
  O   O7        1.0  0.72600  0.72600  0.73600  1.0000
  O   O8        1.0  0.60900  0.60900  0.97900  1.0000
  P   P1        1.0  0.41200  0.41200  0.24000  1.0000
  Si  Si1       1.0  0.58300  0.58300  0.75800  1.0000
