data_image0
_chemical_formula_structural       Ba4Ca4Sn4
_chemical_formula_sum              "Ba4 Ca4 Sn4"
_cell_length_a       8.86962
_cell_length_b       5.30577
_cell_length_c       9.74423
_cell_angle_alpha    90
_cell_angle_beta     90
_cell_angle_gamma    90

_space_group_name_H-M_alt    "P 1"
_space_group_IT_number       1

loop_
  _space_group_symop_operation_xyz
  'x, y, z'

loop_
  _atom_site_type_symbol
  _atom_site_label
  _atom_site_symmetry_multiplicity
  _atom_site_fract_x
  _atom_site_fract_y
  _atom_site_fract_z
  _atom_site_occupancy
  Ba  Ba1       1.0  0.97900  0.75000  0.18200  1.0000
  Ba  Ba2       1.0  0.47900  0.75000  0.31800  1.0000
  Ba  Ba3       1.0  0.52100  0.25000  0.68200  1.0000
  Ba  Ba4       1.0  0.02080  0.25000  0.81800  1.0000
  Ca  Ca1       1.0  0.64500  0.25000  0.07110  1.0000
  Ca  Ca2       1.0  0.14500  0.25000  0.42900  1.0000
  Ca  Ca3       1.0  0.85500  0.75000  0.57100  1.0000
  Ca  Ca4       1.0  0.35500  0.75000  0.92900  1.0000
  Sn  Sn1       1.0  0.27500  0.25000  0.10800  1.0000
  Sn  Sn2       1.0  0.77500  0.25000  0.39200  1.0000
  Sn  Sn3       1.0  0.22500  0.75000  0.60800  1.0000
  Sn  Sn4       1.0  0.72500  0.75000  0.89200  1.0000
