data_image0
_chemical_formula_structural       Ge2H2O8Tb2
_chemical_formula_sum              "Ge2 H2 O8 Tb2"
_cell_length_a       5.19645
_cell_length_b       6.52557
_cell_length_c       4.54402
_cell_angle_alpha    90
_cell_angle_beta     97.8792
_cell_angle_gamma    90

_space_group_name_H-M_alt    "P 1"
_space_group_IT_number       1

loop_
  _space_group_symop_operation_xyz
  'x, y, z'

loop_
  _atom_site_type_symbol
  _atom_site_label
  _atom_site_symmetry_multiplicity
  _atom_site_fract_x
  _atom_site_fract_y
  _atom_site_fract_z
  _atom_site_occupancy
  Ge  Ge1       1.0  0.31300  0.75000  0.43800  1.0000
  Ge  Ge2       1.0  0.68700  0.25000  0.56200  1.0000
  H   H1        1.0  0.00000  0.00000  0.50000  1.0000
  H   H2        1.0  0.00000  0.50000  0.50000  1.0000
  O   O1        1.0  0.66200  0.25000  0.17400  1.0000
  O   O2        1.0  0.09860  0.54800  0.28200  1.0000
  O   O3        1.0  0.09860  0.95200  0.28200  1.0000
  O   O4        1.0  0.63400  0.75000  0.37900  1.0000
  O   O5        1.0  0.36600  0.25000  0.62100  1.0000
  O   O6        1.0  0.90100  0.04830  0.71800  1.0000
  O   O7        1.0  0.90100  0.45200  0.71800  1.0000
  O   O8        1.0  0.33800  0.75000  0.82600  1.0000
  Tb  Tb1       1.0  0.20900  0.25000  0.05570  1.0000
  Tb  Tb2       1.0  0.79100  0.75000  0.94400  1.0000
