data_image0
_chemical_formula_structural       Ge2H2O8Y2
_chemical_formula_sum              "Ge2 H2 O8 Y2"
_cell_length_a       5.19787
_cell_length_b       6.50258
_cell_length_c       4.55205
_cell_angle_alpha    90
_cell_angle_beta     97.8571
_cell_angle_gamma    90

_space_group_name_H-M_alt    "P 1"
_space_group_IT_number       1

loop_
  _space_group_symop_operation_xyz
  'x, y, z'

loop_
  _atom_site_type_symbol
  _atom_site_label
  _atom_site_symmetry_multiplicity
  _atom_site_fract_x
  _atom_site_fract_y
  _atom_site_fract_z
  _atom_site_occupancy
  Ge  Ge1       1.0  0.31400  0.75000  0.43700  1.0000
  Ge  Ge2       1.0  0.68600  0.25000  0.56300  1.0000
  H   H1        1.0  0.00000  0.00000  0.50000  1.0000
  H   H2        1.0  0.00000  0.50000  0.50000  1.0000
  O   O1        1.0  0.65900  0.25000  0.17500  1.0000
  O   O2        1.0  0.09860  0.54800  0.28300  1.0000
  O   O3        1.0  0.09860  0.95200  0.28300  1.0000
  O   O4        1.0  0.63500  0.75000  0.37700  1.0000
  O   O5        1.0  0.36500  0.25000  0.62300  1.0000
  O   O6        1.0  0.90100  0.04790  0.71700  1.0000
  O   O7        1.0  0.90100  0.45200  0.71700  1.0000
  O   O8        1.0  0.34100  0.75000  0.82500  1.0000
  Y   Y1        1.0  0.20900  0.25000  0.05450  1.0000
  Y   Y2        1.0  0.79100  0.75000  0.94600  1.0000
