data_image0
_chemical_formula_structural       Ba6H2O16P2Si2
_chemical_formula_sum              "Ba6 H2 O16 P2 Si2"
_cell_length_a       5.75462
_cell_length_b       7.82915
_cell_length_c       9.8155
_cell_angle_alpha    102.362
_cell_angle_beta     89.9202
_cell_angle_gamma    111.597

_space_group_name_H-M_alt    "P 1"
_space_group_IT_number       1

loop_
  _space_group_symop_operation_xyz
  'x, y, z'

loop_
  _atom_site_type_symbol
  _atom_site_label
  _atom_site_symmetry_multiplicity
  _atom_site_fract_x
  _atom_site_fract_y
  _atom_site_fract_z
  _atom_site_occupancy
  Ba  Ba1       1.0  0.45800  0.38200  0.16000  1.0000
  Ba  Ba2       1.0  0.76400  0.00226  0.26100  1.0000
  Ba  Ba3       1.0  0.07880  0.62400  0.36000  1.0000
  Ba  Ba4       1.0  0.92100  0.37600  0.64000  1.0000
  Ba  Ba5       1.0  0.23600  0.99800  0.73900  1.0000
  Ba  Ba6       1.0  0.54200  0.61800  0.84000  1.0000
  H   H1        1.0  0.00000  0.00000  0.00000  1.0000
  H   H2        1.0  0.00000  0.00000  0.50000  1.0000
  O   O1        1.0  0.17600  0.98900  0.06220  1.0000
  O   O2        1.0  0.85700  0.68500  0.09890  1.0000
  O   O3        1.0  0.32500  0.73700  0.11300  1.0000
  O   O4        1.0  0.91000  0.31000  0.12200  1.0000
  O   O5        1.0  0.59300  0.68900  0.36900  1.0000
  O   O6        1.0  0.60800  0.27100  0.38100  1.0000
  O   O7        1.0  0.16300  0.31600  0.39400  1.0000
  O   O8        1.0  0.18400  1.00000  0.43600  1.0000
  O   O9        1.0  0.81600  0.00041  0.56400  1.0000
  O   O10       1.0  0.83700  0.68400  0.60600  1.0000
  O   O11       1.0  0.39200  0.72900  0.61900  1.0000
  O   O12       1.0  0.40700  0.31100  0.63100  1.0000
  O   O13       1.0  0.09010  0.69000  0.87800  1.0000
  O   O14       1.0  0.67500  0.26300  0.88700  1.0000
  O   O15       1.0  0.14300  0.31500  0.90100  1.0000
  O   O16       1.0  0.82400  0.01060  0.93800  1.0000
  P   P1        1.0  0.11200  0.76600  0.03850  1.0000
  P   P2        1.0  0.88800  0.23400  0.96100  1.0000
  Si  Si1       1.0  0.35100  0.23400  0.46100  1.0000
  Si  Si2       1.0  0.64900  0.76600  0.53900  1.0000
