data_image0
_chemical_formula_structural       Ni2P4
_chemical_formula_sum              "Ni2 P4"
_cell_length_a       4.24846
_cell_length_b       4.24846
_cell_length_c       5.62382
_cell_angle_alpha    111.699
_cell_angle_beta     68.3015
_cell_angle_gamma    97.3979

_space_group_name_H-M_alt    "P 1"
_space_group_IT_number       1

loop_
  _space_group_symop_operation_xyz
  'x, y, z'

loop_
  _atom_site_type_symbol
  _atom_site_label
  _atom_site_symmetry_multiplicity
  _atom_site_fract_x
  _atom_site_fract_y
  _atom_site_fract_z
  _atom_site_occupancy
  Ni  Ni1       1.0  0.00000  0.50000  0.00000  1.0000
  Ni  Ni2       1.0  0.50000  0.00000  0.50000  1.0000
  P   P1        1.0  0.31400  0.91500  0.16500  1.0000
  P   P2        1.0  0.91500  0.31400  0.33500  1.0000
  P   P3        1.0  0.08500  0.68600  0.66500  1.0000
  P   P4        1.0  0.68600  0.08500  0.83500  1.0000
