data_image0
_chemical_formula_structural       Co8Ge8Te8
_chemical_formula_sum              "Co8 Ge8 Te8"
_cell_length_a       6.19945
_cell_length_b       6.24631
_cell_length_c       11.169
_cell_angle_alpha    90
_cell_angle_beta     90
_cell_angle_gamma    90

_space_group_name_H-M_alt    "P 1"
_space_group_IT_number       1

loop_
  _space_group_symop_operation_xyz
  'x, y, z'

loop_
  _atom_site_type_symbol
  _atom_site_label
  _atom_site_symmetry_multiplicity
  _atom_site_fract_x
  _atom_site_fract_y
  _atom_site_fract_z
  _atom_site_occupancy
  Co  Co1       1.0  0.50100  0.10800  0.11100  1.0000
  Co  Co2       1.0  0.99900  0.60800  0.11100  1.0000
  Co  Co3       1.0  0.00132  0.10800  0.38900  1.0000
  Co  Co4       1.0  0.49900  0.60800  0.38900  1.0000
  Co  Co5       1.0  0.50100  0.39200  0.61100  1.0000
  Co  Co6       1.0  0.99900  0.89200  0.61100  1.0000
  Co  Co7       1.0  0.00132  0.39200  0.88900  1.0000
  Co  Co8       1.0  0.49900  0.89200  0.88900  1.0000
  Ge  Ge1       1.0  0.16700  0.27400  0.06820  1.0000
  Ge  Ge2       1.0  0.33300  0.77400  0.06820  1.0000
  Ge  Ge3       1.0  0.66700  0.27400  0.43200  1.0000
  Ge  Ge4       1.0  0.83300  0.77400  0.43200  1.0000
  Ge  Ge5       1.0  0.16700  0.22700  0.56800  1.0000
  Ge  Ge6       1.0  0.33300  0.72600  0.56800  1.0000
  Ge  Ge7       1.0  0.66700  0.22700  0.93200  1.0000
  Ge  Ge8       1.0  0.83300  0.72600  0.93200  1.0000
  Te  Te1       1.0  0.61900  0.48800  0.17600  1.0000
  Te  Te2       1.0  0.88100  0.98800  0.17600  1.0000
  Te  Te3       1.0  0.11900  0.48800  0.32400  1.0000
  Te  Te4       1.0  0.38100  0.98800  0.32400  1.0000
  Te  Te5       1.0  0.61900  0.01210  0.67600  1.0000
  Te  Te6       1.0  0.88100  0.51200  0.67600  1.0000
  Te  Te7       1.0  0.11900  0.01210  0.82400  1.0000
  Te  Te8       1.0  0.38100  0.51200  0.82400  1.0000
