data_image0
_chemical_formula_structural       F2Lu2S2
_chemical_formula_sum              "F2 Lu2 S2"
_cell_length_a       3.93316
_cell_length_b       3.93316
_cell_length_c       8.46413
_cell_angle_alpha    103.435
_cell_angle_beta     76.565
_cell_angle_gamma    120

_space_group_name_H-M_alt    "P 1"
_space_group_IT_number       1

loop_
  _space_group_symop_operation_xyz
  'x, y, z'

loop_
  _atom_site_type_symbol
  _atom_site_label
  _atom_site_symmetry_multiplicity
  _atom_site_fract_x
  _atom_site_fract_y
  _atom_site_fract_z
  _atom_site_occupancy
  F   F1        1.0  0.16700  0.83300  0.49800  1.0000
  F   F2        1.0  0.83300  0.16700  0.50200  1.0000
  Lu  Lu1       1.0  0.00000  0.00000  0.00000  1.0000
  Lu  Lu2       1.0  0.50000  0.50000  0.50000  1.0000
  S   S1        1.0  0.60900  0.39100  0.17300  1.0000
  S   S2        1.0  0.39100  0.60900  0.82700  1.0000
