data_image0
_chemical_formula_structural       Ge4Mg4Sr4
_chemical_formula_sum              "Ge4 Mg4 Sr4"
_cell_length_a       7.85223
_cell_length_b       4.6251
_cell_length_c       8.60331
_cell_angle_alpha    90
_cell_angle_beta     90
_cell_angle_gamma    90

_space_group_name_H-M_alt    "P 1"
_space_group_IT_number       1

loop_
  _space_group_symop_operation_xyz
  'x, y, z'

loop_
  _atom_site_type_symbol
  _atom_site_label
  _atom_site_symmetry_multiplicity
  _atom_site_fract_x
  _atom_site_fract_y
  _atom_site_fract_z
  _atom_site_occupancy
  Ge  Ge1       1.0  0.27900  0.25000  0.11000  1.0000
  Ge  Ge2       1.0  0.77900  0.25000  0.39000  1.0000
  Ge  Ge3       1.0  0.22100  0.75000  0.61000  1.0000
  Ge  Ge4       1.0  0.72100  0.75000  0.89000  1.0000
  Mg  Mg1       1.0  0.64200  0.25000  0.06320  1.0000
  Mg  Mg2       1.0  0.14200  0.25000  0.43700  1.0000
  Mg  Mg3       1.0  0.85800  0.75000  0.56300  1.0000
  Mg  Mg4       1.0  0.35800  0.75000  0.93700  1.0000
  Sr  Sr1       1.0  0.98500  0.75000  0.18400  1.0000
  Sr  Sr2       1.0  0.48500  0.75000  0.31600  1.0000
  Sr  Sr3       1.0  0.51500  0.25000  0.68400  1.0000
  Sr  Sr4       1.0  0.01480  0.25000  0.81600  1.0000
