data_image0
_chemical_formula_structural       Au2Eu2Ge2
_chemical_formula_sum              "Au2 Eu2 Ge2"
_cell_length_a       4.61227
_cell_length_b       5.83321
_cell_length_c       5.83321
_cell_angle_alpha    103.344
_cell_angle_beta     66.7125
_cell_angle_gamma    113.288

_space_group_name_H-M_alt    "P 1"
_space_group_IT_number       1

loop_
  _space_group_symop_operation_xyz
  'x, y, z'

loop_
  _atom_site_type_symbol
  _atom_site_label
  _atom_site_symmetry_multiplicity
  _atom_site_fract_x
  _atom_site_fract_y
  _atom_site_fract_z
  _atom_site_occupancy
  Au  Au1       1.0  0.99800  0.21700  0.22200  1.0000
  Au  Au2       1.0  0.99800  0.77800  0.78300  1.0000
  Eu  Eu1       1.0  0.29900  0.79900  0.20100  1.0000
  Eu  Eu2       1.0  0.36800  0.36800  0.63200  1.0000
  Ge  Ge1       1.0  0.66600  0.35300  0.02010  1.0000
  Ge  Ge2       1.0  0.66600  0.98000  0.64700  1.0000
