data_image0
_chemical_formula_structural       Ge4Lu2
_chemical_formula_sum              "Ge4 Lu2"
_cell_length_a       3.88071
_cell_length_b       4.00243
_cell_length_c       8.07758
_cell_angle_alpha    75.6556
_cell_angle_beta     90
_cell_angle_gamma    90

_space_group_name_H-M_alt    "P 1"
_space_group_IT_number       1

loop_
  _space_group_symop_operation_xyz
  'x, y, z'

loop_
  _atom_site_type_symbol
  _atom_site_label
  _atom_site_symmetry_multiplicity
  _atom_site_fract_x
  _atom_site_fract_y
  _atom_site_fract_z
  _atom_site_occupancy
  Ge  Ge1       1.0  0.75000  0.44600  0.10900  1.0000
  Ge  Ge2       1.0  0.25000  0.25100  0.49800  1.0000
  Ge  Ge3       1.0  0.75000  0.74900  0.50200  1.0000
  Ge  Ge4       1.0  0.25000  0.55400  0.89100  1.0000
  Lu  Lu1       1.0  0.25000  0.89700  0.20700  1.0000
  Lu  Lu2       1.0  0.75000  0.10300  0.79300  1.0000
