data_image0
_chemical_formula_structural       Ge4Rh4Ta4
_chemical_formula_sum              "Ge4 Rh4 Ta4"
_cell_length_a       6.45505
_cell_length_b       3.86412
_cell_length_c       7.48116
_cell_angle_alpha    90
_cell_angle_beta     90
_cell_angle_gamma    90

_space_group_name_H-M_alt    "P 1"
_space_group_IT_number       1

loop_
  _space_group_symop_operation_xyz
  'x, y, z'

loop_
  _atom_site_type_symbol
  _atom_site_label
  _atom_site_symmetry_multiplicity
  _atom_site_fract_x
  _atom_site_fract_y
  _atom_site_fract_z
  _atom_site_occupancy
  Ge  Ge1       1.0  0.24000  0.25000  0.12400  1.0000
  Ge  Ge2       1.0  0.74000  0.25000  0.37600  1.0000
  Ge  Ge3       1.0  0.26000  0.75000  0.62400  1.0000
  Ge  Ge4       1.0  0.76000  0.75000  0.87600  1.0000
  Rh  Rh1       1.0  0.85500  0.25000  0.06290  1.0000
  Rh  Rh2       1.0  0.35500  0.25000  0.43700  1.0000
  Rh  Rh3       1.0  0.64500  0.75000  0.56300  1.0000
  Rh  Rh4       1.0  0.14500  0.75000  0.93700  1.0000
  Ta  Ta1       1.0  0.52800  0.75000  0.17800  1.0000
  Ta  Ta2       1.0  0.02770  0.75000  0.32200  1.0000
  Ta  Ta3       1.0  0.97200  0.25000  0.67800  1.0000
  Ta  Ta4       1.0  0.47200  0.25000  0.82200  1.0000
