data_image0
_chemical_formula_structural       Dy2Ge2Sn2
_chemical_formula_sum              "Dy2 Ge2 Sn2"
_cell_length_a       4.08205
_cell_length_b       4.29387
_cell_length_c       8.44084
_cell_angle_alpha    75.2649
_cell_angle_beta     90
_cell_angle_gamma    90

_space_group_name_H-M_alt    "P 1"
_space_group_IT_number       1

loop_
  _space_group_symop_operation_xyz
  'x, y, z'

loop_
  _atom_site_type_symbol
  _atom_site_label
  _atom_site_symmetry_multiplicity
  _atom_site_fract_x
  _atom_site_fract_y
  _atom_site_fract_z
  _atom_site_occupancy
  Dy  Dy1       1.0  0.25000  0.90600  0.18800  1.0000
  Dy  Dy2       1.0  0.75000  0.09410  0.81200  1.0000
  Ge  Ge1       1.0  0.75000  0.44600  0.10700  1.0000
  Ge  Ge2       1.0  0.25000  0.55400  0.89300  1.0000
  Sn  Sn1       1.0  0.25000  0.25400  0.49300  1.0000
  Sn  Sn2       1.0  0.75000  0.74600  0.50700  1.0000
