data_image0
_chemical_formula_structural       Ca12Cu12Ge12
_chemical_formula_sum              "Ca12 Cu12 Ge12"
_cell_length_a       20.9663
_cell_length_b       4.34102
_cell_length_c       7.43019
_cell_angle_alpha    90
_cell_angle_beta     90
_cell_angle_gamma    90

_space_group_name_H-M_alt    "P 1"
_space_group_IT_number       1

loop_
  _space_group_symop_operation_xyz
  'x, y, z'

loop_
  _atom_site_type_symbol
  _atom_site_label
  _atom_site_symmetry_multiplicity
  _atom_site_fract_x
  _atom_site_fract_y
  _atom_site_fract_z
  _atom_site_occupancy
  Ca  Ca1       1.0  0.83300  0.25000  0.79700  1.0000
  Ca  Ca2       1.0  0.16700  0.75000  0.20300  1.0000
  Ca  Ca3       1.0  0.33300  0.25000  0.70300  1.0000
  Ca  Ca4       1.0  0.66700  0.75000  0.29700  1.0000
  Ca  Ca5       1.0  0.16600  0.25000  0.79200  1.0000
  Ca  Ca6       1.0  0.33400  0.75000  0.29200  1.0000
  Ca  Ca7       1.0  0.66600  0.25000  0.70800  1.0000
  Ca  Ca8       1.0  0.83400  0.75000  0.20800  1.0000
  Ca  Ca9       1.0  0.00139  0.25000  0.71100  1.0000
  Ca  Ca10      1.0  0.49900  0.75000  0.21100  1.0000
  Ca  Ca11      1.0  0.50100  0.25000  0.78900  1.0000
  Ca  Ca12      1.0  0.99900  0.75000  0.28900  1.0000
  Cu  Cu1       1.0  0.43800  0.25000  0.41800  1.0000
  Cu  Cu2       1.0  0.06170  0.75000  0.91800  1.0000
  Cu  Cu3       1.0  0.93800  0.25000  0.08230  1.0000
  Cu  Cu4       1.0  0.56200  0.75000  0.58200  1.0000
  Cu  Cu5       1.0  0.23500  0.25000  0.41000  1.0000
  Cu  Cu6       1.0  0.26500  0.75000  0.91000  1.0000
  Cu  Cu7       1.0  0.73500  0.25000  0.08980  1.0000
  Cu  Cu8       1.0  0.76500  0.75000  0.59000  1.0000
  Cu  Cu9       1.0  0.09760  0.25000  0.41300  1.0000
  Cu  Cu10      1.0  0.40200  0.75000  0.91300  1.0000
  Cu  Cu11      1.0  0.59800  0.25000  0.08720  1.0000
  Cu  Cu12      1.0  0.90200  0.75000  0.58700  1.0000
  Ge  Ge1       1.0  0.39900  0.25000  0.08490  1.0000
  Ge  Ge2       1.0  0.10100  0.75000  0.58500  1.0000
  Ge  Ge3       1.0  0.89900  0.25000  0.41500  1.0000
  Ge  Ge4       1.0  0.60100  0.75000  0.91500  1.0000
  Ge  Ge5       1.0  0.26900  0.25000  0.08150  1.0000
  Ge  Ge6       1.0  0.23100  0.75000  0.58200  1.0000
  Ge  Ge7       1.0  0.76900  0.25000  0.41800  1.0000
  Ge  Ge8       1.0  0.73100  0.75000  0.91800  1.0000
  Ge  Ge9       1.0  0.06800  0.25000  0.08930  1.0000
  Ge  Ge10      1.0  0.43200  0.75000  0.58900  1.0000
  Ge  Ge11      1.0  0.56800  0.25000  0.41100  1.0000
  Ge  Ge12      1.0  0.93200  0.75000  0.91100  1.0000
