data_image0
_chemical_formula_structural       Ge4Rh4Tm4
_chemical_formula_sum              "Ge4 Rh4 Tm4"
_cell_length_a       6.8476
_cell_length_b       4.2781
_cell_length_c       7.53913
_cell_angle_alpha    90
_cell_angle_beta     90
_cell_angle_gamma    90

_space_group_name_H-M_alt    "P 1"
_space_group_IT_number       1

loop_
  _space_group_symop_operation_xyz
  'x, y, z'

loop_
  _atom_site_type_symbol
  _atom_site_label
  _atom_site_symmetry_multiplicity
  _atom_site_fract_x
  _atom_site_fract_y
  _atom_site_fract_z
  _atom_site_occupancy
  Ge  Ge1       1.0  0.71400  0.75000  0.10700  1.0000
  Ge  Ge2       1.0  0.21400  0.75000  0.39300  1.0000
  Ge  Ge3       1.0  0.78600  0.25000  0.60700  1.0000
  Ge  Ge4       1.0  0.28600  0.25000  0.89300  1.0000
  Rh  Rh1       1.0  0.34300  0.75000  0.06680  1.0000
  Rh  Rh2       1.0  0.84300  0.75000  0.43300  1.0000
  Rh  Rh3       1.0  0.15700  0.25000  0.56700  1.0000
  Rh  Rh4       1.0  0.65700  0.25000  0.93300  1.0000
  Tm  Tm1       1.0  0.00419  0.25000  0.19500  1.0000
  Tm  Tm2       1.0  0.50400  0.25000  0.30500  1.0000
  Tm  Tm3       1.0  0.49600  0.75000  0.69500  1.0000
  Tm  Tm4       1.0  0.99600  0.75000  0.80500  1.0000
