data_image0
_chemical_formula_structural       Gd4Ge4Ru4
_chemical_formula_sum              "Gd4 Ge4 Ru4"
_cell_length_a       7.1075
_cell_length_b       4.46588
_cell_length_c       7.24367
_cell_angle_alpha    90
_cell_angle_beta     90
_cell_angle_gamma    90

_space_group_name_H-M_alt    "P 1"
_space_group_IT_number       1

loop_
  _space_group_symop_operation_xyz
  'x, y, z'

loop_
  _atom_site_type_symbol
  _atom_site_label
  _atom_site_symmetry_multiplicity
  _atom_site_fract_x
  _atom_site_fract_y
  _atom_site_fract_z
  _atom_site_occupancy
  Gd  Gd1       1.0  0.98300  0.25000  0.19100  1.0000
  Gd  Gd2       1.0  0.48300  0.25000  0.30900  1.0000
  Gd  Gd3       1.0  0.51700  0.75000  0.69100  1.0000
  Gd  Gd4       1.0  0.01660  0.75000  0.80900  1.0000
  Ge  Ge1       1.0  0.70100  0.75000  0.10600  1.0000
  Ge  Ge2       1.0  0.20100  0.75000  0.39400  1.0000
  Ge  Ge3       1.0  0.79900  0.25000  0.60600  1.0000
  Ge  Ge4       1.0  0.29900  0.25000  0.89400  1.0000
  Ru  Ru1       1.0  0.34600  0.75000  0.06520  1.0000
  Ru  Ru2       1.0  0.84600  0.75000  0.43500  1.0000
  Ru  Ru3       1.0  0.15400  0.25000  0.56500  1.0000
  Ru  Ru4       1.0  0.65400  0.25000  0.93500  1.0000
