data_image0
_chemical_formula_structural       Ge4Mn4Y4
_chemical_formula_sum              "Ge4 Mn4 Y4"
_cell_length_a       7.04315
_cell_length_b       4.1071
_cell_length_c       8.17018
_cell_angle_alpha    90
_cell_angle_beta     90
_cell_angle_gamma    90

_space_group_name_H-M_alt    "P 1"
_space_group_IT_number       1

loop_
  _space_group_symop_operation_xyz
  'x, y, z'

loop_
  _atom_site_type_symbol
  _atom_site_label
  _atom_site_symmetry_multiplicity
  _atom_site_fract_x
  _atom_site_fract_y
  _atom_site_fract_z
  _atom_site_occupancy
  Ge  Ge1       1.0  0.77100  0.25000  0.13100  1.0000
  Ge  Ge2       1.0  0.27100  0.25000  0.36900  1.0000
  Ge  Ge3       1.0  0.72900  0.75000  0.63100  1.0000
  Ge  Ge4       1.0  0.22900  0.75000  0.86900  1.0000
  Mn  Mn1       1.0  0.15100  0.25000  0.05300  1.0000
  Mn  Mn2       1.0  0.65100  0.25000  0.44700  1.0000
  Mn  Mn3       1.0  0.34900  0.75000  0.55300  1.0000
  Mn  Mn4       1.0  0.84900  0.75000  0.94700  1.0000
  Y   Y1        1.0  0.47600  0.75000  0.18300  1.0000
  Y   Y2        1.0  0.97600  0.75000  0.31700  1.0000
  Y   Y3        1.0  0.02400  0.25000  0.68300  1.0000
  Y   Y4        1.0  0.52400  0.25000  0.81700  1.0000
