data_image0
_chemical_formula_structural       Ge4Ir4Lu4
_chemical_formula_sum              "Ge4 Ir4 Lu4"
_cell_length_a       6.72639
_cell_length_b       4.2455
_cell_length_c       7.60144
_cell_angle_alpha    90
_cell_angle_beta     90
_cell_angle_gamma    90

_space_group_name_H-M_alt    "P 1"
_space_group_IT_number       1

loop_
  _space_group_symop_operation_xyz
  'x, y, z'

loop_
  _atom_site_type_symbol
  _atom_site_label
  _atom_site_symmetry_multiplicity
  _atom_site_fract_x
  _atom_site_fract_y
  _atom_site_fract_z
  _atom_site_occupancy
  Ge  Ge1       1.0  0.21200  0.25000  0.11500  1.0000
  Ge  Ge2       1.0  0.71200  0.25000  0.38500  1.0000
  Ge  Ge3       1.0  0.28800  0.75000  0.61500  1.0000
  Ge  Ge4       1.0  0.78800  0.75000  0.88500  1.0000
  Ir  Ir1       1.0  0.83800  0.25000  0.06230  1.0000
  Ir  Ir2       1.0  0.33800  0.25000  0.43800  1.0000
  Ir  Ir3       1.0  0.66200  0.75000  0.56200  1.0000
  Ir  Ir4       1.0  0.16200  0.75000  0.93800  1.0000
  Lu  Lu1       1.0  0.51000  0.75000  0.19000  1.0000
  Lu  Lu2       1.0  0.00983  0.75000  0.31000  1.0000
  Lu  Lu3       1.0  0.99000  0.25000  0.69000  1.0000
  Lu  Lu4       1.0  0.49000  0.25000  0.81000  1.0000
