data_image0
_chemical_formula_structural       Ge4Ni4Ta4
_chemical_formula_sum              "Ge4 Ni4 Ta4"
_cell_length_a       6.30504
_cell_length_b       3.78131
_cell_length_c       7.21467
_cell_angle_alpha    90
_cell_angle_beta     90
_cell_angle_gamma    90

_space_group_name_H-M_alt    "P 1"
_space_group_IT_number       1

loop_
  _space_group_symop_operation_xyz
  'x, y, z'

loop_
  _atom_site_type_symbol
  _atom_site_label
  _atom_site_symmetry_multiplicity
  _atom_site_fract_x
  _atom_site_fract_y
  _atom_site_fract_z
  _atom_site_occupancy
  Ge  Ge1       1.0  0.28200  0.25000  0.11600  1.0000
  Ge  Ge2       1.0  0.78200  0.25000  0.38400  1.0000
  Ge  Ge3       1.0  0.21800  0.75000  0.61600  1.0000
  Ge  Ge4       1.0  0.71800  0.75000  0.88400  1.0000
  Ni  Ni1       1.0  0.66100  0.25000  0.07090  1.0000
  Ni  Ni2       1.0  0.16100  0.25000  0.42900  1.0000
  Ni  Ni3       1.0  0.83900  0.75000  0.57100  1.0000
  Ni  Ni4       1.0  0.33900  0.75000  0.92900  1.0000
  Ta  Ta1       1.0  0.98300  0.75000  0.17600  1.0000
  Ta  Ta2       1.0  0.48300  0.75000  0.32400  1.0000
  Ta  Ta3       1.0  0.51700  0.25000  0.67600  1.0000
  Ta  Ta4       1.0  0.01710  0.25000  0.82400  1.0000
