data_image0
_chemical_formula_structural       Ge4Ru4Tb4
_chemical_formula_sum              "Ge4 Ru4 Tb4"
_cell_length_a       7.0683
_cell_length_b       4.44394
_cell_length_c       7.24765
_cell_angle_alpha    90
_cell_angle_beta     90
_cell_angle_gamma    90

_space_group_name_H-M_alt    "P 1"
_space_group_IT_number       1

loop_
  _space_group_symop_operation_xyz
  'x, y, z'

loop_
  _atom_site_type_symbol
  _atom_site_label
  _atom_site_symmetry_multiplicity
  _atom_site_fract_x
  _atom_site_fract_y
  _atom_site_fract_z
  _atom_site_occupancy
  Ge  Ge1       1.0  0.70100  0.75000  0.10700  1.0000
  Ge  Ge2       1.0  0.20100  0.75000  0.39300  1.0000
  Ge  Ge3       1.0  0.79900  0.25000  0.60700  1.0000
  Ge  Ge4       1.0  0.29900  0.25000  0.89300  1.0000
  Ru  Ru1       1.0  0.34500  0.75000  0.06470  1.0000
  Ru  Ru2       1.0  0.84500  0.75000  0.43500  1.0000
  Ru  Ru3       1.0  0.15500  0.25000  0.56500  1.0000
  Ru  Ru4       1.0  0.65500  0.25000  0.93500  1.0000
  Tb  Tb1       1.0  0.98600  0.25000  0.19100  1.0000
  Tb  Tb2       1.0  0.48600  0.25000  0.30900  1.0000
  Tb  Tb3       1.0  0.51400  0.75000  0.69100  1.0000
  Tb  Tb4       1.0  0.01380  0.75000  0.80900  1.0000
