data_image0
_chemical_formula_structural       Au4Ge4U4
_chemical_formula_sum              "Au4 Ge4 U4"
_cell_length_a       4.4418
_cell_length_b       4.44168
_cell_length_c       15.1146
_cell_angle_alpha    90
_cell_angle_beta     90
_cell_angle_gamma    120.001

_space_group_name_H-M_alt    "P 1"
_space_group_IT_number       1

loop_
  _space_group_symop_operation_xyz
  'x, y, z'

loop_
  _atom_site_type_symbol
  _atom_site_label
  _atom_site_symmetry_multiplicity
  _atom_site_fract_x
  _atom_site_fract_y
  _atom_site_fract_z
  _atom_site_occupancy
  Au  Au1       1.0  0.33300  0.66700  0.14400  1.0000
  Au  Au2       1.0  0.33300  0.66700  0.35600  1.0000
  Au  Au3       1.0  0.66700  0.33300  0.64400  1.0000
  Au  Au4       1.0  0.66700  0.33300  0.85600  1.0000
  Ge  Ge1       1.0  0.66700  0.33300  0.11000  1.0000
  Ge  Ge2       1.0  0.66700  0.33300  0.39000  1.0000
  Ge  Ge3       1.0  0.33300  0.66700  0.61000  1.0000
  Ge  Ge4       1.0  0.33300  0.66700  0.89000  1.0000
  U   U1        1.0  0.00000  0.00000  0.00000  1.0000
  U   U2        1.0  0.00000  0.00000  0.25000  1.0000
  U   U3        1.0  0.00000  0.00000  0.50000  1.0000
  U   U4        1.0  0.00001  0.00002  0.75000  1.0000
