data_image0
_chemical_formula_structural       Er4Ge4Ru4
_chemical_formula_sum              "Er4 Ge4 Ru4"
_cell_length_a       6.99084
_cell_length_b       4.39818
_cell_length_c       7.23547
_cell_angle_alpha    90
_cell_angle_beta     90
_cell_angle_gamma    90

_space_group_name_H-M_alt    "P 1"
_space_group_IT_number       1

loop_
  _space_group_symop_operation_xyz
  'x, y, z'

loop_
  _atom_site_type_symbol
  _atom_site_label
  _atom_site_symmetry_multiplicity
  _atom_site_fract_x
  _atom_site_fract_y
  _atom_site_fract_z
  _atom_site_occupancy
  Er  Er1       1.0  0.98800  0.25000  0.19300  1.0000
  Er  Er2       1.0  0.48800  0.25000  0.30700  1.0000
  Er  Er3       1.0  0.51200  0.75000  0.69300  1.0000
  Er  Er4       1.0  0.01160  0.75000  0.80700  1.0000
  Ge  Ge1       1.0  0.70600  0.75000  0.10500  1.0000
  Ge  Ge2       1.0  0.20600  0.75000  0.39500  1.0000
  Ge  Ge3       1.0  0.79400  0.25000  0.60500  1.0000
  Ge  Ge4       1.0  0.29400  0.25000  0.89500  1.0000
  Ru  Ru1       1.0  0.34600  0.75000  0.06430  1.0000
  Ru  Ru2       1.0  0.84600  0.75000  0.43600  1.0000
  Ru  Ru3       1.0  0.15400  0.25000  0.56400  1.0000
  Ru  Ru4       1.0  0.65400  0.25000  0.93600  1.0000
