data_image0
_chemical_formula_structural       Ge4Ni4Tm4
_chemical_formula_sum              "Ge4 Ni4 Tm4"
_cell_length_a       6.81775
_cell_length_b       4.20066
_cell_length_c       7.24324
_cell_angle_alpha    90
_cell_angle_beta     90
_cell_angle_gamma    90

_space_group_name_H-M_alt    "P 1"
_space_group_IT_number       1

loop_
  _space_group_symop_operation_xyz
  'x, y, z'

loop_
  _atom_site_type_symbol
  _atom_site_label
  _atom_site_symmetry_multiplicity
  _atom_site_fract_x
  _atom_site_fract_y
  _atom_site_fract_z
  _atom_site_occupancy
  Ge  Ge1       1.0  0.30200  0.75000  0.08900  1.0000
  Ge  Ge2       1.0  0.80200  0.75000  0.41100  1.0000
  Ge  Ge3       1.0  0.19800  0.25000  0.58900  1.0000
  Ge  Ge4       1.0  0.69800  0.25000  0.91100  1.0000
  Ni  Ni1       1.0  0.69500  0.75000  0.08160  1.0000
  Ni  Ni2       1.0  0.19500  0.75000  0.41800  1.0000
  Ni  Ni3       1.0  0.80500  0.25000  0.58200  1.0000
  Ni  Ni4       1.0  0.30500  0.25000  0.91800  1.0000
  Tm  Tm1       1.0  0.00774  0.25000  0.20600  1.0000
  Tm  Tm2       1.0  0.50800  0.25000  0.29400  1.0000
  Tm  Tm3       1.0  0.49200  0.75000  0.70600  1.0000
  Tm  Tm4       1.0  0.99200  0.75000  0.79400  1.0000
