data_image0
_chemical_formula_structural       Ge2H2O8Sc2
_chemical_formula_sum              "Ge2 H2 O8 Sc2"
_cell_length_a       5.05815
_cell_length_b       6.16895
_cell_length_c       4.61554
_cell_angle_alpha    90
_cell_angle_beta     97.7841
_cell_angle_gamma    90

_space_group_name_H-M_alt    "P 1"
_space_group_IT_number       1

loop_
  _space_group_symop_operation_xyz
  'x, y, z'

loop_
  _atom_site_type_symbol
  _atom_site_label
  _atom_site_symmetry_multiplicity
  _atom_site_fract_x
  _atom_site_fract_y
  _atom_site_fract_z
  _atom_site_occupancy
  Ge  Ge1       1.0  0.33100  0.75000  0.41900  1.0000
  Ge  Ge2       1.0  0.66900  0.25000  0.58100  1.0000
  H   H1        1.0  0.00000  0.00000  0.50000  1.0000
  H   H2        1.0  0.00000  0.50000  0.50000  1.0000
  O   O1        1.0  0.61200  0.25000  0.20000  1.0000
  O   O2        1.0  0.10400  0.53600  0.27800  1.0000
  O   O3        1.0  0.10400  0.96400  0.27800  1.0000
  O   O4        1.0  0.64600  0.75000  0.32500  1.0000
  O   O5        1.0  0.35400  0.25000  0.67500  1.0000
  O   O6        1.0  0.89600  0.03560  0.72200  1.0000
  O   O7        1.0  0.89600  0.46400  0.72200  1.0000
  O   O8        1.0  0.38800  0.75000  0.80000  1.0000
  Sc  Sc1       1.0  0.20500  0.25000  0.04560  1.0000
  Sc  Sc2       1.0  0.79500  0.75000  0.95400  1.0000
