data_image0
_chemical_formula_structural       Er4Ge4Ir4
_chemical_formula_sum              "Er4 Ge4 Ir4"
_cell_length_a       6.85665
_cell_length_b       4.36183
_cell_length_c       7.51156
_cell_angle_alpha    90
_cell_angle_beta     90
_cell_angle_gamma    90

_space_group_name_H-M_alt    "P 1"
_space_group_IT_number       1

loop_
  _space_group_symop_operation_xyz
  'x, y, z'

loop_
  _atom_site_type_symbol
  _atom_site_label
  _atom_site_symmetry_multiplicity
  _atom_site_fract_x
  _atom_site_fract_y
  _atom_site_fract_z
  _atom_site_occupancy
  Er  Er1       1.0  0.51400  0.75000  0.19800  1.0000
  Er  Er2       1.0  0.01370  0.75000  0.30200  1.0000
  Er  Er3       1.0  0.98600  0.25000  0.69800  1.0000
  Er  Er4       1.0  0.48600  0.25000  0.80200  1.0000
  Ge  Ge1       1.0  0.82300  0.25000  0.08010  1.0000
  Ge  Ge2       1.0  0.32300  0.25000  0.42000  1.0000
  Ge  Ge3       1.0  0.67700  0.75000  0.58000  1.0000
  Ge  Ge4       1.0  0.17700  0.75000  0.92000  1.0000
  Ir  Ir1       1.0  0.21100  0.25000  0.09560  1.0000
  Ir  Ir2       1.0  0.71100  0.25000  0.40400  1.0000
  Ir  Ir3       1.0  0.28900  0.75000  0.59600  1.0000
  Ir  Ir4       1.0  0.78900  0.75000  0.90400  1.0000
