data_image0
_chemical_formula_structural       Ge4Mn4Zr4
_chemical_formula_sum              "Ge4 Mn4 Zr4"
_cell_length_a       6.86823
_cell_length_b       3.87822
_cell_length_c       7.95846
_cell_angle_alpha    89.9546
_cell_angle_beta     89.9596
_cell_angle_gamma    89.9514

_space_group_name_H-M_alt    "P 1"
_space_group_IT_number       1

loop_
  _space_group_symop_operation_xyz
  'x, y, z'

loop_
  _atom_site_type_symbol
  _atom_site_label
  _atom_site_symmetry_multiplicity
  _atom_site_fract_x
  _atom_site_fract_y
  _atom_site_fract_z
  _atom_site_occupancy
  Ge  Ge1       1.0  0.74000  0.75000  0.12800  1.0000
  Ge  Ge2       1.0  0.24000  0.75000  0.37200  1.0000
  Ge  Ge3       1.0  0.76000  0.25000  0.62800  1.0000
  Ge  Ge4       1.0  0.26000  0.25000  0.87200  1.0000
  Mn  Mn1       1.0  0.36700  0.75000  0.06020  1.0000
  Mn  Mn2       1.0  0.86700  0.75000  0.44000  1.0000
  Mn  Mn3       1.0  0.13300  0.25000  0.56000  1.0000
  Mn  Mn4       1.0  0.63300  0.25000  0.94000  1.0000
  Zr  Zr1       1.0  0.03530  0.25000  0.17500  1.0000
  Zr  Zr2       1.0  0.53600  0.25000  0.32600  1.0000
  Zr  Zr3       1.0  0.46400  0.75000  0.67500  1.0000
  Zr  Zr4       1.0  0.96500  0.75000  0.82600  1.0000
