data_image0
_chemical_formula_structural       Au2N4
_chemical_formula_sum              "Au2 N4"
_cell_length_a       6.0528
_cell_length_b       4.96807
_cell_length_c       2.88553
_cell_angle_alpha    90
_cell_angle_beta     90
_cell_angle_gamma    90

_space_group_name_H-M_alt    "P 1"
_space_group_IT_number       1

loop_
  _space_group_symop_operation_xyz
  'x, y, z'

loop_
  _atom_site_type_symbol
  _atom_site_label
  _atom_site_symmetry_multiplicity
  _atom_site_fract_x
  _atom_site_fract_y
  _atom_site_fract_z
  _atom_site_occupancy
  Au  Au1       1.0  0.00000  0.00000  0.00000  1.0000
  Au  Au2       1.0  0.50000  0.50000  0.50000  1.0000
  N   N1        1.0  0.06830  0.41600  0.00000  1.0000
  N   N2        1.0  0.93200  0.58400  0.00000  1.0000
  N   N3        1.0  0.56800  0.08390  0.50000  1.0000
  N   N4        1.0  0.43200  0.91600  0.50000  1.0000
