data_image0
_chemical_formula_structural       Ge4Hf4Pt4
_chemical_formula_sum              "Ge4 Hf4 Pt4"
_cell_length_a       6.64961
_cell_length_b       3.99035
_cell_length_c       7.71435
_cell_angle_alpha    90
_cell_angle_beta     90
_cell_angle_gamma    90

_space_group_name_H-M_alt    "P 1"
_space_group_IT_number       1

loop_
  _space_group_symop_operation_xyz
  'x, y, z'

loop_
  _atom_site_type_symbol
  _atom_site_label
  _atom_site_symmetry_multiplicity
  _atom_site_fract_x
  _atom_site_fract_y
  _atom_site_fract_z
  _atom_site_occupancy
  Ge  Ge1       1.0  0.75100  0.75000  0.12100  1.0000
  Ge  Ge2       1.0  0.25100  0.75000  0.37900  1.0000
  Ge  Ge3       1.0  0.74900  0.25000  0.62100  1.0000
  Ge  Ge4       1.0  0.24900  0.25000  0.87900  1.0000
  Hf  Hf1       1.0  0.02950  0.25000  0.18400  1.0000
  Hf  Hf2       1.0  0.52900  0.25000  0.31600  1.0000
  Hf  Hf3       1.0  0.47100  0.75000  0.68400  1.0000
  Hf  Hf4       1.0  0.97100  0.75000  0.81600  1.0000
  Pt  Pt1       1.0  0.35600  0.75000  0.06390  1.0000
  Pt  Pt2       1.0  0.85600  0.75000  0.43600  1.0000
  Pt  Pt3       1.0  0.14400  0.25000  0.56400  1.0000
  Pt  Pt4       1.0  0.64400  0.25000  0.93600  1.0000
