data_image0
_chemical_formula_structural       Ca4Ge4Mg4
_chemical_formula_sum              "Ca4 Ge4 Mg4"
_cell_length_a       7.52408
_cell_length_b       4.45518
_cell_length_c       8.38928
_cell_angle_alpha    90
_cell_angle_beta     90
_cell_angle_gamma    90

_space_group_name_H-M_alt    "P 1"
_space_group_IT_number       1

loop_
  _space_group_symop_operation_xyz
  'x, y, z'

loop_
  _atom_site_type_symbol
  _atom_site_label
  _atom_site_symmetry_multiplicity
  _atom_site_fract_x
  _atom_site_fract_y
  _atom_site_fract_z
  _atom_site_occupancy
  Ca  Ca1       1.0  0.98100  0.75000  0.18000  1.0000
  Ca  Ca2       1.0  0.48100  0.75000  0.32000  1.0000
  Ca  Ca3       1.0  0.51900  0.25000  0.68000  1.0000
  Ca  Ca4       1.0  0.01940  0.25000  0.82000  1.0000
  Ge  Ge1       1.0  0.26900  0.25000  0.11700  1.0000
  Ge  Ge2       1.0  0.76900  0.25000  0.38300  1.0000
  Ge  Ge3       1.0  0.23100  0.75000  0.61700  1.0000
  Ge  Ge4       1.0  0.73100  0.75000  0.88300  1.0000
  Mg  Mg1       1.0  0.64300  0.25000  0.06140  1.0000
  Mg  Mg2       1.0  0.14300  0.25000  0.43900  1.0000
  Mg  Mg3       1.0  0.85700  0.75000  0.56100  1.0000
  Mg  Mg4       1.0  0.35700  0.75000  0.93900  1.0000
