data_image0
_chemical_formula_structural       Ge4Ir4Nb4
_chemical_formula_sum              "Ge4 Ir4 Nb4"
_cell_length_a       6.51157
_cell_length_b       3.92145
_cell_length_c       7.46979
_cell_angle_alpha    90
_cell_angle_beta     90
_cell_angle_gamma    90

_space_group_name_H-M_alt    "P 1"
_space_group_IT_number       1

loop_
  _space_group_symop_operation_xyz
  'x, y, z'

loop_
  _atom_site_type_symbol
  _atom_site_label
  _atom_site_symmetry_multiplicity
  _atom_site_fract_x
  _atom_site_fract_y
  _atom_site_fract_z
  _atom_site_occupancy
  Ge  Ge1       1.0  0.24000  0.25000  0.12400  1.0000
  Ge  Ge2       1.0  0.74000  0.25000  0.37600  1.0000
  Ge  Ge3       1.0  0.26000  0.75000  0.62400  1.0000
  Ge  Ge4       1.0  0.76000  0.75000  0.87600  1.0000
  Ir  Ir1       1.0  0.85600  0.25000  0.06130  1.0000
  Ir  Ir2       1.0  0.35600  0.25000  0.43900  1.0000
  Ir  Ir3       1.0  0.64400  0.75000  0.56100  1.0000
  Ir  Ir4       1.0  0.14400  0.75000  0.93900  1.0000
  Nb  Nb1       1.0  0.52600  0.75000  0.17800  1.0000
  Nb  Nb2       1.0  0.02600  0.75000  0.32200  1.0000
  Nb  Nb3       1.0  0.97400  0.25000  0.67800  1.0000
  Nb  Nb4       1.0  0.47400  0.25000  0.82200  1.0000
