data_image0
_chemical_formula_structural       Gd4Ge4Rh4
_chemical_formula_sum              "Gd4 Ge4 Rh4"
_cell_length_a       7.01755
_cell_length_b       4.34337
_cell_length_c       7.56668
_cell_angle_alpha    90
_cell_angle_beta     90
_cell_angle_gamma    90

_space_group_name_H-M_alt    "P 1"
_space_group_IT_number       1

loop_
  _space_group_symop_operation_xyz
  'x, y, z'

loop_
  _atom_site_type_symbol
  _atom_site_label
  _atom_site_symmetry_multiplicity
  _atom_site_fract_x
  _atom_site_fract_y
  _atom_site_fract_z
  _atom_site_occupancy
  Gd  Gd1       1.0  0.99900  0.25000  0.19500  1.0000
  Gd  Gd2       1.0  0.49900  0.25000  0.30500  1.0000
  Gd  Gd3       1.0  0.50100  0.75000  0.69500  1.0000
  Gd  Gd4       1.0  0.00096  0.75000  0.80500  1.0000
  Ge  Ge1       1.0  0.70800  0.75000  0.10200  1.0000
  Ge  Ge2       1.0  0.20800  0.75000  0.39800  1.0000
  Ge  Ge3       1.0  0.79200  0.25000  0.60200  1.0000
  Ge  Ge4       1.0  0.29200  0.25000  0.89800  1.0000
  Rh  Rh1       1.0  0.34300  0.75000  0.07160  1.0000
  Rh  Rh2       1.0  0.84300  0.75000  0.42800  1.0000
  Rh  Rh3       1.0  0.15700  0.25000  0.57200  1.0000
  Rh  Rh4       1.0  0.65700  0.25000  0.92800  1.0000
