data_image0
_chemical_formula_structural       Ge4Ho4Ru4
_chemical_formula_sum              "Ge4 Ho4 Ru4"
_cell_length_a       7.01929
_cell_length_b       4.40883
_cell_length_c       7.26695
_cell_angle_alpha    90
_cell_angle_beta     90
_cell_angle_gamma    90

_space_group_name_H-M_alt    "P 1"
_space_group_IT_number       1

loop_
  _space_group_symop_operation_xyz
  'x, y, z'

loop_
  _atom_site_type_symbol
  _atom_site_label
  _atom_site_symmetry_multiplicity
  _atom_site_fract_x
  _atom_site_fract_y
  _atom_site_fract_z
  _atom_site_occupancy
  Ge  Ge1       1.0  0.20300  0.25000  0.10700  1.0000
  Ge  Ge2       1.0  0.70300  0.25000  0.39300  1.0000
  Ge  Ge3       1.0  0.29700  0.75000  0.60700  1.0000
  Ge  Ge4       1.0  0.79700  0.75000  0.89300  1.0000
  Ho  Ho1       1.0  0.48900  0.75000  0.19200  1.0000
  Ho  Ho2       1.0  0.98900  0.75000  0.30800  1.0000
  Ho  Ho3       1.0  0.01120  0.25000  0.69200  1.0000
  Ho  Ho4       1.0  0.51100  0.25000  0.80800  1.0000
  Ru  Ru1       1.0  0.84400  0.25000  0.06320  1.0000
  Ru  Ru2       1.0  0.34400  0.25000  0.43700  1.0000
  Ru  Ru3       1.0  0.65600  0.75000  0.56300  1.0000
  Ru  Ru4       1.0  0.15600  0.75000  0.93700  1.0000
