data_image0
_chemical_formula_structural       Dy4Ge4Ru4
_chemical_formula_sum              "Dy4 Ge4 Ru4"
_cell_length_a       7.04304
_cell_length_b       4.42688
_cell_length_c       7.23631
_cell_angle_alpha    90
_cell_angle_beta     90
_cell_angle_gamma    90

_space_group_name_H-M_alt    "P 1"
_space_group_IT_number       1

loop_
  _space_group_symop_operation_xyz
  'x, y, z'

loop_
  _atom_site_type_symbol
  _atom_site_label
  _atom_site_symmetry_multiplicity
  _atom_site_fract_x
  _atom_site_fract_y
  _atom_site_fract_z
  _atom_site_occupancy
  Dy  Dy1       1.0  0.98500  0.25000  0.19100  1.0000
  Dy  Dy2       1.0  0.48500  0.25000  0.30900  1.0000
  Dy  Dy3       1.0  0.51500  0.75000  0.69100  1.0000
  Dy  Dy4       1.0  0.01490  0.75000  0.80900  1.0000
  Ge  Ge1       1.0  0.70200  0.75000  0.10700  1.0000
  Ge  Ge2       1.0  0.20200  0.75000  0.39300  1.0000
  Ge  Ge3       1.0  0.79800  0.25000  0.60700  1.0000
  Ge  Ge4       1.0  0.29800  0.25000  0.89300  1.0000
  Ru  Ru1       1.0  0.34500  0.75000  0.06360  1.0000
  Ru  Ru2       1.0  0.84500  0.75000  0.43600  1.0000
  Ru  Ru3       1.0  0.15500  0.25000  0.56400  1.0000
  Ru  Ru4       1.0  0.65500  0.25000  0.93600  1.0000
