data_image0
_chemical_formula_structural       Ir2P2Pr2
_chemical_formula_sum              "Ir2 P2 Pr2"
_cell_length_a       4.13975
_cell_length_b       4.13975
_cell_length_c       7.70432
_cell_angle_alpha    105.585
_cell_angle_beta     105.585
_cell_angle_gamma    90

_space_group_name_H-M_alt    "P 1"
_space_group_IT_number       1

loop_
  _space_group_symop_operation_xyz
  'x, y, z'

loop_
  _atom_site_type_symbol
  _atom_site_label
  _atom_site_symmetry_multiplicity
  _atom_site_fract_x
  _atom_site_fract_y
  _atom_site_fract_z
  _atom_site_occupancy
  Ir  Ir1       1.0  0.66200  0.16200  0.32500  1.0000
  Ir  Ir2       1.0  0.41200  0.41200  0.82500  1.0000
  P   P1        1.0  0.58000  0.58000  0.16000  1.0000
  P   P2        1.0  0.83000  0.33000  0.66000  1.0000
  Pr  Pr1       1.0  0.00062  0.00062  0.00124  1.0000
  Pr  Pr2       1.0  0.25100  0.75100  0.50100  1.0000
