data_image0
_chemical_formula_structural       Ge8Rh8Te8
_chemical_formula_sum              "Ge8 Rh8 Te8"
_cell_length_a       6.43358
_cell_length_b       6.46696
_cell_length_c       11.6517
_cell_angle_alpha    90
_cell_angle_beta     90
_cell_angle_gamma    90

_space_group_name_H-M_alt    "P 1"
_space_group_IT_number       1

loop_
  _space_group_symop_operation_xyz
  'x, y, z'

loop_
  _atom_site_type_symbol
  _atom_site_label
  _atom_site_symmetry_multiplicity
  _atom_site_fract_x
  _atom_site_fract_y
  _atom_site_fract_z
  _atom_site_occupancy
  Ge  Ge1       1.0  0.15700  0.26700  0.06990  1.0000
  Ge  Ge2       1.0  0.34300  0.76700  0.06990  1.0000
  Ge  Ge3       1.0  0.65700  0.26700  0.43000  1.0000
  Ge  Ge4       1.0  0.84300  0.76700  0.43000  1.0000
  Ge  Ge5       1.0  0.15700  0.23300  0.57000  1.0000
  Ge  Ge6       1.0  0.34300  0.73300  0.57000  1.0000
  Ge  Ge7       1.0  0.65700  0.23300  0.93000  1.0000
  Ge  Ge8       1.0  0.84300  0.73300  0.93000  1.0000
  Rh  Rh1       1.0  0.49800  0.11100  0.11100  1.0000
  Rh  Rh2       1.0  0.00237  0.61100  0.11100  1.0000
  Rh  Rh3       1.0  0.99800  0.11100  0.38900  1.0000
  Rh  Rh4       1.0  0.50200  0.61100  0.38900  1.0000
  Rh  Rh5       1.0  0.49800  0.38900  0.61100  1.0000
  Rh  Rh6       1.0  0.00237  0.88900  0.61100  1.0000
  Rh  Rh7       1.0  0.99800  0.38900  0.88900  1.0000
  Rh  Rh8       1.0  0.50200  0.88900  0.88900  1.0000
  Te  Te1       1.0  0.61700  0.49600  0.17400  1.0000
  Te  Te2       1.0  0.88300  0.99600  0.17400  1.0000
  Te  Te3       1.0  0.11700  0.49600  0.32600  1.0000
  Te  Te4       1.0  0.38300  0.99600  0.32600  1.0000
  Te  Te5       1.0  0.61700  0.00384  0.67400  1.0000
  Te  Te6       1.0  0.88300  0.50400  0.67400  1.0000
  Te  Te7       1.0  0.11700  0.00384  0.82600  1.0000
  Te  Te8       1.0  0.38300  0.50400  0.82600  1.0000
