data_image0
_chemical_formula_structural       Eu4Ge4Ni4
_chemical_formula_sum              "Eu4 Ge4 Ni4"
_cell_length_a       6.82293
_cell_length_b       7.56238
_cell_length_c       6.11405
_cell_angle_alpha    90
_cell_angle_beta     90
_cell_angle_gamma    130.758

_space_group_name_H-M_alt    "P 1"
_space_group_IT_number       1

loop_
  _space_group_symop_operation_xyz
  'x, y, z'

loop_
  _atom_site_type_symbol
  _atom_site_label
  _atom_site_symmetry_multiplicity
  _atom_site_fract_x
  _atom_site_fract_y
  _atom_site_fract_z
  _atom_site_occupancy
  Eu  Eu1       1.0  0.20900  0.80800  0.14300  1.0000
  Eu  Eu2       1.0  0.20900  0.30800  0.35700  1.0000
  Eu  Eu3       1.0  0.79100  0.69200  0.64300  1.0000
  Eu  Eu4       1.0  0.79100  0.19200  0.85700  1.0000
  Ge  Ge1       1.0  0.74100  0.81200  0.13800  1.0000
  Ge  Ge2       1.0  0.74100  0.31200  0.36200  1.0000
  Ge  Ge3       1.0  0.25900  0.68800  0.63800  1.0000
  Ge  Ge4       1.0  0.25900  0.18800  0.86200  1.0000
  Ni  Ni1       1.0  0.61700  0.44100  0.09770  1.0000
  Ni  Ni2       1.0  0.61700  0.94100  0.40200  1.0000
  Ni  Ni3       1.0  0.38300  0.05860  0.59800  1.0000
  Ni  Ni4       1.0  0.38300  0.55900  0.90200  1.0000
