data_image0
_chemical_formula_structural       CdCeNi4
_chemical_formula_sum              "Cd1 Ce1 Ni4"
_cell_length_a       5.05851
_cell_length_b       5.05851
_cell_length_c       5.05851
_cell_angle_alpha    120
_cell_angle_beta     90
_cell_angle_gamma    120

_space_group_name_H-M_alt    "P 1"
_space_group_IT_number       1

loop_
  _space_group_symop_operation_xyz
  'x, y, z'

loop_
  _atom_site_type_symbol
  _atom_site_label
  _atom_site_symmetry_multiplicity
  _atom_site_fract_x
  _atom_site_fract_y
  _atom_site_fract_z
  _atom_site_occupancy
  Cd  Cd1       1.0  0.00000  0.00000  0.00000  1.0000
  Ce  Ce1       1.0  0.75000  0.50000  0.25000  1.0000
  Ni  Ni1       1.0  0.37400  0.74800  0.12200  1.0000
  Ni  Ni2       1.0  0.37400  0.25200  0.62600  1.0000
  Ni  Ni3       1.0  0.87800  0.25200  0.62600  1.0000
  Ni  Ni4       1.0  0.37400  0.74800  0.62600  1.0000
