data_image0
_chemical_formula_structural       Ge6Ho6Pd6
_chemical_formula_sum              "Ge6 Ho6 Pd6"
_cell_length_a       4.39561
_cell_length_b       7.61851
_cell_length_c       11.3581
_cell_angle_alpha    109.596
_cell_angle_beta     101.157
_cell_angle_gamma    90

_space_group_name_H-M_alt    "P 1"
_space_group_IT_number       1

loop_
  _space_group_symop_operation_xyz
  'x, y, z'

loop_
  _atom_site_type_symbol
  _atom_site_label
  _atom_site_symmetry_multiplicity
  _atom_site_fract_x
  _atom_site_fract_y
  _atom_site_fract_z
  _atom_site_occupancy
  Ge  Ge1       1.0  0.06510  0.21900  0.13000  1.0000
  Ge  Ge2       1.0  0.59400  0.74900  0.18700  1.0000
  Ge  Ge3       1.0  0.23600  0.07290  0.47100  1.0000
  Ge  Ge4       1.0  0.76400  0.60200  0.52900  1.0000
  Ge  Ge5       1.0  0.40600  0.56100  0.81300  1.0000
  Ge  Ge6       1.0  0.93500  0.08860  0.87000  1.0000
  Ho  Ho1       1.0  0.00000  0.53500  0.00000  1.0000
  Ho  Ho2       1.0  0.50000  0.95100  0.00000  1.0000
  Ho  Ho3       1.0  0.66700  0.20200  0.33300  1.0000
  Ho  Ho4       1.0  0.16700  0.62500  0.33400  1.0000
  Ho  Ho5       1.0  0.83300  0.29100  0.66600  1.0000
  Ho  Ho6       1.0  0.33300  0.86800  0.66700  1.0000
  Pd  Pd1       1.0  0.57200  0.39500  0.14400  1.0000
  Pd  Pd2       1.0  0.10400  0.93200  0.20800  1.0000
  Pd  Pd3       1.0  0.73300  0.89900  0.46600  1.0000
  Pd  Pd4       1.0  0.26700  0.43300  0.53400  1.0000
  Pd  Pd5       1.0  0.89600  0.72300  0.79200  1.0000
  Pd  Pd6       1.0  0.42800  0.25100  0.85600  1.0000
