data_image0
_chemical_formula_structural       Mg2Ni3P
_chemical_formula_sum              "Mg2 Ni3 P1"
_cell_length_a       4.61447
_cell_length_b       4.61447
_cell_length_c       4.61447
_cell_angle_alpha    114.954
_cell_angle_beta     65.0456
_cell_angle_gamma    114.954

_space_group_name_H-M_alt    "P 1"
_space_group_IT_number       1

loop_
  _space_group_symop_operation_xyz
  'x, y, z'

loop_
  _atom_site_type_symbol
  _atom_site_label
  _atom_site_symmetry_multiplicity
  _atom_site_fract_x
  _atom_site_fract_y
  _atom_site_fract_z
  _atom_site_occupancy
  Mg  Mg1       1.0  0.37500  0.62500  0.37500  1.0000
  Mg  Mg2       1.0  0.62500  0.37500  0.62500  1.0000
  Ni  Ni1       1.0  0.50000  1.00000  1.00000  1.0000
  Ni  Ni2       1.0  1.00000  0.50000  0.00000  1.0000
  Ni  Ni3       1.0  1.00000  1.00000  0.50000  1.0000
  P   P1        1.0  0.00000  0.00000  0.00000  1.0000
