data_image0
_chemical_formula_structural       Eu2Pd2Tl4
_chemical_formula_sum              "Eu2 Pd2 Tl4"
_cell_length_a       4.48988
_cell_length_b       5.78817
_cell_length_c       8.27952
_cell_angle_alpha    90
_cell_angle_beta     90
_cell_angle_gamma    67.1792

_space_group_name_H-M_alt    "P 1"
_space_group_IT_number       1

loop_
  _space_group_symop_operation_xyz
  'x, y, z'

loop_
  _atom_site_type_symbol
  _atom_site_label
  _atom_site_symmetry_multiplicity
  _atom_site_fract_x
  _atom_site_fract_y
  _atom_site_fract_z
  _atom_site_occupancy
  Eu  Eu1       1.0  0.56700  0.86600  0.25000  1.0000
  Eu  Eu2       1.0  0.43300  0.13500  0.75000  1.0000
  Pd  Pd1       1.0  0.28200  0.43600  0.25000  1.0000
  Pd  Pd2       1.0  0.71800  0.56400  0.75000  1.0000
  Tl  Tl1       1.0  0.85600  0.28700  0.05040  1.0000
  Tl  Tl2       1.0  0.85600  0.28700  0.45000  1.0000
  Tl  Tl3       1.0  0.14400  0.71300  0.55000  1.0000
  Tl  Tl4       1.0  0.14400  0.71300  0.95000  1.0000
