data_image0
_chemical_formula_structural       Ru2Te4
_chemical_formula_sum              "Ru2 Te4"
_cell_length_a       5.33768
_cell_length_b       6.45239
_cell_length_c       4.05751
_cell_angle_alpha    90
_cell_angle_beta     90
_cell_angle_gamma    90

_space_group_name_H-M_alt    "P 1"
_space_group_IT_number       1

loop_
  _space_group_symop_operation_xyz
  'x, y, z'

loop_
  _atom_site_type_symbol
  _atom_site_label
  _atom_site_symmetry_multiplicity
  _atom_site_fract_x
  _atom_site_fract_y
  _atom_site_fract_z
  _atom_site_occupancy
  Ru  Ru1       1.0  0.00000  0.00000  0.00000  1.0000
  Ru  Ru2       1.0  0.50000  0.50000  0.50000  1.0000
  Te  Te1       1.0  0.22100  0.36600  0.00000  1.0000
  Te  Te2       1.0  0.77900  0.63400  0.00000  1.0000
  Te  Te3       1.0  0.72100  0.13400  0.50000  1.0000
  Te  Te4       1.0  0.27900  0.86600  0.50000  1.0000
