data_image0
_chemical_formula_structural       As16O56Sr16
_chemical_formula_sum              "As16 O56 Sr16"
_cell_length_a       7.08322
_cell_length_b       7.08322
_cell_length_c       25.541
_cell_angle_alpha    90
_cell_angle_beta     90
_cell_angle_gamma    90

_space_group_name_H-M_alt    "P 1"
_space_group_IT_number       1

loop_
  _space_group_symop_operation_xyz
  'x, y, z'

loop_
  _atom_site_type_symbol
  _atom_site_label
  _atom_site_symmetry_multiplicity
  _atom_site_fract_x
  _atom_site_fract_y
  _atom_site_fract_z
  _atom_site_occupancy
  As  As1       1.0  0.85200  0.74700  0.01340  1.0000
  As  As2       1.0  0.26100  0.35500  0.02090  1.0000
  As  As3       1.0  0.59800  0.69000  0.11500  1.0000
  As  As4       1.0  0.00330  0.27900  0.12300  1.0000
  As  As5       1.0  0.25300  0.85200  0.26300  1.0000
  As  As6       1.0  0.64500  0.26100  0.27100  1.0000
  As  As7       1.0  0.31000  0.59800  0.36500  1.0000
  As  As8       1.0  0.72100  0.00330  0.37300  1.0000
  As  As9       1.0  0.14800  0.25300  0.51300  1.0000
  As  As10      1.0  0.73900  0.64500  0.52100  1.0000
  As  As11      1.0  0.40200  0.31000  0.61500  1.0000
  As  As12      1.0  0.99700  0.72100  0.62300  1.0000
  As  As13      1.0  0.74700  0.14800  0.76300  1.0000
  As  As14      1.0  0.35500  0.73900  0.77100  1.0000
  As  As15      1.0  0.69000  0.40200  0.86500  1.0000
  As  As16      1.0  0.27900  0.99700  0.87300  1.0000
  O   O1        1.0  0.44000  0.21800  0.04370  1.0000
  O   O2        1.0  0.04010  0.83200  0.04600  1.0000
  O   O3        1.0  0.71800  0.59900  0.05750  1.0000
  O   O4        1.0  0.12400  0.43100  0.07640  1.0000
  O   O5        1.0  0.81700  0.18500  0.09210  1.0000
  O   O6        1.0  0.43600  0.85000  0.09330  1.0000
  O   O7        1.0  0.48300  0.50800  0.14300  1.0000
  O   O8        1.0  0.15800  0.12300  0.15100  1.0000
  O   O9        1.0  0.76100  0.80900  0.15100  1.0000
  O   O10       1.0  0.95100  0.45200  0.16700  1.0000
  O   O11       1.0  0.41100  0.89000  0.21500  1.0000
  O   O12       1.0  0.77900  0.11600  0.23300  1.0000
  O   O13       1.0  0.08080  0.70800  0.23900  1.0000
  O   O14       1.0  0.44800  0.33200  0.24000  1.0000
  O   O15       1.0  0.78200  0.44000  0.29400  1.0000
  O   O16       1.0  0.16800  0.04010  0.29600  1.0000
  O   O17       1.0  0.40100  0.71800  0.30800  1.0000
  O   O18       1.0  0.56900  0.12400  0.32600  1.0000
  O   O19       1.0  0.81500  0.81700  0.34200  1.0000
  O   O20       1.0  0.15000  0.43600  0.34300  1.0000
  O   O21       1.0  0.49200  0.48300  0.39300  1.0000
  O   O22       1.0  0.87700  0.15800  0.40100  1.0000
  O   O23       1.0  0.19100  0.76100  0.40100  1.0000
  O   O24       1.0  0.54800  0.95100  0.41700  1.0000
  O   O25       1.0  0.11000  0.41100  0.46500  1.0000
  O   O26       1.0  0.88400  0.77900  0.48300  1.0000
  O   O27       1.0  0.29200  0.08080  0.48900  1.0000
  O   O28       1.0  0.66800  0.44800  0.49000  1.0000
  O   O29       1.0  0.56000  0.78200  0.54400  1.0000
  O   O30       1.0  0.96000  0.16800  0.54600  1.0000
  O   O31       1.0  0.28200  0.40100  0.55800  1.0000
  O   O32       1.0  0.87600  0.56900  0.57600  1.0000
  O   O33       1.0  0.18300  0.81500  0.59200  1.0000
  O   O34       1.0  0.56400  0.15000  0.59300  1.0000
  O   O35       1.0  0.51700  0.49200  0.64300  1.0000
  O   O36       1.0  0.84200  0.87700  0.65100  1.0000
  O   O37       1.0  0.23900  0.19100  0.65100  1.0000
  O   O38       1.0  0.04860  0.54800  0.66700  1.0000
  O   O39       1.0  0.58900  0.11000  0.71500  1.0000
  O   O40       1.0  0.22100  0.88400  0.73300  1.0000
  O   O41       1.0  0.91900  0.29200  0.73900  1.0000
  O   O42       1.0  0.55200  0.66800  0.74000  1.0000
  O   O43       1.0  0.21800  0.56000  0.79400  1.0000
  O   O44       1.0  0.83200  0.96000  0.79600  1.0000
  O   O45       1.0  0.59900  0.28200  0.80800  1.0000
  O   O46       1.0  0.43100  0.87600  0.82600  1.0000
  O   O47       1.0  0.18500  0.18300  0.84200  1.0000
  O   O48       1.0  0.85000  0.56400  0.84300  1.0000
  O   O49       1.0  0.50800  0.51700  0.89300  1.0000
  O   O50       1.0  0.12300  0.84200  0.90100  1.0000
  O   O51       1.0  0.80900  0.23900  0.90100  1.0000
  O   O52       1.0  0.45200  0.04860  0.91700  1.0000
  O   O53       1.0  0.89000  0.58900  0.96500  1.0000
  O   O54       1.0  0.11600  0.22100  0.98300  1.0000
  O   O55       1.0  0.70800  0.91900  0.98900  1.0000
  O   O56       1.0  0.33200  0.55200  0.99000  1.0000
  Sr  Sr1       1.0  0.34000  0.89900  0.00000  1.0000
  Sr  Sr2       1.0  0.12300  0.75700  0.13900  1.0000
  Sr  Sr3       1.0  0.52200  0.15500  0.14700  1.0000
  Sr  Sr4       1.0  0.72700  0.75800  0.24900  1.0000
  Sr  Sr5       1.0  0.10100  0.34000  0.25000  1.0000
  Sr  Sr6       1.0  0.24300  0.12300  0.38900  1.0000
  Sr  Sr7       1.0  0.84500  0.52200  0.39700  1.0000
  Sr  Sr8       1.0  0.24200  0.72700  0.49900  1.0000
  Sr  Sr9       1.0  0.66000  0.10100  0.50000  1.0000
  Sr  Sr10      1.0  0.87700  0.24300  0.63900  1.0000
  Sr  Sr11      1.0  0.47800  0.84500  0.64700  1.0000
  Sr  Sr12      1.0  0.27300  0.24200  0.74900  1.0000
  Sr  Sr13      1.0  0.89900  0.66000  0.75000  1.0000
  Sr  Sr14      1.0  0.75700  0.87700  0.88900  1.0000
  Sr  Sr15      1.0  0.15500  0.47800  0.89700  1.0000
  Sr  Sr16      1.0  0.75800  0.27300  0.99900  1.0000
