data_image0
_chemical_formula_structural       Ba12Bi24S48
_chemical_formula_sum              "Ba12 Bi24 S48"
_cell_length_a       25.7193
_cell_length_b       25.7193
_cell_length_c       4.16106
_cell_angle_alpha    90
_cell_angle_beta     90
_cell_angle_gamma    120

_space_group_name_H-M_alt    "P 1"
_space_group_IT_number       1

loop_
  _space_group_symop_operation_xyz
  'x, y, z'

loop_
  _atom_site_type_symbol
  _atom_site_label
  _atom_site_symmetry_multiplicity
  _atom_site_fract_x
  _atom_site_fract_y
  _atom_site_fract_z
  _atom_site_occupancy
  Ba  Ba1       1.0  0.22900  0.35000  0.25000  1.0000
  Ba  Ba2       1.0  0.32100  0.55400  0.25000  1.0000
  Ba  Ba3       1.0  0.23300  0.67900  0.25000  1.0000
  Ba  Ba4       1.0  0.44600  0.76700  0.25000  1.0000
  Ba  Ba5       1.0  0.12100  0.77100  0.25000  1.0000
  Ba  Ba6       1.0  0.65000  0.87900  0.25000  1.0000
  Ba  Ba7       1.0  0.35000  0.12100  0.75000  1.0000
  Ba  Ba8       1.0  0.87900  0.22900  0.75000  1.0000
  Ba  Ba9       1.0  0.55400  0.23300  0.75000  1.0000
  Ba  Ba10      1.0  0.76700  0.32100  0.75000  1.0000
  Ba  Ba11      1.0  0.67900  0.44600  0.75000  1.0000
  Ba  Ba12      1.0  0.77100  0.65000  0.75000  1.0000
  Bi  Bi1       1.0  0.84600  0.02240  0.25000  1.0000
  Bi  Bi2       1.0  0.45900  0.04870  0.25000  1.0000
  Bi  Bi3       1.0  0.64700  0.14400  0.25000  1.0000
  Bi  Bi4       1.0  0.17600  0.15400  0.25000  1.0000
  Bi  Bi5       1.0  0.05810  0.33100  0.25000  1.0000
  Bi  Bi6       1.0  0.49700  0.35300  0.25000  1.0000
  Bi  Bi7       1.0  0.95100  0.41000  0.25000  1.0000
  Bi  Bi8       1.0  0.85600  0.50300  0.25000  1.0000
  Bi  Bi9       1.0  0.59000  0.54100  0.25000  1.0000
  Bi  Bi10      1.0  0.66900  0.72700  0.25000  1.0000
  Bi  Bi11      1.0  0.97800  0.82400  0.25000  1.0000
  Bi  Bi12      1.0  0.27300  0.94200  0.25000  1.0000
  Bi  Bi13      1.0  0.72700  0.05810  0.75000  1.0000
  Bi  Bi14      1.0  0.02240  0.17600  0.75000  1.0000
  Bi  Bi15      1.0  0.33100  0.27300  0.75000  1.0000
  Bi  Bi16      1.0  0.41000  0.45900  0.75000  1.0000
  Bi  Bi17      1.0  0.14400  0.49700  0.75000  1.0000
  Bi  Bi18      1.0  0.04870  0.59000  0.75000  1.0000
  Bi  Bi19      1.0  0.50300  0.64700  0.75000  1.0000
  Bi  Bi20      1.0  0.94200  0.66900  0.75000  1.0000
  Bi  Bi21      1.0  0.82400  0.84600  0.75000  1.0000
  Bi  Bi22      1.0  0.35300  0.85600  0.75000  1.0000
  Bi  Bi23      1.0  0.54100  0.95100  0.75000  1.0000
  Bi  Bi24      1.0  0.15400  0.97800  0.75000  1.0000
  S   S1        1.0  0.63300  0.00275  0.25000  1.0000
  S   S2        1.0  0.25100  0.03210  0.25000  1.0000
  S   S3        1.0  0.80800  0.11400  0.25000  1.0000
  S   S4        1.0  0.06370  0.13900  0.25000  1.0000
  S   S5        1.0  0.45300  0.14700  0.25000  1.0000
  S   S6        1.0  0.30600  0.19200  0.25000  1.0000
  S   S7        1.0  0.96800  0.21900  0.25000  1.0000
  S   S8        1.0  0.65600  0.24700  0.25000  1.0000
  S   S9        1.0  0.85300  0.30700  0.25000  1.0000
  S   S10       1.0  0.59200  0.34400  0.25000  1.0000
  S   S11       1.0  0.37000  0.36700  0.25000  1.0000
  S   S12       1.0  0.75300  0.40800  0.25000  1.0000
  S   S13       1.0  0.17500  0.44900  0.25000  1.0000
  S   S14       1.0  0.08810  0.54300  0.25000  1.0000
  S   S15       1.0  0.45700  0.54500  0.25000  1.0000
  S   S16       1.0  0.69300  0.54700  0.25000  1.0000
  S   S17       1.0  0.99700  0.63000  0.25000  1.0000
  S   S18       1.0  0.88600  0.69400  0.25000  1.0000
  S   S19       1.0  0.55100  0.72600  0.25000  1.0000
  S   S20       1.0  0.78100  0.74900  0.25000  1.0000
  S   S21       1.0  0.27400  0.82500  0.25000  1.0000
  S   S22       1.0  0.45500  0.91200  0.25000  1.0000
  S   S23       1.0  0.86100  0.92400  0.25000  1.0000
  S   S24       1.0  0.07570  0.93600  0.25000  1.0000
  S   S25       1.0  0.92400  0.06370  0.75000  1.0000
  S   S26       1.0  0.13900  0.07570  0.75000  1.0000
  S   S27       1.0  0.54500  0.08810  0.75000  1.0000
  S   S28       1.0  0.72600  0.17500  0.75000  1.0000
  S   S29       1.0  0.21900  0.25100  0.75000  1.0000
  S   S30       1.0  0.44900  0.27400  0.75000  1.0000
  S   S31       1.0  0.11400  0.30600  0.75000  1.0000
  S   S32       1.0  0.00275  0.37000  0.75000  1.0000
  S   S33       1.0  0.30700  0.45300  0.75000  1.0000
  S   S34       1.0  0.54300  0.45500  0.75000  1.0000
  S   S35       1.0  0.91200  0.45700  0.75000  1.0000
  S   S36       1.0  0.82500  0.55100  0.75000  1.0000
  S   S37       1.0  0.24700  0.59200  0.75000  1.0000
  S   S38       1.0  0.63000  0.63300  0.75000  1.0000
  S   S39       1.0  0.40800  0.65600  0.75000  1.0000
  S   S40       1.0  0.14700  0.69300  0.75000  1.0000
  S   S41       1.0  0.34400  0.75300  0.75000  1.0000
  S   S42       1.0  0.03210  0.78100  0.75000  1.0000
  S   S43       1.0  0.69400  0.80800  0.75000  1.0000
  S   S44       1.0  0.54700  0.85300  0.75000  1.0000
  S   S45       1.0  0.93600  0.86100  0.75000  1.0000
  S   S46       1.0  0.19200  0.88600  0.75000  1.0000
  S   S47       1.0  0.74900  0.96800  0.75000  1.0000
  S   S48       1.0  0.36700  0.99700  0.75000  1.0000
