data_image0
_chemical_formula_structural       Mg4O44P16
_chemical_formula_sum              "Mg4 O44 P16"
_cell_length_a       5.21503
_cell_length_b       22.0995
_cell_length_c       7.35976
_cell_angle_alpha    90
_cell_angle_beta     110.452
_cell_angle_gamma    90

_space_group_name_H-M_alt    "P 1"
_space_group_IT_number       1

loop_
  _space_group_symop_operation_xyz
  'x, y, z'

loop_
  _atom_site_type_symbol
  _atom_site_label
  _atom_site_symmetry_multiplicity
  _atom_site_fract_x
  _atom_site_fract_y
  _atom_site_fract_z
  _atom_site_occupancy
  Mg  Mg1       1.0  0.00176  0.88600  0.13200  1.0000
  Mg  Mg2       1.0  0.99800  0.38600  0.36800  1.0000
  Mg  Mg3       1.0  0.00176  0.61400  0.63200  1.0000
  Mg  Mg4       1.0  0.99800  0.11400  0.86800  1.0000
  O   O1        1.0  0.48000  0.73400  0.00041  1.0000
  O   O2        1.0  0.65000  0.84100  0.02210  1.0000
  O   O3        1.0  0.78900  0.54300  0.02360  1.0000
  O   O4        1.0  0.18000  0.81500  0.05250  1.0000
  O   O5        1.0  0.91500  0.34500  0.10200  1.0000
  O   O6        1.0  0.59200  0.63600  0.11800  1.0000
  O   O7        1.0  0.04550  0.07510  0.13100  1.0000
  O   O8        1.0  0.79400  0.95700  0.18400  1.0000
  O   O9        1.0  0.45100  0.53800  0.20700  1.0000
  O   O10       1.0  0.25000  0.69300  0.23300  1.0000
  O   O11       1.0  0.65200  0.43200  0.24600  1.0000
  O   O12       1.0  0.34800  0.93200  0.25400  1.0000
  O   O13       1.0  0.75000  0.19300  0.26700  1.0000
  O   O14       1.0  0.54900  0.03830  0.29300  1.0000
  O   O15       1.0  0.20600  0.45700  0.31600  1.0000
  O   O16       1.0  0.95400  0.57500  0.36900  1.0000
  O   O17       1.0  0.40800  0.13600  0.38200  1.0000
  O   O18       1.0  0.08510  0.84500  0.39800  1.0000
  O   O19       1.0  0.82000  0.31500  0.44800  1.0000
  O   O20       1.0  0.21100  0.04290  0.47600  1.0000
  O   O21       1.0  0.35000  0.34100  0.47800  1.0000
  O   O22       1.0  0.52000  0.23400  0.50000  1.0000
  O   O23       1.0  0.48000  0.76600  0.50000  1.0000
  O   O24       1.0  0.65000  0.65900  0.52200  1.0000
  O   O25       1.0  0.78900  0.95700  0.52400  1.0000
  O   O26       1.0  0.18000  0.68500  0.55200  1.0000
  O   O27       1.0  0.91500  0.15500  0.60200  1.0000
  O   O28       1.0  0.59200  0.86400  0.61800  1.0000
  O   O29       1.0  0.04550  0.42500  0.63100  1.0000
  O   O30       1.0  0.79400  0.54300  0.68400  1.0000
  O   O31       1.0  0.45100  0.96200  0.70700  1.0000
  O   O32       1.0  0.25000  0.80700  0.73300  1.0000
  O   O33       1.0  0.65200  0.06780  0.74600  1.0000
  O   O34       1.0  0.34800  0.56800  0.75400  1.0000
  O   O35       1.0  0.75000  0.30700  0.76700  1.0000
  O   O36       1.0  0.54900  0.46200  0.79300  1.0000
  O   O37       1.0  0.20600  0.04280  0.81600  1.0000
  O   O38       1.0  0.95400  0.92500  0.86900  1.0000
  O   O39       1.0  0.40800  0.36400  0.88200  1.0000
  O   O40       1.0  0.08510  0.65500  0.89800  1.0000
  O   O41       1.0  0.82000  0.18500  0.94800  1.0000
  O   O42       1.0  0.21100  0.45700  0.97600  1.0000
  O   O43       1.0  0.35000  0.15900  0.97800  1.0000
  O   O44       1.0  0.52000  0.26600  0.00000  1.0000
  P   P1        1.0  0.60400  0.19500  0.03110  1.0000
  P   P2        1.0  0.32900  0.67800  0.05160  1.0000
  P   P3        1.0  0.71200  0.57100  0.19300  1.0000
  P   P4        1.0  0.39300  0.46600  0.20800  1.0000
  P   P5        1.0  0.60700  0.96600  0.29200  1.0000
  P   P6        1.0  0.28800  0.07140  0.30700  1.0000
  P   P7        1.0  0.67100  0.17800  0.44800  1.0000
  P   P8        1.0  0.39600  0.69500  0.46900  1.0000
  P   P9        1.0  0.60400  0.30500  0.53100  1.0000
  P   P10       1.0  0.32900  0.82200  0.55200  1.0000
  P   P11       1.0  0.71200  0.92900  0.69300  1.0000
  P   P12       1.0  0.39300  0.03450  0.70800  1.0000
  P   P13       1.0  0.60700  0.53400  0.79200  1.0000
  P   P14       1.0  0.28800  0.42900  0.80700  1.0000
  P   P15       1.0  0.67100  0.32200  0.94800  1.0000
  P   P16       1.0  0.39600  0.80500  0.96900  1.0000
