data_image0
_chemical_formula_structural       Bi16Ca8O32
_chemical_formula_sum              "Bi16 Ca8 O32"
_cell_length_a       10.0442
_cell_length_b       10.0442
_cell_length_c       11.6245
_cell_angle_alpha    113.181
_cell_angle_beta     99.9693
_cell_angle_gamma    110.126

_space_group_name_H-M_alt    "P 1"
_space_group_IT_number       1

loop_
  _space_group_symop_operation_xyz
  'x, y, z'

loop_
  _atom_site_type_symbol
  _atom_site_label
  _atom_site_symmetry_multiplicity
  _atom_site_fract_x
  _atom_site_fract_y
  _atom_site_fract_z
  _atom_site_occupancy
  Bi  Bi1       1.0  0.14400  0.84000  0.01370  1.0000
  Bi  Bi2       1.0  0.85300  0.53700  0.06600  1.0000
  Bi  Bi3       1.0  0.84100  0.93000  0.21300  1.0000
  Bi  Bi4       1.0  0.25200  0.27000  0.22700  1.0000
  Bi  Bi5       1.0  0.54200  0.02490  0.27300  1.0000
  Bi  Bi6       1.0  0.21700  0.62800  0.28700  1.0000
  Bi  Bi7       1.0  0.97100  0.78700  0.43400  1.0000
  Bi  Bi8       1.0  0.32600  0.13000  0.48600  1.0000
  Bi  Bi9       1.0  0.67400  0.87000  0.51400  1.0000
  Bi  Bi10      1.0  0.02860  0.21300  0.56600  1.0000
  Bi  Bi11      1.0  0.78300  0.37200  0.71300  1.0000
  Bi  Bi12      1.0  0.45800  0.97500  0.72700  1.0000
  Bi  Bi13      1.0  0.74800  0.73000  0.77300  1.0000
  Bi  Bi14      1.0  0.15900  0.07040  0.78700  1.0000
  Bi  Bi15      1.0  0.14700  0.46300  0.93400  1.0000
  Bi  Bi16      1.0  0.85600  0.16000  0.98600  1.0000
  Ca  Ca1       1.0  0.55900  0.23000  0.08130  1.0000
  Ca  Ca2       1.0  0.50100  0.58700  0.16300  1.0000
  Ca  Ca3       1.0  0.92400  0.33800  0.33700  1.0000
  Ca  Ca4       1.0  0.64900  0.47800  0.41900  1.0000
  Ca  Ca5       1.0  0.35100  0.52200  0.58100  1.0000
  Ca  Ca6       1.0  0.07610  0.66200  0.66300  1.0000
  Ca  Ca7       1.0  0.49900  0.41300  0.83700  1.0000
  Ca  Ca8       1.0  0.44100  0.77000  0.91900  1.0000
  O   O1        1.0  0.63000  0.46800  0.05000  1.0000
  O   O2        1.0  0.38300  0.97800  0.07840  1.0000
  O   O3        1.0  0.18100  0.67900  0.10700  1.0000
  O   O4        1.0  0.20000  0.42000  0.11600  1.0000
  O   O5        1.0  0.59600  0.85500  0.13500  1.0000
  O   O6        1.0  0.85800  0.36200  0.14300  1.0000
  O   O7        1.0  0.91500  0.10800  0.15500  1.0000
  O   O8        1.0  0.46100  0.38200  0.21500  1.0000
  O   O9        1.0  0.66700  0.24600  0.28500  1.0000
  O   O10       1.0  0.45300  0.76000  0.34500  1.0000
  O   O11       1.0  0.71900  0.71600  0.35700  1.0000
  O   O12       1.0  0.22000  0.46100  0.36500  1.0000
  O   O13       1.0  0.80400  0.08320  0.38400  1.0000
  O   O14       1.0  0.07200  0.07400  0.39300  1.0000
  O   O15       1.0  0.39900  0.30500  0.42200  1.0000
  O   O16       1.0  0.91800  0.58000  0.45000  1.0000
  O   O17       1.0  0.08160  0.42000  0.55000  1.0000
  O   O18       1.0  0.60100  0.69500  0.57800  1.0000
  O   O19       1.0  0.92800  0.92600  0.60700  1.0000
  O   O20       1.0  0.19600  0.91700  0.61600  1.0000
  O   O21       1.0  0.78000  0.53900  0.63500  1.0000
  O   O22       1.0  0.28100  0.28400  0.64300  1.0000
  O   O23       1.0  0.54700  0.24000  0.65500  1.0000
  O   O24       1.0  0.33300  0.75400  0.71500  1.0000
  O   O25       1.0  0.53900  0.61800  0.78500  1.0000
  O   O26       1.0  0.08520  0.89200  0.84500  1.0000
  O   O27       1.0  0.14200  0.63800  0.85700  1.0000
  O   O28       1.0  0.40400  0.14500  0.86500  1.0000
  O   O29       1.0  0.80000  0.58000  0.88400  1.0000
  O   O30       1.0  0.81900  0.32100  0.89300  1.0000
  O   O31       1.0  0.61700  0.02240  0.92200  1.0000
  O   O32       1.0  0.37000  0.53200  0.95000  1.0000
