data_image0
_chemical_formula_structural       Ca8O48P16
_chemical_formula_sum              "Ca8 O48 P16"
_cell_length_a       6.67877
_cell_length_b       11.998
_cell_length_c       11.998
_cell_angle_alpha    111.117
_cell_angle_beta     92.3513
_cell_angle_gamma    92.3513

_space_group_name_H-M_alt    "P 1"
_space_group_IT_number       1

loop_
  _space_group_symop_operation_xyz
  'x, y, z'

loop_
  _atom_site_type_symbol
  _atom_site_label
  _atom_site_symmetry_multiplicity
  _atom_site_fract_x
  _atom_site_fract_y
  _atom_site_fract_z
  _atom_site_occupancy
  Ca  Ca1       1.0  0.70400  0.97200  0.35300  1.0000
  Ca  Ca2       1.0  0.20100  0.47000  0.36200  1.0000
  Ca  Ca3       1.0  0.70100  0.36200  0.47000  1.0000
  Ca  Ca4       1.0  0.18600  0.86000  0.48100  1.0000
  Ca  Ca5       1.0  0.18600  0.98100  0.85000  1.0000
  Ca  Ca6       1.0  0.68600  0.48100  0.86000  1.0000
  Ca  Ca7       1.0  0.20400  0.35300  0.97200  1.0000
  Ca  Ca8       1.0  0.68600  0.85000  0.98100  1.0000
  O   O1        1.0  0.99200  0.98800  0.01120  1.0000
  O   O2        1.0  0.56300  0.48900  0.03560  1.0000
  O   O3        1.0  0.25500  0.69000  0.07680  1.0000
  O   O4        1.0  0.96500  0.32700  0.09080  1.0000
  O   O5        1.0  0.23600  0.90700  0.11700  1.0000
  O   O6        1.0  0.69300  0.19100  0.12800  1.0000
  O   O7        1.0  0.56100  0.83100  0.15500  1.0000
  O   O8        1.0  0.94300  0.65100  0.16600  1.0000
  O   O9        1.0  0.31700  0.48700  0.18800  1.0000
  O   O10       1.0  0.19300  0.12800  0.19100  1.0000
  O   O11       1.0  0.65400  0.41100  0.20200  1.0000
  O   O12       1.0  0.91500  0.98700  0.21600  1.0000
  O   O13       1.0  0.62300  0.63000  0.25500  1.0000
  O   O14       1.0  0.28000  0.83300  0.29400  1.0000
  O   O15       1.0  0.90600  0.33000  0.30300  1.0000
  O   O16       1.0  0.46500  0.09080  0.32700  1.0000
  O   O17       1.0  0.40600  0.30300  0.33000  1.0000
  O   O18       1.0  0.96000  0.59700  0.34700  1.0000
  O   O19       1.0  0.86200  0.80500  0.36500  1.0000
  O   O20       1.0  0.15400  0.20200  0.41100  1.0000
  O   O21       1.0  0.57200  0.53300  0.45900  1.0000
  O   O22       1.0  0.81700  0.18800  0.48700  1.0000
  O   O23       1.0  0.06340  0.03560  0.48900  1.0000
  O   O24       1.0  0.32200  0.69100  0.49400  1.0000
  O   O25       1.0  0.52400  0.96400  0.51100  1.0000
  O   O26       1.0  0.07230  0.45900  0.53300  1.0000
  O   O27       1.0  0.67900  0.75600  0.57500  1.0000
  O   O28       1.0  0.46000  0.34700  0.59700  1.0000
  O   O29       1.0  0.12300  0.25500  0.63000  1.0000
  O   O30       1.0  0.97200  0.66400  0.63200  1.0000
  O   O31       1.0  0.44300  0.16600  0.65100  1.0000
  O   O32       1.0  0.00760  0.87600  0.65100  1.0000
  O   O33       1.0  0.47200  0.63200  0.66400  1.0000
  O   O34       1.0  0.75500  0.07680  0.69000  1.0000
  O   O35       1.0  0.82200  0.49400  0.69100  1.0000
  O   O36       1.0  0.41000  0.99000  0.71600  1.0000
  O   O37       1.0  0.17900  0.57500  0.75600  1.0000
  O   O38       1.0  0.79200  0.82100  0.79600  1.0000
  O   O39       1.0  0.36200  0.36500  0.80500  1.0000
  O   O40       1.0  0.29200  0.79600  0.82100  1.0000
  O   O41       1.0  0.06060  0.15500  0.83100  1.0000
  O   O42       1.0  0.78000  0.29400  0.83300  1.0000
  O   O43       1.0  0.50800  0.65100  0.87600  1.0000
  O   O44       1.0  0.73600  0.11700  0.90700  1.0000
  O   O45       1.0  0.02350  0.51100  0.96400  1.0000
  O   O46       1.0  0.41500  0.21600  0.98700  1.0000
  O   O47       1.0  0.49200  0.01120  0.98800  1.0000
  O   O48       1.0  0.91000  0.71600  0.99000  1.0000
  P   P1        1.0  0.56800  0.13500  0.00095  1.0000
  P   P2        1.0  0.02640  0.64100  0.04220  1.0000
  P   P3        1.0  0.06840  0.00095  0.13500  1.0000
  P   P4        1.0  0.53200  0.50200  0.16200  1.0000
  P   P5        1.0  0.34000  0.81900  0.17200  1.0000
  P   P6        1.0  0.82400  0.31700  0.18000  1.0000
  P   P7        1.0  0.85600  0.67300  0.29200  1.0000
  P   P8        1.0  0.32400  0.18000  0.31700  1.0000
  P   P9        1.0  0.03250  0.16200  0.50200  1.0000
  P   P10       1.0  0.50500  0.65100  0.54100  1.0000
  P   P11       1.0  0.52600  0.04220  0.64100  1.0000
  P   P12       1.0  0.00544  0.54100  0.65100  1.0000
  P   P13       1.0  0.35600  0.29200  0.67300  1.0000
  P   P14       1.0  0.86500  0.78700  0.67400  1.0000
  P   P15       1.0  0.36500  0.67400  0.78700  1.0000
  P   P16       1.0  0.84000  0.17200  0.81900  1.0000
