data_image0
_chemical_formula_structural       Mg2O7P2
_chemical_formula_sum              "Mg2 O7 P2"
_cell_length_a       4.48718
_cell_length_b       5.23103
_cell_length_c       5.23103
_cell_angle_alpha    104.028
_cell_angle_beta     98.3457
_cell_angle_gamma    98.3457

_space_group_name_H-M_alt    "P 1"
_space_group_IT_number       1

loop_
  _space_group_symop_operation_xyz
  'x, y, z'

loop_
  _atom_site_type_symbol
  _atom_site_label
  _atom_site_symmetry_multiplicity
  _atom_site_fract_x
  _atom_site_fract_y
  _atom_site_fract_z
  _atom_site_occupancy
  Mg  Mg1       1.0  0.50000  0.68800  0.31200  1.0000
  Mg  Mg2       1.0  0.50000  0.31200  0.68800  1.0000
  O   O1        1.0  0.00000  0.00000  0.00000  1.0000
  O   O2        1.0  0.71800  0.38100  0.07330  1.0000
  O   O3        1.0  0.71800  0.07330  0.38100  1.0000
  O   O4        1.0  0.21500  0.38300  0.38300  1.0000
  O   O5        1.0  0.78500  0.61700  0.61700  1.0000
  O   O6        1.0  0.28200  0.92700  0.61900  1.0000
  O   O7        1.0  0.28200  0.61900  0.92700  1.0000
  P   P1        1.0  0.90600  0.22100  0.22100  1.0000
  P   P2        1.0  0.09360  0.77900  0.77900  1.0000
