data_image0
_chemical_formula_structural       Bi12Se26Sr8
_chemical_formula_sum              "Bi12 Se26 Sr8"
_cell_length_a       18.6184
_cell_length_b       4.2591
_cell_length_c       17.1961
_cell_angle_alpha    90
_cell_angle_beta     90.5722
_cell_angle_gamma    90

_space_group_name_H-M_alt    "P 1"
_space_group_IT_number       1

loop_
  _space_group_symop_operation_xyz
  'x, y, z'

loop_
  _atom_site_type_symbol
  _atom_site_label
  _atom_site_symmetry_multiplicity
  _atom_site_fract_x
  _atom_site_fract_y
  _atom_site_fract_z
  _atom_site_occupancy
  Bi  Bi1       1.0  0.11900  0.75000  0.00996  1.0000
  Bi  Bi2       1.0  0.52200  0.25000  0.17000  1.0000
  Bi  Bi3       1.0  0.95500  0.75000  0.18700  1.0000
  Bi  Bi4       1.0  0.38000  0.75000  0.32600  1.0000
  Bi  Bi5       1.0  0.98200  0.25000  0.39300  1.0000
  Bi  Bi6       1.0  0.57800  0.25000  0.41700  1.0000
  Bi  Bi7       1.0  0.42200  0.75000  0.58300  1.0000
  Bi  Bi8       1.0  0.01840  0.75000  0.60700  1.0000
  Bi  Bi9       1.0  0.62000  0.25000  0.67400  1.0000
  Bi  Bi10      1.0  0.04510  0.25000  0.81300  1.0000
  Bi  Bi11      1.0  0.47800  0.75000  0.83000  1.0000
  Bi  Bi12      1.0  0.88100  0.25000  0.99000  1.0000
  Se  Se1       1.0  0.48500  0.75000  0.06880  1.0000
  Se  Se2       1.0  0.82200  0.75000  0.07980  1.0000
  Se  Se3       1.0  0.03890  0.25000  0.10500  1.0000
  Se  Se4       1.0  0.23800  0.75000  0.10600  1.0000
  Se  Se5       1.0  0.66500  0.25000  0.12400  1.0000
  Se  Se6       1.0  0.36100  0.25000  0.21900  1.0000
  Se  Se7       1.0  0.87300  0.25000  0.26500  1.0000
  Se  Se8       1.0  0.55600  0.75000  0.30100  1.0000
  Se  Se9       1.0  0.06220  0.75000  0.30500  1.0000
  Se  Se10      1.0  0.23600  0.75000  0.35700  1.0000
  Se  Se11      1.0  0.72300  0.25000  0.38300  1.0000
  Se  Se12      1.0  0.41000  0.25000  0.46000  1.0000
  Se  Se13      1.0  0.91300  0.75000  0.47800  1.0000
  Se  Se14      1.0  0.08740  0.25000  0.52200  1.0000
  Se  Se15      1.0  0.59000  0.75000  0.54000  1.0000
  Se  Se16      1.0  0.27700  0.75000  0.61700  1.0000
  Se  Se17      1.0  0.76400  0.25000  0.64300  1.0000
  Se  Se18      1.0  0.93800  0.25000  0.69500  1.0000
  Se  Se19      1.0  0.44400  0.25000  0.69900  1.0000
  Se  Se20      1.0  0.12700  0.75000  0.73500  1.0000
  Se  Se21      1.0  0.63900  0.75000  0.78100  1.0000
  Se  Se22      1.0  0.33500  0.75000  0.87600  1.0000
  Se  Se23      1.0  0.76200  0.25000  0.89400  1.0000
  Se  Se24      1.0  0.96100  0.75000  0.89500  1.0000
  Se  Se25      1.0  0.17800  0.25000  0.92000  1.0000
  Se  Se26      1.0  0.51500  0.25000  0.93100  1.0000
  Sr  Sr1       1.0  0.34000  0.25000  0.01350  1.0000
  Sr  Sr2       1.0  0.18000  0.25000  0.22900  1.0000
  Sr  Sr3       1.0  0.72900  0.75000  0.24300  1.0000
  Sr  Sr4       1.0  0.24600  0.25000  0.48800  1.0000
  Sr  Sr5       1.0  0.75400  0.75000  0.51200  1.0000
  Sr  Sr6       1.0  0.27100  0.25000  0.75700  1.0000
  Sr  Sr7       1.0  0.82000  0.75000  0.77100  1.0000
  Sr  Sr8       1.0  0.66000  0.75000  0.98600  1.0000
