data_image0
_chemical_formula_structural       As24Sr32
_chemical_formula_sum              "As24 Sr32"
_cell_length_a       12.8908
_cell_length_b       12.2389
_cell_length_c       11.0306
_cell_angle_alpha    90
_cell_angle_beta     90
_cell_angle_gamma    90

_space_group_name_H-M_alt    "P 1"
_space_group_IT_number       1

loop_
  _space_group_symop_operation_xyz
  'x, y, z'

loop_
  _atom_site_type_symbol
  _atom_site_label
  _atom_site_symmetry_multiplicity
  _atom_site_fract_x
  _atom_site_fract_y
  _atom_site_fract_z
  _atom_site_occupancy
  As  As1       1.0  0.14300  0.13900  0.00000  1.0000
  As  As2       1.0  0.64300  0.36100  0.00000  1.0000
  As  As3       1.0  0.35700  0.63900  0.00000  1.0000
  As  As4       1.0  0.85700  0.86100  0.00000  1.0000
  As  As5       1.0  0.50000  0.00000  0.11700  1.0000
  As  As6       1.0  0.00000  0.50000  0.11700  1.0000
  As  As7       1.0  0.82300  0.16200  0.23400  1.0000
  As  As8       1.0  0.32300  0.33800  0.23400  1.0000
  As  As9       1.0  0.67700  0.66200  0.23400  1.0000
  As  As10      1.0  0.17700  0.83800  0.23400  1.0000
  As  As11      1.0  0.40700  0.03810  0.50000  1.0000
  As  As12      1.0  0.11400  0.13600  0.50000  1.0000
  As  As13      1.0  0.61400  0.36400  0.50000  1.0000
  As  As14      1.0  0.90700  0.46200  0.50000  1.0000
  As  As15      1.0  0.09260  0.53800  0.50000  1.0000
  As  As16      1.0  0.38600  0.63600  0.50000  1.0000
  As  As17      1.0  0.88600  0.86400  0.50000  1.0000
  As  As18      1.0  0.59300  0.96200  0.50000  1.0000
  As  As19      1.0  0.82300  0.16200  0.76600  1.0000
  As  As20      1.0  0.32300  0.33800  0.76600  1.0000
  As  As21      1.0  0.67700  0.66200  0.76600  1.0000
  As  As22      1.0  0.17700  0.83800  0.76600  1.0000
  As  As23      1.0  0.50000  0.00000  0.88300  1.0000
  As  As24      1.0  0.00000  0.50000  0.88300  1.0000
  Sr  Sr1       1.0  0.70600  0.10300  0.00000  1.0000
  Sr  Sr2       1.0  0.42300  0.22600  0.00000  1.0000
  Sr  Sr3       1.0  0.92300  0.27400  0.00000  1.0000
  Sr  Sr4       1.0  0.20600  0.39700  0.00000  1.0000
  Sr  Sr5       1.0  0.79400  0.60300  0.00000  1.0000
  Sr  Sr6       1.0  0.07650  0.72600  0.00000  1.0000
  Sr  Sr7       1.0  0.57700  0.77400  0.00000  1.0000
  Sr  Sr8       1.0  0.29400  0.89700  0.00000  1.0000
  Sr  Sr9       1.0  0.00000  0.00000  0.18400  1.0000
  Sr  Sr10      1.0  0.50000  0.50000  0.18400  1.0000
  Sr  Sr11      1.0  0.26400  0.09600  0.27600  1.0000
  Sr  Sr12      1.0  0.76400  0.40400  0.27600  1.0000
  Sr  Sr13      1.0  0.23600  0.59600  0.27600  1.0000
  Sr  Sr14      1.0  0.73600  0.90400  0.27600  1.0000
  Sr  Sr15      1.0  0.56700  0.17400  0.32300  1.0000
  Sr  Sr16      1.0  0.06700  0.32600  0.32300  1.0000
  Sr  Sr17      1.0  0.93300  0.67400  0.32300  1.0000
  Sr  Sr18      1.0  0.43300  0.82600  0.32300  1.0000
  Sr  Sr19      1.0  0.86700  0.12400  0.50000  1.0000
  Sr  Sr20      1.0  0.36700  0.37600  0.50000  1.0000
  Sr  Sr21      1.0  0.63300  0.62400  0.50000  1.0000
  Sr  Sr22      1.0  0.13300  0.87600  0.50000  1.0000
  Sr  Sr23      1.0  0.56700  0.17400  0.67700  1.0000
  Sr  Sr24      1.0  0.06700  0.32600  0.67700  1.0000
  Sr  Sr25      1.0  0.93300  0.67400  0.67700  1.0000
  Sr  Sr26      1.0  0.43300  0.82600  0.67700  1.0000
  Sr  Sr27      1.0  0.26400  0.09600  0.72400  1.0000
  Sr  Sr28      1.0  0.76400  0.40400  0.72400  1.0000
  Sr  Sr29      1.0  0.23600  0.59600  0.72400  1.0000
  Sr  Sr30      1.0  0.73600  0.90400  0.72400  1.0000
  Sr  Sr31      1.0  0.00000  0.00000  0.81600  1.0000
  Sr  Sr32      1.0  0.50000  0.50000  0.81600  1.0000
