data_image0
_chemical_formula_structural       Ba8O28P8
_chemical_formula_sum              "Ba8 O28 P8"
_cell_length_a       9.2618
_cell_length_b       5.58361
_cell_length_c       13.7604
_cell_angle_alpha    90
_cell_angle_beta     90
_cell_angle_gamma    90

_space_group_name_H-M_alt    "P 1"
_space_group_IT_number       1

loop_
  _space_group_symop_operation_xyz
  'x, y, z'

loop_
  _atom_site_type_symbol
  _atom_site_label
  _atom_site_symmetry_multiplicity
  _atom_site_fract_x
  _atom_site_fract_y
  _atom_site_fract_z
  _atom_site_occupancy
  Ba  Ba1       1.0  0.63600  0.25000  0.08250  1.0000
  Ba  Ba2       1.0  0.34200  0.75000  0.24600  1.0000
  Ba  Ba3       1.0  0.84200  0.75000  0.25400  1.0000
  Ba  Ba4       1.0  0.13600  0.25000  0.41800  1.0000
  Ba  Ba5       1.0  0.86400  0.75000  0.58200  1.0000
  Ba  Ba6       1.0  0.15800  0.25000  0.74600  1.0000
  Ba  Ba7       1.0  0.65800  0.25000  0.75400  1.0000
  Ba  Ba8       1.0  0.36400  0.75000  0.91800  1.0000
  O   O1        1.0  0.72400  0.75000  0.06940  1.0000
  O   O2        1.0  0.11300  0.25000  0.07460  1.0000
  O   O3        1.0  0.35500  0.02390  0.08130  1.0000
  O   O4        1.0  0.35500  0.47600  0.08130  1.0000
  O   O5        1.0  0.88200  0.25000  0.16900  1.0000
  O   O6        1.0  0.09590  0.02280  0.23600  1.0000
  O   O7        1.0  0.09590  0.47700  0.23600  1.0000
  O   O8        1.0  0.59600  0.02280  0.26400  1.0000
  O   O9        1.0  0.59600  0.47700  0.26400  1.0000
  O   O10       1.0  0.38200  0.25000  0.33100  1.0000
  O   O11       1.0  0.85500  0.02390  0.41900  1.0000
  O   O12       1.0  0.85500  0.47600  0.41900  1.0000
  O   O13       1.0  0.61300  0.25000  0.42500  1.0000
  O   O14       1.0  0.22400  0.75000  0.43100  1.0000
  O   O15       1.0  0.77600  0.25000  0.56900  1.0000
  O   O16       1.0  0.38700  0.75000  0.57500  1.0000
  O   O17       1.0  0.14500  0.52400  0.58100  1.0000
  O   O18       1.0  0.14500  0.97600  0.58100  1.0000
  O   O19       1.0  0.61800  0.75000  0.66900  1.0000
  O   O20       1.0  0.40400  0.52300  0.73600  1.0000
  O   O21       1.0  0.40400  0.97700  0.73600  1.0000
  O   O22       1.0  0.90400  0.52300  0.76400  1.0000
  O   O23       1.0  0.90400  0.97700  0.76400  1.0000
  O   O24       1.0  0.11800  0.75000  0.83100  1.0000
  O   O25       1.0  0.64500  0.52400  0.91900  1.0000
  O   O26       1.0  0.64500  0.97600  0.91900  1.0000
  O   O27       1.0  0.88700  0.75000  0.92500  1.0000
  O   O28       1.0  0.27600  0.25000  0.93100  1.0000
  P   P1        1.0  0.28100  0.25000  0.04190  1.0000
  P   P2        1.0  0.04530  0.25000  0.18400  1.0000
  P   P3        1.0  0.54500  0.25000  0.31600  1.0000
  P   P4        1.0  0.78100  0.25000  0.45800  1.0000
  P   P5        1.0  0.21900  0.75000  0.54200  1.0000
  P   P6        1.0  0.45500  0.75000  0.68400  1.0000
  P   P7        1.0  0.95500  0.75000  0.81600  1.0000
  P   P8        1.0  0.71900  0.75000  0.95800  1.0000
