data_image0
_chemical_formula_structural       O28P16
_chemical_formula_sum              "O28 P16"
_cell_length_a       9.48933
_cell_length_b       9.53619
_cell_length_c       6.59035
_cell_angle_alpha    90
_cell_angle_beta     97.1399
_cell_angle_gamma    90

_space_group_name_H-M_alt    "P 1"
_space_group_IT_number       1

loop_
  _space_group_symop_operation_xyz
  'x, y, z'

loop_
  _atom_site_type_symbol
  _atom_site_label
  _atom_site_symmetry_multiplicity
  _atom_site_fract_x
  _atom_site_fract_y
  _atom_site_fract_z
  _atom_site_occupancy
  O   O1        1.0  0.11700  0.31400  0.01420  1.0000
  O   O2        1.0  0.42000  0.22800  0.01850  1.0000
  O   O3        1.0  0.26000  0.01930  0.08390  1.0000
  O   O4        1.0  0.14400  0.68500  0.12500  1.0000
  O   O5        1.0  0.68100  0.23100  0.15800  1.0000
  O   O6        1.0  0.99200  0.89400  0.19500  1.0000
  O   O7        1.0  0.52500  0.02290  0.22600  1.0000
  O   O8        1.0  0.97500  0.52300  0.27400  1.0000
  O   O9        1.0  0.50800  0.39400  0.30500  1.0000
  O   O10       1.0  0.81900  0.73100  0.34200  1.0000
  O   O11       1.0  0.35600  0.18500  0.37500  1.0000
  O   O12       1.0  0.24000  0.51900  0.41600  1.0000
  O   O13       1.0  0.08030  0.72800  0.48100  1.0000
  O   O14       1.0  0.38300  0.81400  0.48600  1.0000
  O   O15       1.0  0.61700  0.18600  0.51400  1.0000
  O   O16       1.0  0.92000  0.27200  0.51900  1.0000
  O   O17       1.0  0.76000  0.48100  0.58400  1.0000
  O   O18       1.0  0.64400  0.81500  0.62500  1.0000
  O   O19       1.0  0.18100  0.26900  0.65800  1.0000
  O   O20       1.0  0.49200  0.60600  0.69500  1.0000
  O   O21       1.0  0.02540  0.47700  0.72600  1.0000
  O   O22       1.0  0.47500  0.97700  0.77400  1.0000
  O   O23       1.0  0.00828  0.10600  0.80500  1.0000
  O   O24       1.0  0.31900  0.76900  0.84200  1.0000
  O   O25       1.0  0.85600  0.31500  0.87500  1.0000
  O   O26       1.0  0.74000  0.98100  0.91600  1.0000
  O   O27       1.0  0.58000  0.77200  0.98100  1.0000
  O   O28       1.0  0.88300  0.68600  0.98600  1.0000
  P   P1        1.0  0.98000  0.20500  0.00127  1.0000
  P   P2        1.0  0.55400  0.34400  0.08310  1.0000
  P   P3        1.0  0.38000  0.10600  0.16900  1.0000
  P   P4        1.0  0.82100  0.60200  0.17600  1.0000
  P   P5        1.0  0.67900  0.10200  0.32400  1.0000
  P   P6        1.0  0.12000  0.60600  0.33100  1.0000
  P   P7        1.0  0.94600  0.84400  0.41700  1.0000
  P   P8        1.0  0.52000  0.70500  0.49900  1.0000
  P   P9        1.0  0.48000  0.29500  0.50100  1.0000
  P   P10       1.0  0.05430  0.15600  0.58300  1.0000
  P   P11       1.0  0.88000  0.39400  0.66900  1.0000
  P   P12       1.0  0.32100  0.89800  0.67600  1.0000
  P   P13       1.0  0.17900  0.39800  0.82400  1.0000
  P   P14       1.0  0.62000  0.89400  0.83100  1.0000
  P   P15       1.0  0.44600  0.65600  0.91700  1.0000
  P   P16       1.0  0.02040  0.79500  0.99900  1.0000
