data_image0
_chemical_formula_structural       Ca16O36P8
_chemical_formula_sum              "Ca16 O36 P8"
_cell_length_a       6.96396
_cell_length_b       11.8595
_cell_length_c       9.39004
_cell_angle_alpha    90
_cell_angle_beta     90.9004
_cell_angle_gamma    90

_space_group_name_H-M_alt    "P 1"
_space_group_IT_number       1

loop_
  _space_group_symop_operation_xyz
  'x, y, z'

loop_
  _atom_site_type_symbol
  _atom_site_label
  _atom_site_symmetry_multiplicity
  _atom_site_fract_x
  _atom_site_fract_y
  _atom_site_fract_z
  _atom_site_occupancy
  Ca  Ca1       1.0  0.24900  0.07960  0.01320  1.0000
  Ca  Ca2       1.0  0.46900  0.79900  0.10200  1.0000
  Ca  Ca3       1.0  0.96700  0.84300  0.10600  1.0000
  Ca  Ca4       1.0  0.26900  0.29900  0.25100  1.0000
  Ca  Ca5       1.0  0.74000  0.10900  0.25200  1.0000
  Ca  Ca6       1.0  0.01320  0.56800  0.36400  1.0000
  Ca  Ca7       1.0  0.48700  0.55200  0.41100  1.0000
  Ca  Ca8       1.0  0.23100  0.80300  0.46700  1.0000
  Ca  Ca9       1.0  0.76900  0.30300  0.53300  1.0000
  Ca  Ca10      1.0  0.51300  0.05210  0.58900  1.0000
  Ca  Ca11      1.0  0.98700  0.06800  0.63600  1.0000
  Ca  Ca12      1.0  0.26000  0.60900  0.74800  1.0000
  Ca  Ca13      1.0  0.73100  0.79900  0.74900  1.0000
  Ca  Ca14      1.0  0.03300  0.34300  0.89400  1.0000
  Ca  Ca15      1.0  0.53100  0.29900  0.89800  1.0000
  Ca  Ca16      1.0  0.75100  0.58000  0.98700  1.0000
  O   O1        1.0  0.58600  0.10700  0.00108  1.0000
  O   O2        1.0  0.92000  0.02710  0.00812  1.0000
  O   O3        1.0  0.26400  0.26200  0.01580  1.0000
  O   O4        1.0  0.77300  0.36100  0.05500  1.0000
  O   O5        1.0  0.16400  0.68600  0.16300  1.0000
  O   O6        1.0  0.28900  0.49600  0.21500  1.0000
  O   O7        1.0  0.72800  0.52100  0.22500  1.0000
  O   O8        1.0  0.24600  0.93200  0.22800  1.0000
  O   O9        1.0  0.71100  0.91100  0.24900  1.0000
  O   O10       1.0  0.07580  0.11800  0.26200  1.0000
  O   O11       1.0  0.61200  0.32100  0.29000  1.0000
  O   O12       1.0  0.95700  0.36700  0.29700  1.0000
  O   O13       1.0  0.42200  0.11100  0.30900  1.0000
  O   O14       1.0  0.54000  0.74200  0.34300  1.0000
  O   O15       1.0  0.90600  0.76300  0.37600  1.0000
  O   O16       1.0  0.21200  0.00402  0.47600  1.0000
  O   O17       1.0  0.32800  0.38400  0.48200  1.0000
  O   O18       1.0  0.76800  0.12700  0.48800  1.0000
  O   O19       1.0  0.23200  0.62700  0.51200  1.0000
  O   O20       1.0  0.67200  0.88400  0.51800  1.0000
  O   O21       1.0  0.78800  0.50400  0.52400  1.0000
  O   O22       1.0  0.09370  0.26300  0.62400  1.0000
  O   O23       1.0  0.46000  0.24200  0.65700  1.0000
  O   O24       1.0  0.57800  0.61100  0.69100  1.0000
  O   O25       1.0  0.04270  0.86700  0.70300  1.0000
  O   O26       1.0  0.38800  0.82100  0.71000  1.0000
  O   O27       1.0  0.92400  0.61800  0.73800  1.0000
  O   O28       1.0  0.28900  0.41100  0.75100  1.0000
  O   O29       1.0  0.75400  0.43200  0.77200  1.0000
  O   O30       1.0  0.27200  0.02090  0.77500  1.0000
  O   O31       1.0  0.71100  0.99600  0.78500  1.0000
  O   O32       1.0  0.83600  0.18600  0.83700  1.0000
  O   O33       1.0  0.22700  0.86100  0.94500  1.0000
  O   O34       1.0  0.73600  0.76200  0.98400  1.0000
  O   O35       1.0  0.08030  0.52700  0.99200  1.0000
  O   O36       1.0  0.41400  0.60700  0.99900  1.0000
  P   P1        1.0  0.23800  0.57700  0.09060  1.0000
  P   P2        1.0  0.76700  0.39100  0.21500  1.0000
  P   P3        1.0  0.23600  0.04110  0.31900  1.0000
  P   P4        1.0  0.71000  0.82500  0.37600  1.0000
  P   P5        1.0  0.29000  0.32500  0.62400  1.0000
  P   P6        1.0  0.76400  0.54100  0.68100  1.0000
  P   P7        1.0  0.23300  0.89100  0.78500  1.0000
  P   P8        1.0  0.76200  0.07680  0.90900  1.0000
