data_image0
_chemical_formula_structural       Ca4O44P16
_chemical_formula_sum              "Ca4 O44 P16"
_cell_length_a       8.66242
_cell_length_b       8.66242
_cell_length_c       12.5239
_cell_angle_alpha    90
_cell_angle_beta     90
_cell_angle_gamma    86.2551

_space_group_name_H-M_alt    "P 1"
_space_group_IT_number       1

loop_
  _space_group_symop_operation_xyz
  'x, y, z'

loop_
  _atom_site_type_symbol
  _atom_site_label
  _atom_site_symmetry_multiplicity
  _atom_site_fract_x
  _atom_site_fract_y
  _atom_site_fract_z
  _atom_site_occupancy
  Ca  Ca1       1.0  0.24800  0.71500  0.02390  1.0000
  Ca  Ca2       1.0  0.74800  0.21500  0.47600  1.0000
  Ca  Ca3       1.0  0.21500  0.74800  0.52400  1.0000
  Ca  Ca4       1.0  0.71500  0.24800  0.97600  1.0000
  O   O1        1.0  0.46300  0.24900  0.02730  1.0000
  O   O2        1.0  0.71300  0.50000  0.02830  1.0000
  O   O3        1.0  0.26500  0.95800  0.09420  1.0000
  O   O4        1.0  0.00535  0.70500  0.09630  1.0000
  O   O5        1.0  0.18900  0.24900  0.09860  1.0000
  O   O6        1.0  0.71300  0.77300  0.09870  1.0000
  O   O7        1.0  0.85200  0.11100  0.10200  1.0000
  O   O8        1.0  0.31000  0.65800  0.19500  1.0000
  O   O9        1.0  0.07360  0.08320  0.23500  1.0000
  O   O10       1.0  0.87300  0.89100  0.23700  1.0000
  O   O11       1.0  0.34900  0.11500  0.25000  1.0000
  O   O12       1.0  0.84900  0.61500  0.25000  1.0000
  O   O13       1.0  0.37300  0.39100  0.26300  1.0000
  O   O14       1.0  0.57400  0.58300  0.26500  1.0000
  O   O15       1.0  0.81000  0.15800  0.30500  1.0000
  O   O16       1.0  0.35200  0.61100  0.39800  1.0000
  O   O17       1.0  0.21300  0.27300  0.40100  1.0000
  O   O18       1.0  0.68900  0.74900  0.40100  1.0000
  O   O19       1.0  0.50500  0.20500  0.40400  1.0000
  O   O20       1.0  0.76500  0.45800  0.40600  1.0000
  O   O21       1.0  0.21300  0.00000  0.47200  1.0000
  O   O22       1.0  0.96300  0.74900  0.47300  1.0000
  O   O23       1.0  0.74900  0.96300  0.52700  1.0000
  O   O24       1.0  0.00000  0.21300  0.52800  1.0000
  O   O25       1.0  0.45800  0.76500  0.59400  1.0000
  O   O26       1.0  0.20500  0.50500  0.59600  1.0000
  O   O27       1.0  0.74900  0.68900  0.59900  1.0000
  O   O28       1.0  0.27300  0.21300  0.59900  1.0000
  O   O29       1.0  0.61100  0.35200  0.60200  1.0000
  O   O30       1.0  0.15800  0.81000  0.69500  1.0000
  O   O31       1.0  0.58300  0.57400  0.73500  1.0000
  O   O32       1.0  0.39100  0.37300  0.73700  1.0000
  O   O33       1.0  0.61500  0.84900  0.75000  1.0000
  O   O34       1.0  0.11500  0.34900  0.75000  1.0000
  O   O35       1.0  0.89100  0.87300  0.76300  1.0000
  O   O36       1.0  0.08320  0.07360  0.76500  1.0000
  O   O37       1.0  0.65800  0.31000  0.80500  1.0000
  O   O38       1.0  0.11100  0.85200  0.89800  1.0000
  O   O39       1.0  0.77300  0.71300  0.90100  1.0000
  O   O40       1.0  0.24900  0.18900  0.90100  1.0000
  O   O41       1.0  0.70500  0.00535  0.90400  1.0000
  O   O42       1.0  0.95800  0.26500  0.90600  1.0000
  O   O43       1.0  0.50000  0.71300  0.97200  1.0000
  O   O44       1.0  0.24900  0.46300  0.97300  1.0000
  P   P1        1.0  0.30100  0.30100  0.00000  1.0000
  P   P2        1.0  0.66100  0.66100  0.00000  1.0000
  P   P3        1.0  0.21900  0.09060  0.16200  1.0000
  P   P4        1.0  0.87000  0.74600  0.16300  1.0000
  P   P5        1.0  0.88700  0.07630  0.21500  1.0000
  P   P6        1.0  0.38700  0.57600  0.28500  1.0000
  P   P7        1.0  0.37000  0.24600  0.33700  1.0000
  P   P8        1.0  0.71900  0.59100  0.33800  1.0000
  P   P9        1.0  0.16100  0.16100  0.50000  1.0000
  P   P10       1.0  0.80100  0.80100  0.50000  1.0000
  P   P11       1.0  0.59100  0.71900  0.66200  1.0000
  P   P12       1.0  0.24600  0.37000  0.66300  1.0000
  P   P13       1.0  0.57600  0.38700  0.71500  1.0000
  P   P14       1.0  0.07630  0.88700  0.78500  1.0000
  P   P15       1.0  0.74600  0.87000  0.83700  1.0000
  P   P16       1.0  0.09060  0.21900  0.83800  1.0000
