data_image0
_chemical_formula_structural       As16Ba16S40
_chemical_formula_sum              "As16 Ba16 S40"
_cell_length_a       17.6068
_cell_length_b       9.35567
_cell_length_c       12.0637
_cell_angle_alpha    90
_cell_angle_beta     90
_cell_angle_gamma    90

_space_group_name_H-M_alt    "P 1"
_space_group_IT_number       1

loop_
  _space_group_symop_operation_xyz
  'x, y, z'

loop_
  _atom_site_type_symbol
  _atom_site_label
  _atom_site_symmetry_multiplicity
  _atom_site_fract_x
  _atom_site_fract_y
  _atom_site_fract_z
  _atom_site_occupancy
  As  As1       1.0  0.26000  0.27000  0.06220  1.0000
  As  As2       1.0  0.76000  0.73000  0.06220  1.0000
  As  As3       1.0  0.12500  0.13800  0.14000  1.0000
  As  As4       1.0  0.62500  0.86200  0.14000  1.0000
  As  As5       1.0  0.63000  0.22700  0.18000  1.0000
  As  As6       1.0  0.13000  0.77300  0.18000  1.0000
  As  As7       1.0  0.99300  0.27900  0.25100  1.0000
  As  As8       1.0  0.49300  0.72100  0.25100  1.0000
  As  As9       1.0  0.24000  0.27000  0.56200  1.0000
  As  As10      1.0  0.74000  0.73000  0.56200  1.0000
  As  As11      1.0  0.37500  0.13800  0.64000  1.0000
  As  As12      1.0  0.87500  0.86200  0.64000  1.0000
  As  As13      1.0  0.87000  0.22700  0.68000  1.0000
  As  As14      1.0  0.37000  0.77300  0.68000  1.0000
  As  As15      1.0  0.50700  0.27900  0.75100  1.0000
  As  As16      1.0  0.00656  0.72100  0.75100  1.0000
  Ba  Ba1       1.0  0.82400  0.50000  0.32400  1.0000
  Ba  Ba2       1.0  0.32400  0.50000  0.32400  1.0000
  Ba  Ba3       1.0  0.82100  0.01380  0.33200  1.0000
  Ba  Ba4       1.0  0.32100  0.98600  0.33200  1.0000
  Ba  Ba5       1.0  0.07240  0.00350  0.47900  1.0000
  Ba  Ba6       1.0  0.57200  0.99600  0.47900  1.0000
  Ba  Ba7       1.0  0.57600  0.49600  0.49000  1.0000
  Ba  Ba8       1.0  0.07630  0.50400  0.49000  1.0000
  Ba  Ba9       1.0  0.67600  0.50000  0.82400  1.0000
  Ba  Ba10      1.0  0.17600  0.50000  0.82400  1.0000
  Ba  Ba11      1.0  0.67900  0.01380  0.83200  1.0000
  Ba  Ba12      1.0  0.17900  0.98600  0.83200  1.0000
  Ba  Ba13      1.0  0.42800  0.00350  0.97900  1.0000
  Ba  Ba14      1.0  0.92800  0.99600  0.97900  1.0000
  Ba  Ba15      1.0  0.92400  0.49600  0.99000  1.0000
  Ba  Ba16      1.0  0.42400  0.50400  0.99000  1.0000
  S   S1        1.0  0.74500  0.49300  0.07330  1.0000
  S   S2        1.0  0.24500  0.50700  0.07330  1.0000
  S   S3        1.0  0.71100  0.05380  0.09940  1.0000
  S   S4        1.0  0.21100  0.94600  0.09940  1.0000
  S   S5        1.0  0.88400  0.23900  0.15700  1.0000
  S   S6        1.0  0.38400  0.76100  0.15700  1.0000
  S   S7        1.0  0.36800  0.23400  0.15700  1.0000
  S   S8        1.0  0.86800  0.76600  0.15700  1.0000
  S   S9        1.0  0.53900  0.04780  0.20800  1.0000
  S   S10       1.0  0.03910  0.95200  0.20800  1.0000
  S   S11       1.0  0.50200  0.48300  0.24200  1.0000
  S   S12       1.0  0.00160  0.51700  0.24200  1.0000
  S   S13       1.0  0.68000  0.24400  0.35200  1.0000
  S   S14       1.0  0.18000  0.75600  0.35200  1.0000
  S   S15       1.0  0.19700  0.24300  0.38400  1.0000
  S   S16       1.0  0.69700  0.75700  0.38400  1.0000
  S   S17       1.0  0.94900  0.25100  0.42700  1.0000
  S   S18       1.0  0.44900  0.74900  0.42700  1.0000
  S   S19       1.0  0.42600  0.20400  0.47600  1.0000
  S   S20       1.0  0.92600  0.79600  0.47600  1.0000
  S   S21       1.0  0.75500  0.49300  0.57300  1.0000
  S   S22       1.0  0.25500  0.50700  0.57300  1.0000
  S   S23       1.0  0.78900  0.05380  0.59900  1.0000
  S   S24       1.0  0.28900  0.94600  0.59900  1.0000
  S   S25       1.0  0.61600  0.23900  0.65700  1.0000
  S   S26       1.0  0.11600  0.76100  0.65700  1.0000
  S   S27       1.0  0.13200  0.23400  0.65700  1.0000
  S   S28       1.0  0.63200  0.76600  0.65700  1.0000
  S   S29       1.0  0.96100  0.04780  0.70800  1.0000
  S   S30       1.0  0.46100  0.95200  0.70800  1.0000
  S   S31       1.0  0.99800  0.48300  0.74200  1.0000
  S   S32       1.0  0.49800  0.51700  0.74200  1.0000
  S   S33       1.0  0.82000  0.24400  0.85200  1.0000
  S   S34       1.0  0.32000  0.75600  0.85200  1.0000
  S   S35       1.0  0.30300  0.24300  0.88400  1.0000
  S   S36       1.0  0.80300  0.75700  0.88400  1.0000
  S   S37       1.0  0.55100  0.25100  0.92700  1.0000
  S   S38       1.0  0.05110  0.74900  0.92700  1.0000
  S   S39       1.0  0.07410  0.20400  0.97600  1.0000
  S   S40       1.0  0.57400  0.79600  0.97600  1.0000
