data_image0
_chemical_formula_structural       Ca3O8P2
_chemical_formula_sum              "Ca3 O8 P2"
_cell_length_a       5.2258
_cell_length_b       5.22581
_cell_length_c       6.88727
_cell_angle_alpha    90
_cell_angle_beta     112.295
_cell_angle_gamma    60

_space_group_name_H-M_alt    "P 1"
_space_group_IT_number       1

loop_
  _space_group_symop_operation_xyz
  'x, y, z'

loop_
  _atom_site_type_symbol
  _atom_site_label
  _atom_site_symmetry_multiplicity
  _atom_site_fract_x
  _atom_site_fract_y
  _atom_site_fract_z
  _atom_site_occupancy
  Ca  Ca1       1.0  0.00000  0.00000  0.00000  1.0000
  Ca  Ca2       1.0  0.59300  0.20300  0.39000  1.0000
  Ca  Ca3       1.0  0.40700  0.79700  0.61000  1.0000
  O   O1        1.0  0.35500  0.32300  0.03200  1.0000
  O   O2        1.0  0.02790  0.24400  0.29900  1.0000
  O   O3        1.0  0.02790  0.72800  0.29900  1.0000
  O   O4        1.0  0.54300  0.72800  0.29900  1.0000
  O   O5        1.0  0.45700  0.27200  0.70100  1.0000
  O   O6        1.0  0.97200  0.27200  0.70100  1.0000
  O   O7        1.0  0.97200  0.75600  0.70100  1.0000
  O   O8        1.0  0.64500  0.67700  0.96800  1.0000
  P   P1        1.0  0.81000  0.59500  0.21500  1.0000
  P   P2        1.0  0.19000  0.40500  0.78500  1.0000
