data_image0
_chemical_formula_structural       Bi16Se48Sr16
_chemical_formula_sum              "Bi16 Se48 Sr16"
_cell_length_a       33.7334
_cell_length_b       16.0271
_cell_length_c       4.25931
_cell_angle_alpha    90
_cell_angle_beta     90
_cell_angle_gamma    90

_space_group_name_H-M_alt    "P 1"
_space_group_IT_number       1

loop_
  _space_group_symop_operation_xyz
  'x, y, z'

loop_
  _atom_site_type_symbol
  _atom_site_label
  _atom_site_symmetry_multiplicity
  _atom_site_fract_x
  _atom_site_fract_y
  _atom_site_fract_z
  _atom_site_occupancy
  Bi  Bi1       1.0  0.76500  0.38000  0.00430  1.0000
  Bi  Bi2       1.0  0.88900  0.30300  0.00671  1.0000
  Bi  Bi3       1.0  0.64000  0.45200  0.00969  1.0000
  Bi  Bi4       1.0  0.52100  0.55100  0.02010  1.0000
  Bi  Bi5       1.0  0.47900  0.05050  0.48000  1.0000
  Bi  Bi6       1.0  0.36000  0.95200  0.49000  1.0000
  Bi  Bi7       1.0  0.11100  0.80300  0.49300  1.0000
  Bi  Bi8       1.0  0.23500  0.88000  0.49600  1.0000
  Bi  Bi9       1.0  0.73500  0.62000  0.50400  1.0000
  Bi  Bi10      1.0  0.61100  0.69700  0.50700  1.0000
  Bi  Bi11      1.0  0.86000  0.54800  0.51000  1.0000
  Bi  Bi12      1.0  0.97900  0.44900  0.52000  1.0000
  Bi  Bi13      1.0  0.02130  0.94900  0.98000  1.0000
  Bi  Bi14      1.0  0.14000  0.04830  0.99000  1.0000
  Bi  Bi15      1.0  0.38900  0.19700  0.99300  1.0000
  Bi  Bi16      1.0  0.26500  0.12000  0.99600  1.0000
  Se  Se1       1.0  0.28600  0.52200  0.00643  1.0000
  Se  Se2       1.0  0.89700  0.91700  0.00729  1.0000
  Se  Se3       1.0  0.49100  0.38900  0.00890  1.0000
  Se  Se4       1.0  0.86500  0.14300  0.00956  1.0000
  Se  Se5       1.0  0.55800  0.72900  0.01060  1.0000
  Se  Se6       1.0  0.67700  0.64600  0.01690  1.0000
  Se  Se7       1.0  0.74200  0.21800  0.01700  1.0000
  Se  Se8       1.0  0.61300  0.29000  0.02140  1.0000
  Se  Se9       1.0  0.79800  0.58100  0.02710  1.0000
  Se  Se10      1.0  0.91600  0.50600  0.03180  1.0000
  Se  Se11      1.0  0.02800  0.38800  0.04540  1.0000
  Se  Se12      1.0  0.65800  0.05590  0.13300  1.0000
  Se  Se13      1.0  0.34200  0.55600  0.36700  1.0000
  Se  Se14      1.0  0.97200  0.88800  0.45500  1.0000
  Se  Se15      1.0  0.08410  0.00584  0.46800  1.0000
  Se  Se16      1.0  0.20200  0.08110  0.47300  1.0000
  Se  Se17      1.0  0.38700  0.79000  0.47900  1.0000
  Se  Se18      1.0  0.25800  0.71800  0.48300  1.0000
  Se  Se19      1.0  0.32300  0.14600  0.48300  1.0000
  Se  Se20      1.0  0.44200  0.22900  0.48900  1.0000
  Se  Se21      1.0  0.13500  0.64300  0.49000  1.0000
  Se  Se22      1.0  0.50900  0.88900  0.49100  1.0000
  Se  Se23      1.0  0.10300  0.41700  0.49300  1.0000
  Se  Se24      1.0  0.71400  0.02180  0.49400  1.0000
  Se  Se25      1.0  0.21400  0.47800  0.50600  1.0000
  Se  Se26      1.0  0.60300  0.08260  0.50700  1.0000
  Se  Se27      1.0  0.00942  0.61100  0.50900  1.0000
  Se  Se28      1.0  0.63500  0.85700  0.51000  1.0000
  Se  Se29      1.0  0.94200  0.27100  0.51100  1.0000
  Se  Se30      1.0  0.82300  0.35400  0.51700  1.0000
  Se  Se31      1.0  0.75800  0.78200  0.51700  1.0000
  Se  Se32      1.0  0.88700  0.71000  0.52100  1.0000
  Se  Se33      1.0  0.70200  0.41900  0.52700  1.0000
  Se  Se34      1.0  0.58400  0.49400  0.53200  1.0000
  Se  Se35      1.0  0.47200  0.61200  0.54500  1.0000
  Se  Se36      1.0  0.84200  0.94400  0.63300  1.0000
  Se  Se37      1.0  0.15800  0.44400  0.86700  1.0000
  Se  Se38      1.0  0.52800  0.11200  0.95500  1.0000
  Se  Se39      1.0  0.41600  0.99400  0.96800  1.0000
  Se  Se40      1.0  0.29800  0.91900  0.97300  1.0000
  Se  Se41      1.0  0.11300  0.21000  0.97900  1.0000
  Se  Se42      1.0  0.24200  0.28200  0.98300  1.0000
  Se  Se43      1.0  0.17700  0.85400  0.98300  1.0000
  Se  Se44      1.0  0.05780  0.77100  0.98900  1.0000
  Se  Se45      1.0  0.36500  0.35700  0.99000  1.0000
  Se  Se46      1.0  0.99100  0.11100  0.99100  1.0000
  Se  Se47      1.0  0.39700  0.58300  0.99300  1.0000
  Se  Se48      1.0  0.78600  0.97800  0.99400  1.0000
  Sr  Sr1       1.0  0.57700  0.93500  0.00124  1.0000
  Sr  Sr2       1.0  0.70300  0.86900  0.00690  1.0000
  Sr  Sr3       1.0  0.95700  0.70700  0.01590  1.0000
  Sr  Sr4       1.0  0.82700  0.78300  0.03270  1.0000
  Sr  Sr5       1.0  0.17300  0.28300  0.46700  1.0000
  Sr  Sr6       1.0  0.04350  0.20700  0.48400  1.0000
  Sr  Sr7       1.0  0.29700  0.36900  0.49300  1.0000
  Sr  Sr8       1.0  0.42300  0.43500  0.49900  1.0000
  Sr  Sr9       1.0  0.92300  0.06460  0.50100  1.0000
  Sr  Sr10      1.0  0.79700  0.13100  0.50700  1.0000
  Sr  Sr11      1.0  0.54300  0.29300  0.51600  1.0000
  Sr  Sr12      1.0  0.67300  0.21700  0.53300  1.0000
  Sr  Sr13      1.0  0.32700  0.71700  0.96700  1.0000
  Sr  Sr14      1.0  0.45700  0.79300  0.98400  1.0000
  Sr  Sr15      1.0  0.20300  0.63100  0.99300  1.0000
  Sr  Sr16      1.0  0.07670  0.56500  0.99900  1.0000
