data_image0
_chemical_formula_structural       Ba22Sb20
_chemical_formula_sum              "Ba22 Sb20"
_cell_length_a       12.8295
_cell_length_b       13.3695
_cell_length_c       13.5721
_cell_angle_alpha    119.507
_cell_angle_beta     118.206
_cell_angle_gamma    90

_space_group_name_H-M_alt    "P 1"
_space_group_IT_number       1

loop_
  _space_group_symop_operation_xyz
  'x, y, z'

loop_
  _atom_site_type_symbol
  _atom_site_label
  _atom_site_symmetry_multiplicity
  _atom_site_fract_x
  _atom_site_fract_y
  _atom_site_fract_z
  _atom_site_occupancy
  Ba  Ba1       1.0  0.32600  0.33600  0.00000  1.0000
  Ba  Ba2       1.0  0.67400  0.33600  0.00000  1.0000
  Ba  Ba3       1.0  0.32600  0.66400  0.00000  1.0000
  Ba  Ba4       1.0  0.67400  0.66400  0.00000  1.0000
  Ba  Ba5       1.0  0.42800  0.09980  0.20000  1.0000
  Ba  Ba6       1.0  0.77200  0.09980  0.20000  1.0000
  Ba  Ba7       1.0  0.11000  0.43300  0.22000  1.0000
  Ba  Ba8       1.0  0.11000  0.78700  0.22000  1.0000
  Ba  Ba9       1.0  0.14800  0.14800  0.29600  1.0000
  Ba  Ba10      1.0  0.68700  0.43500  0.37400  1.0000
  Ba  Ba11      1.0  0.68700  0.93900  0.37400  1.0000
  Ba  Ba12      1.0  0.44700  0.69600  0.39200  1.0000
  Ba  Ba13      1.0  0.94500  0.69600  0.39200  1.0000
  Ba  Ba14      1.0  0.05450  0.30400  0.60800  1.0000
  Ba  Ba15      1.0  0.55300  0.30400  0.60800  1.0000
  Ba  Ba16      1.0  0.31300  0.06150  0.62600  1.0000
  Ba  Ba17      1.0  0.31300  0.56500  0.62600  1.0000
  Ba  Ba18      1.0  0.85200  0.85200  0.70400  1.0000
  Ba  Ba19      1.0  0.89000  0.21300  0.78000  1.0000
  Ba  Ba20      1.0  0.89000  0.56700  0.78000  1.0000
  Ba  Ba21      1.0  0.22800  0.90000  0.80000  1.0000
  Ba  Ba22      1.0  0.57200  0.90000  0.80000  1.0000
  Sb  Sb1       1.0  0.11000  0.13000  0.00000  1.0000
  Sb  Sb2       1.0  0.89000  0.13000  0.00000  1.0000
  Sb  Sb3       1.0  0.50000  0.15100  0.00000  1.0000
  Sb  Sb4       1.0  0.11500  0.50000  0.00000  1.0000
  Sb  Sb5       1.0  0.88500  0.50000  0.00000  1.0000
  Sb  Sb6       1.0  0.50000  0.84900  0.00000  1.0000
  Sb  Sb7       1.0  0.11000  0.87000  0.00000  1.0000
  Sb  Sb8       1.0  0.89000  0.87000  0.00000  1.0000
  Sb  Sb9       1.0  0.61400  0.61400  0.22700  1.0000
  Sb  Sb10      1.0  0.39800  0.39500  0.36900  1.0000
  Sb  Sb11      1.0  0.97100  0.39500  0.36900  1.0000
  Sb  Sb12      1.0  0.39800  0.97400  0.36900  1.0000
  Sb  Sb13      1.0  0.97100  0.97400  0.36900  1.0000
  Sb  Sb14      1.0  0.74500  0.24500  0.48900  1.0000
  Sb  Sb15      1.0  0.25500  0.75500  0.51100  1.0000
  Sb  Sb16      1.0  0.02910  0.02610  0.63100  1.0000
  Sb  Sb17      1.0  0.60200  0.02610  0.63100  1.0000
  Sb  Sb18      1.0  0.02910  0.60500  0.63100  1.0000
  Sb  Sb19      1.0  0.60200  0.60500  0.63100  1.0000
  Sb  Sb20      1.0  0.38600  0.38600  0.77300  1.0000
