data_image0
_chemical_formula_structural       O28P8Sr8
_chemical_formula_sum              "O28 P8 Sr8"
_cell_length_a       8.85966
_cell_length_b       13.1177
_cell_length_c       5.35528
_cell_angle_alpha    90
_cell_angle_beta     90
_cell_angle_gamma    90

_space_group_name_H-M_alt    "P 1"
_space_group_IT_number       1

loop_
  _space_group_symop_operation_xyz
  'x, y, z'

loop_
  _atom_site_type_symbol
  _atom_site_label
  _atom_site_symmetry_multiplicity
  _atom_site_fract_x
  _atom_site_fract_y
  _atom_site_fract_z
  _atom_site_occupancy
  O   O1        1.0  0.86100  0.66700  0.00011  1.0000
  O   O2        1.0  0.36100  0.83300  0.00011  1.0000
  O   O3        1.0  0.08400  0.73600  0.23400  1.0000
  O   O4        1.0  0.58400  0.76400  0.23400  1.0000
  O   O5        1.0  0.35200  0.57600  0.23700  1.0000
  O   O6        1.0  0.85200  0.92400  0.23700  1.0000
  O   O7        1.0  0.41700  0.23500  0.26200  1.0000
  O   O8        1.0  0.91700  0.26500  0.26200  1.0000
  O   O9        1.0  0.14600  0.07660  0.26800  1.0000
  O   O10       1.0  0.64600  0.42300  0.26800  1.0000
  O   O11       1.0  0.72300  0.58300  0.49900  1.0000
  O   O12       1.0  0.22300  0.91700  0.49900  1.0000
  O   O13       1.0  0.40000  0.06550  0.50000  1.0000
  O   O14       1.0  0.90000  0.43400  0.50000  1.0000
  O   O15       1.0  0.63900  0.16700  0.50000  1.0000
  O   O16       1.0  0.13900  0.33300  0.50000  1.0000
  O   O17       1.0  0.41600  0.23600  0.73400  1.0000
  O   O18       1.0  0.91600  0.26400  0.73400  1.0000
  O   O19       1.0  0.14800  0.07560  0.73700  1.0000
  O   O20       1.0  0.64800  0.42400  0.73700  1.0000
  O   O21       1.0  0.08340  0.73500  0.76200  1.0000
  O   O22       1.0  0.58300  0.76500  0.76200  1.0000
  O   O23       1.0  0.35400  0.57700  0.76800  1.0000
  O   O24       1.0  0.85400  0.92300  0.76800  1.0000
  O   O25       1.0  0.77700  0.08260  0.99900  1.0000
  O   O26       1.0  0.27700  0.41700  0.99900  1.0000
  O   O27       1.0  0.09960  0.56600  0.00000  1.0000
  O   O28       1.0  0.60000  0.93400  0.00000  1.0000
  P   P1        1.0  0.27500  0.53300  0.00068  1.0000
  P   P2        1.0  0.77500  0.96700  0.00068  1.0000
  P   P3        1.0  0.46900  0.18100  0.49900  1.0000
  P   P4        1.0  0.96900  0.31900  0.49900  1.0000
  P   P5        1.0  0.22500  0.03340  0.50100  1.0000
  P   P6        1.0  0.72500  0.46700  0.50100  1.0000
  P   P7        1.0  0.03060  0.68100  0.99900  1.0000
  P   P8        1.0  0.53100  0.81900  0.99900  1.0000
  Sr  Sr1       1.0  0.62200  0.58700  0.00198  1.0000
  Sr  Sr2       1.0  0.12200  0.91300  0.00198  1.0000
  Sr  Sr3       1.0  0.32900  0.73900  0.49900  1.0000
  Sr  Sr4       1.0  0.82900  0.76100  0.49900  1.0000
  Sr  Sr5       1.0  0.87800  0.08750  0.50200  1.0000
  Sr  Sr6       1.0  0.37800  0.41300  0.50200  1.0000
  Sr  Sr7       1.0  0.17100  0.23900  0.99900  1.0000
  Sr  Sr8       1.0  0.67100  0.26100  0.99900  1.0000
