data_image0
_chemical_formula_structural       Ca8O38P12
_chemical_formula_sum              "Ca8 O38 P12"
_cell_length_a       6.80664
_cell_length_b       9.10464
_cell_length_c       12.7375
_cell_angle_alpha    109.478
_cell_angle_beta     99.899
_cell_angle_gamma    91.8727

_space_group_name_H-M_alt    "P 1"
_space_group_IT_number       1

loop_
  _space_group_symop_operation_xyz
  'x, y, z'

loop_
  _atom_site_type_symbol
  _atom_site_label
  _atom_site_symmetry_multiplicity
  _atom_site_fract_x
  _atom_site_fract_y
  _atom_site_fract_z
  _atom_site_occupancy
  Ca  Ca1       1.0  0.35300  0.87300  0.12200  1.0000
  Ca  Ca2       1.0  0.02650  0.18500  0.14900  1.0000
  Ca  Ca3       1.0  0.09670  0.65000  0.33400  1.0000
  Ca  Ca4       1.0  0.81000  0.99300  0.36600  1.0000
  Ca  Ca5       1.0  0.19000  0.00673  0.63400  1.0000
  Ca  Ca6       1.0  0.90300  0.35000  0.66600  1.0000
  Ca  Ca7       1.0  0.97400  0.81500  0.85100  1.0000
  Ca  Ca8       1.0  0.64700  0.12700  0.87800  1.0000
  O   O1        1.0  0.75100  0.65000  0.03470  1.0000
  O   O2        1.0  0.99800  0.88300  0.05430  1.0000
  O   O3        1.0  0.69500  0.18500  0.08230  1.0000
  O   O4        1.0  0.34100  0.62400  0.09450  1.0000
  O   O5        1.0  0.34700  0.13300  0.11900  1.0000
  O   O6        1.0  0.49600  0.40900  0.14700  1.0000
  O   O7        1.0  0.12500  0.43400  0.15100  1.0000
  O   O8        1.0  0.71100  0.91400  0.16400  1.0000
  O   O9        1.0  0.00990  0.77300  0.21100  1.0000
  O   O10       1.0  0.61200  0.26800  0.28400  1.0000
  O   O11       1.0  0.10900  0.09680  0.29800  1.0000
  O   O12       1.0  0.43900  0.96900  0.31900  1.0000
  O   O13       1.0  0.95400  0.40700  0.32100  1.0000
  O   O14       1.0  0.42000  0.61500  0.34700  1.0000
  O   O15       1.0  0.77900  0.73400  0.36800  1.0000
  O   O16       1.0  0.17800  0.96400  0.44200  1.0000
  O   O17       1.0  0.71000  0.52300  0.45200  1.0000
  O   O18       1.0  0.84500  0.27600  0.45800  1.0000
  O   O19       1.0  0.39600  0.21400  0.46400  1.0000
  O   O20       1.0  0.60400  0.78600  0.53600  1.0000
  O   O21       1.0  0.15500  0.72400  0.54200  1.0000
  O   O22       1.0  0.29000  0.47700  0.54800  1.0000
  O   O23       1.0  0.82200  0.03610  0.55800  1.0000
  O   O24       1.0  0.22100  0.26600  0.63200  1.0000
  O   O25       1.0  0.58000  0.38500  0.65300  1.0000
  O   O26       1.0  0.04580  0.59300  0.67900  1.0000
  O   O27       1.0  0.56100  0.03100  0.68100  1.0000
  O   O28       1.0  0.89100  0.90300  0.70200  1.0000
  O   O29       1.0  0.38800  0.73200  0.71600  1.0000
  O   O30       1.0  0.99000  0.22700  0.78900  1.0000
  O   O31       1.0  0.28900  0.08600  0.83600  1.0000
  O   O32       1.0  0.87500  0.56600  0.84900  1.0000
  O   O33       1.0  0.50400  0.59100  0.85300  1.0000
  O   O34       1.0  0.65300  0.86700  0.88100  1.0000
  O   O35       1.0  0.65900  0.37600  0.90600  1.0000
  O   O36       1.0  0.30500  0.81500  0.91800  1.0000
  O   O37       1.0  0.00183  0.11700  0.94600  1.0000
  O   O38       1.0  0.24900  0.35000  0.96500  1.0000
  P   P1        1.0  0.28900  0.46500  0.09340  1.0000
  P   P2        1.0  0.87400  0.81200  0.11900  1.0000
  P   P3        1.0  0.53600  0.24100  0.15100  1.0000
  P   P4        1.0  0.27300  0.05070  0.37500  1.0000
  P   P5        1.0  0.79800  0.36900  0.38100  1.0000
  P   P6        1.0  0.62400  0.66900  0.41600  1.0000
  P   P7        1.0  0.37600  0.33100  0.58400  1.0000
  P   P8        1.0  0.20200  0.63100  0.61900  1.0000
  P   P9        1.0  0.72700  0.94900  0.62500  1.0000
  P   P10       1.0  0.46400  0.75900  0.84900  1.0000
  P   P11       1.0  0.12600  0.18800  0.88100  1.0000
  P   P12       1.0  0.71100  0.53500  0.90700  1.0000
