data_image0
_chemical_formula_structural       O24P8Sr4
_chemical_formula_sum              "O24 P8 Sr4"
_cell_length_a       4.46512
_cell_length_b       10.817
_cell_length_c       10.3047
_cell_angle_alpha    90
_cell_angle_beta     91.6346
_cell_angle_gamma    90

_space_group_name_H-M_alt    "P 1"
_space_group_IT_number       1

loop_
  _space_group_symop_operation_xyz
  'x, y, z'

loop_
  _atom_site_type_symbol
  _atom_site_label
  _atom_site_symmetry_multiplicity
  _atom_site_fract_x
  _atom_site_fract_y
  _atom_site_fract_z
  _atom_site_occupancy
  O   O1        1.0  0.50400  0.75500  0.11400  1.0000
  O   O2        1.0  0.04340  0.98600  0.13900  1.0000
  O   O3        1.0  0.02450  0.37700  0.14200  1.0000
  O   O4        1.0  0.53000  0.17200  0.15000  1.0000
  O   O5        1.0  0.59700  0.52500  0.16600  1.0000
  O   O6        1.0  0.09400  0.61300  0.16700  1.0000
  O   O7        1.0  0.90600  0.11300  0.33300  1.0000
  O   O8        1.0  0.40300  0.02480  0.33400  1.0000
  O   O9        1.0  0.47000  0.67200  0.35000  1.0000
  O   O10       1.0  0.97500  0.87700  0.35800  1.0000
  O   O11       1.0  0.95700  0.48600  0.36100  1.0000
  O   O12       1.0  0.49600  0.25500  0.38600  1.0000
  O   O13       1.0  0.50400  0.74500  0.61400  1.0000
  O   O14       1.0  0.04340  0.51400  0.63900  1.0000
  O   O15       1.0  0.02450  0.12300  0.64200  1.0000
  O   O16       1.0  0.53000  0.32800  0.65000  1.0000
  O   O17       1.0  0.59700  0.97500  0.66600  1.0000
  O   O18       1.0  0.09410  0.88700  0.66700  1.0000
  O   O19       1.0  0.90600  0.38700  0.83300  1.0000
  O   O20       1.0  0.40300  0.47500  0.83400  1.0000
  O   O21       1.0  0.47000  0.82800  0.85000  1.0000
  O   O22       1.0  0.97500  0.62300  0.85800  1.0000
  O   O23       1.0  0.95700  0.01410  0.86100  1.0000
  O   O24       1.0  0.49600  0.24500  0.88600  1.0000
  P   P1        1.0  0.43400  0.65200  0.20600  1.0000
  P   P2        1.0  0.92800  0.48600  0.21500  1.0000
  P   P3        1.0  0.07160  0.98600  0.28500  1.0000
  P   P4        1.0  0.56600  0.15200  0.29400  1.0000
  P   P5        1.0  0.43400  0.84800  0.70600  1.0000
  P   P6        1.0  0.92800  0.01380  0.71500  1.0000
  P   P7        1.0  0.07160  0.51400  0.78500  1.0000
  P   P8        1.0  0.56600  0.34800  0.79400  1.0000
  Sr  Sr1       1.0  0.02940  0.19100  0.01310  1.0000
  Sr  Sr2       1.0  0.97100  0.69100  0.48700  1.0000
  Sr  Sr3       1.0  0.02940  0.30900  0.51300  1.0000
  Sr  Sr4       1.0  0.97100  0.80900  0.98700  1.0000
