data_image0
_chemical_formula_structural       S68Sb24Sr24
_chemical_formula_sum              "S68 Sb24 Sr24"
_cell_length_a       8.33015
_cell_length_b       15.5758
_cell_length_c       23.0616
_cell_angle_alpha    90
_cell_angle_beta     89.9997
_cell_angle_gamma    90

_space_group_name_H-M_alt    "P 1"
_space_group_IT_number       1

loop_
  _space_group_symop_operation_xyz
  'x, y, z'

loop_
  _atom_site_type_symbol
  _atom_site_label
  _atom_site_symmetry_multiplicity
  _atom_site_fract_x
  _atom_site_fract_y
  _atom_site_fract_z
  _atom_site_occupancy
  S   S1        1.0  0.36100  0.75100  0.00113  1.0000
  S   S2        1.0  0.28200  0.37700  0.00603  1.0000
  S   S3        1.0  0.72000  0.37800  0.00738  1.0000
  S   S4        1.0  0.00613  0.56500  0.05060  1.0000
  S   S5        1.0  0.50600  0.57100  0.05290  1.0000
  S   S6        1.0  0.99500  0.79300  0.07010  1.0000
  S   S7        1.0  0.49800  0.79400  0.07150  1.0000
  S   S8        1.0  0.00262  0.03140  0.11800  1.0000
  S   S9        1.0  0.50300  0.02350  0.12100  1.0000
  S   S10       1.0  0.72600  0.22400  0.15200  1.0000
  S   S11       1.0  0.28800  0.22600  0.15600  1.0000
  S   S12       1.0  0.76400  0.47200  0.16300  1.0000
  S   S13       1.0  0.24200  0.47500  0.16600  1.0000
  S   S14       1.0  0.21300  0.84800  0.18700  1.0000
  S   S15       1.0  0.74800  0.84100  0.19600  1.0000
  S   S16       1.0  0.49900  0.64500  0.21800  1.0000
  S   S17       1.0  0.99800  0.65000  0.22100  1.0000
  S   S18       1.0  0.00228  0.15000  0.27900  1.0000
  S   S19       1.0  0.50100  0.14500  0.28200  1.0000
  S   S20       1.0  0.25200  0.34100  0.30400  1.0000
  S   S21       1.0  0.78700  0.34800  0.31300  1.0000
  S   S22       1.0  0.75800  0.97500  0.33400  1.0000
  S   S23       1.0  0.23600  0.97200  0.33700  1.0000
  S   S24       1.0  0.71200  0.72600  0.34400  1.0000
  S   S25       1.0  0.27400  0.72400  0.34800  1.0000
  S   S26       1.0  0.49700  0.52400  0.37900  1.0000
  S   S27       1.0  0.99700  0.53100  0.38200  1.0000
  S   S28       1.0  0.50200  0.29400  0.42900  1.0000
  S   S29       1.0  0.00515  0.29300  0.43000  1.0000
  S   S30       1.0  0.49400  0.07060  0.44700  1.0000
  S   S31       1.0  0.99400  0.06460  0.44900  1.0000
  S   S32       1.0  0.28000  0.87800  0.49300  1.0000
  S   S33       1.0  0.71800  0.87700  0.49400  1.0000
  S   S34       1.0  0.63900  0.25100  0.49900  1.0000
  S   S35       1.0  0.13900  0.24900  0.50100  1.0000
  S   S36       1.0  0.21800  0.62300  0.50600  1.0000
  S   S37       1.0  0.78000  0.62200  0.50700  1.0000
  S   S38       1.0  0.49400  0.43500  0.55100  1.0000
  S   S39       1.0  0.99400  0.42900  0.55300  1.0000
  S   S40       1.0  0.50500  0.20700  0.57000  1.0000
  S   S41       1.0  0.00194  0.20600  0.57100  1.0000
  S   S42       1.0  0.49700  0.96900  0.61800  1.0000
  S   S43       1.0  0.99700  0.97600  0.62100  1.0000
  S   S44       1.0  0.77400  0.77600  0.65200  1.0000
  S   S45       1.0  0.21200  0.77400  0.65600  1.0000
  S   S46       1.0  0.73600  0.52800  0.66300  1.0000
  S   S47       1.0  0.25800  0.52500  0.66600  1.0000
  S   S48       1.0  0.28700  0.15200  0.68700  1.0000
  S   S49       1.0  0.75200  0.15900  0.69600  1.0000
  S   S50       1.0  0.00106  0.35500  0.71800  1.0000
  S   S51       1.0  0.50200  0.35000  0.72100  1.0000
  S   S52       1.0  0.49800  0.85000  0.77900  1.0000
  S   S53       1.0  0.99900  0.85500  0.78200  1.0000
  S   S54       1.0  0.24800  0.65900  0.80400  1.0000
  S   S55       1.0  0.71300  0.65200  0.81300  1.0000
  S   S56       1.0  0.74200  0.02530  0.83400  1.0000
  S   S57       1.0  0.26400  0.02800  0.83700  1.0000
  S   S58       1.0  0.78800  0.27400  0.84400  1.0000
  S   S59       1.0  0.22600  0.27600  0.84800  1.0000
  S   S60       1.0  0.00258  0.47600  0.87900  1.0000
  S   S61       1.0  0.50300  0.46900  0.88200  1.0000
  S   S62       1.0  0.99800  0.70600  0.92900  1.0000
  S   S63       1.0  0.49500  0.70700  0.93000  1.0000
  S   S64       1.0  0.00613  0.92900  0.94700  1.0000
  S   S65       1.0  0.50600  0.93500  0.94900  1.0000
  S   S66       1.0  0.22000  0.12200  0.99300  1.0000
  S   S67       1.0  0.78200  0.12300  0.99400  1.0000
  S   S68       1.0  0.86100  0.74900  0.99900  1.0000
  Sb  Sb1       1.0  0.99700  0.16800  0.06170  1.0000
  Sb  Sb2       1.0  0.50900  0.17600  0.08670  1.0000
  Sb  Sb3       1.0  0.51800  0.42400  0.08880  1.0000
  Sb  Sb4       1.0  0.01090  0.43000  0.10600  1.0000
  Sb  Sb5       1.0  0.48900  0.28500  0.23100  1.0000
  Sb  Sb6       1.0  0.00312  0.30200  0.24700  1.0000
  Sb  Sb7       1.0  0.99700  0.80200  0.25300  1.0000
  Sb  Sb8       1.0  0.51100  0.78500  0.26900  1.0000
  Sb  Sb9       1.0  0.98900  0.93000  0.39400  1.0000
  Sb  Sb10      1.0  0.48200  0.92400  0.41100  1.0000
  Sb  Sb11      1.0  0.49100  0.67600  0.41300  1.0000
  Sb  Sb12      1.0  0.00288  0.66800  0.43800  1.0000
  Sb  Sb13      1.0  0.50300  0.83200  0.56200  1.0000
  Sb  Sb14      1.0  0.99100  0.82400  0.58700  1.0000
  Sb  Sb15      1.0  0.98200  0.57600  0.58900  1.0000
  Sb  Sb16      1.0  0.48900  0.57000  0.60600  1.0000
  Sb  Sb17      1.0  0.01130  0.71500  0.73100  1.0000
  Sb  Sb18      1.0  0.49700  0.69800  0.74700  1.0000
  Sb  Sb19      1.0  0.50300  0.19800  0.75300  1.0000
  Sb  Sb20      1.0  0.98900  0.21500  0.76900  1.0000
  Sb  Sb21      1.0  0.51100  0.07050  0.89400  1.0000
  Sb  Sb22      1.0  0.01760  0.07640  0.91100  1.0000
  Sb  Sb23      1.0  0.00930  0.32400  0.91300  1.0000
  Sb  Sb24      1.0  0.49700  0.33200  0.93800  1.0000
  Sr  Sr1       1.0  0.75600  0.94000  0.04310  1.0000
  Sr  Sr2       1.0  0.25000  0.93800  0.04460  1.0000
  Sr  Sr3       1.0  0.75500  0.66400  0.12400  1.0000
  Sr  Sr4       1.0  0.24800  0.66500  0.12500  1.0000
  Sr  Sr5       1.0  0.75300  0.04960  0.21300  1.0000
  Sr  Sr6       1.0  0.25000  0.04600  0.21300  1.0000
  Sr  Sr7       1.0  0.75000  0.54600  0.28700  1.0000
  Sr  Sr8       1.0  0.24700  0.55000  0.28700  1.0000
  Sr  Sr9       1.0  0.75200  0.16500  0.37500  1.0000
  Sr  Sr10      1.0  0.24500  0.16400  0.37600  1.0000
  Sr  Sr11      1.0  0.75000  0.43800  0.45500  1.0000
  Sr  Sr12      1.0  0.24400  0.44000  0.45700  1.0000
  Sr  Sr13      1.0  0.74400  0.06020  0.54300  1.0000
  Sr  Sr14      1.0  0.25000  0.06190  0.54500  1.0000
  Sr  Sr15      1.0  0.74500  0.33600  0.62400  1.0000
  Sr  Sr16      1.0  0.25200  0.33500  0.62500  1.0000
  Sr  Sr17      1.0  0.74700  0.95000  0.71300  1.0000
  Sr  Sr18      1.0  0.25000  0.95400  0.71300  1.0000
  Sr  Sr19      1.0  0.75000  0.45400  0.78700  1.0000
  Sr  Sr20      1.0  0.25300  0.45000  0.78700  1.0000
  Sr  Sr21      1.0  0.74800  0.83500  0.87500  1.0000
  Sr  Sr22      1.0  0.25500  0.83600  0.87600  1.0000
  Sr  Sr23      1.0  0.75000  0.56200  0.95500  1.0000
  Sr  Sr24      1.0  0.25600  0.56000  0.95700  1.0000
