data_image0
_chemical_formula_structural       O72P16
_chemical_formula_sum              "O72 P16"
_cell_length_a       8.80185
_cell_length_b       13.592
_cell_length_c       7.98993
_cell_angle_alpha    90
_cell_angle_beta     90
_cell_angle_gamma    90

_space_group_name_H-M_alt    "P 1"
_space_group_IT_number       1

loop_
  _space_group_symop_operation_xyz
  'x, y, z'

loop_
  _atom_site_type_symbol
  _atom_site_label
  _atom_site_symmetry_multiplicity
  _atom_site_fract_x
  _atom_site_fract_y
  _atom_site_fract_z
  _atom_site_occupancy
  O   O1        1.0  0.73400  0.12100  0.02760  1.0000
  O   O2        1.0  0.40900  0.88600  0.03700  1.0000
  O   O3        1.0  0.45800  0.10700  0.05390  1.0000
  O   O4        1.0  0.52900  0.81600  0.08330  1.0000
  O   O5        1.0  0.28700  0.81900  0.08900  1.0000
  O   O6        1.0  0.86100  0.98000  0.09790  1.0000
  O   O7        1.0  0.60900  0.47300  0.11900  1.0000
  O   O8        1.0  0.57800  0.26700  0.13300  1.0000
  O   O9        1.0  0.53700  0.65400  0.14400  1.0000
  O   O10       1.0  0.94700  0.27600  0.14600  1.0000
  O   O11       1.0  0.10500  0.53700  0.15900  1.0000
  O   O12       1.0  0.77000  0.48200  0.16000  1.0000
  O   O13       1.0  0.18800  0.26000  0.16300  1.0000
  O   O14       1.0  0.26400  0.66300  0.17700  1.0000
  O   O15       1.0  0.25800  0.04970  0.20100  1.0000
  O   O16       1.0  0.61000  0.00563  0.24100  1.0000
  O   O17       1.0  0.95600  0.95600  0.24100  1.0000
  O   O18       1.0  0.94500  0.72300  0.24600  1.0000
  O   O19       1.0  0.05520  0.22300  0.25400  1.0000
  O   O20       1.0  0.04360  0.45600  0.25900  1.0000
  O   O21       1.0  0.39000  0.50600  0.25900  1.0000
  O   O22       1.0  0.74200  0.55000  0.29900  1.0000
  O   O23       1.0  0.73600  0.16300  0.32300  1.0000
  O   O24       1.0  0.81200  0.76000  0.33700  1.0000
  O   O25       1.0  0.23000  0.98200  0.34000  1.0000
  O   O26       1.0  0.89500  0.03710  0.34100  1.0000
  O   O27       1.0  0.05270  0.77600  0.35400  1.0000
  O   O28       1.0  0.46300  0.15400  0.35600  1.0000
  O   O29       1.0  0.42200  0.76700  0.36700  1.0000
  O   O30       1.0  0.39100  0.97300  0.38100  1.0000
  O   O31       1.0  0.13900  0.48000  0.40200  1.0000
  O   O32       1.0  0.71300  0.31900  0.41100  1.0000
  O   O33       1.0  0.47100  0.31600  0.41700  1.0000
  O   O34       1.0  0.54200  0.60700  0.44600  1.0000
  O   O35       1.0  0.59100  0.38600  0.46300  1.0000
  O   O36       1.0  0.26600  0.62100  0.47200  1.0000
  O   O37       1.0  0.76600  0.87900  0.52800  1.0000
  O   O38       1.0  0.09130  0.11400  0.53700  1.0000
  O   O39       1.0  0.04170  0.89300  0.55400  1.0000
  O   O40       1.0  0.97100  0.18400  0.58300  1.0000
  O   O41       1.0  0.21300  0.18100  0.58900  1.0000
  O   O42       1.0  0.63900  0.02030  0.59800  1.0000
  O   O43       1.0  0.89100  0.52700  0.61900  1.0000
  O   O44       1.0  0.92200  0.73300  0.63300  1.0000
  O   O45       1.0  0.96300  0.34600  0.64400  1.0000
  O   O46       1.0  0.55300  0.72400  0.64600  1.0000
  O   O47       1.0  0.39500  0.46300  0.65900  1.0000
  O   O48       1.0  0.73000  0.51800  0.66000  1.0000
  O   O49       1.0  0.31200  0.74000  0.66300  1.0000
  O   O50       1.0  0.23600  0.33700  0.67700  1.0000
  O   O51       1.0  0.24200  0.95000  0.70100  1.0000
  O   O52       1.0  0.89000  0.99400  0.74100  1.0000
  O   O53       1.0  0.54400  0.04390  0.74100  1.0000
  O   O54       1.0  0.55500  0.27700  0.74600  1.0000
  O   O55       1.0  0.44500  0.77700  0.75400  1.0000
  O   O56       1.0  0.45600  0.54400  0.75900  1.0000
  O   O57       1.0  0.11000  0.49400  0.75900  1.0000
  O   O58       1.0  0.75800  0.45000  0.79900  1.0000
  O   O59       1.0  0.76400  0.83700  0.82300  1.0000
  O   O60       1.0  0.68800  0.24000  0.83700  1.0000
  O   O61       1.0  0.27000  0.01790  0.84000  1.0000
  O   O62       1.0  0.60500  0.96300  0.84100  1.0000
  O   O63       1.0  0.44700  0.22400  0.85400  1.0000
  O   O64       1.0  0.03670  0.84600  0.85600  1.0000
  O   O65       1.0  0.07800  0.23300  0.86700  1.0000
  O   O66       1.0  0.10900  0.02700  0.88100  1.0000
  O   O67       1.0  0.36100  0.52000  0.90200  1.0000
  O   O68       1.0  0.78700  0.68100  0.91100  1.0000
  O   O69       1.0  0.02900  0.68400  0.91700  1.0000
  O   O70       1.0  0.95800  0.39300  0.94600  1.0000
  O   O71       1.0  0.90900  0.61400  0.96300  1.0000
  O   O72       1.0  0.23400  0.37900  0.97200  1.0000
  P   P1        1.0  0.08150  0.31300  0.01650  1.0000
  P   P2        1.0  0.40700  0.73900  0.17200  1.0000
  P   P3        1.0  0.76300  0.06550  0.20400  1.0000
  P   P4        1.0  0.44100  0.05720  0.24100  1.0000
  P   P5        1.0  0.55900  0.55700  0.25900  1.0000
  P   P6        1.0  0.23700  0.56500  0.29600  1.0000
  P   P7        1.0  0.59300  0.23900  0.32800  1.0000
  P   P8        1.0  0.91800  0.81300  0.48400  1.0000
  P   P9        1.0  0.41800  0.68700  0.51600  1.0000
  P   P10       1.0  0.09310  0.26100  0.67200  1.0000
  P   P11       1.0  0.73700  0.93500  0.70400  1.0000
  P   P12       1.0  0.05910  0.94300  0.74100  1.0000
  P   P13       1.0  0.94100  0.44300  0.75900  1.0000
  P   P14       1.0  0.26300  0.43500  0.79600  1.0000
  P   P15       1.0  0.90700  0.76100  0.82800  1.0000
  P   P16       1.0  0.58200  0.18700  0.98400  1.0000
