data_image0
_chemical_formula_structural       Bi24Se21
_chemical_formula_sum              "Bi24 Se21"
_cell_length_a       4.27064
_cell_length_b       4.27037
_cell_length_c       86.5664
_cell_angle_alpha    90
_cell_angle_beta     90.0156
_cell_angle_gamma    119.998

_space_group_name_H-M_alt    "P 1"
_space_group_IT_number       1

loop_
  _space_group_symop_operation_xyz
  'x, y, z'

loop_
  _atom_site_type_symbol
  _atom_site_label
  _atom_site_symmetry_multiplicity
  _atom_site_fract_x
  _atom_site_fract_y
  _atom_site_fract_z
  _atom_site_occupancy
  Bi  Bi1       1.0  0.33300  0.66700  0.02150  1.0000
  Bi  Bi2       1.0  0.00011  0.00000  0.06790  1.0000
  Bi  Bi3       1.0  0.33300  0.66700  0.08840  1.0000
  Bi  Bi4       1.0  0.00000  0.00000  0.13500  1.0000
  Bi  Bi5       1.0  0.66700  0.33300  0.17900  1.0000
  Bi  Bi6       1.0  0.66700  0.33300  0.24300  1.0000
  Bi  Bi7       1.0  0.33300  0.66700  0.28600  1.0000
  Bi  Bi8       1.0  0.00010  0.00000  0.33300  1.0000
  Bi  Bi9       1.0  0.33300  0.66700  0.35300  1.0000
  Bi  Bi10      1.0  0.00000  0.00000  0.40000  1.0000
  Bi  Bi11      1.0  0.66700  0.33300  0.44300  1.0000
  Bi  Bi12      1.0  0.33300  0.66700  0.49000  1.0000
  Bi  Bi13      1.0  0.66700  0.33300  0.51000  1.0000
  Bi  Bi14      1.0  0.33300  0.66700  0.55700  1.0000
  Bi  Bi15      1.0  0.00000  0.00000  0.60000  1.0000
  Bi  Bi16      1.0  0.66700  0.33300  0.64700  1.0000
  Bi  Bi17      1.0  0.00000  0.00000  0.66700  1.0000
  Bi  Bi18      1.0  0.66700  0.33300  0.71400  1.0000
  Bi  Bi19      1.0  0.33300  0.66700  0.75700  1.0000
  Bi  Bi20      1.0  0.33300  0.66700  0.82100  1.0000
  Bi  Bi21      1.0  0.00000  0.00000  0.86500  1.0000
  Bi  Bi22      1.0  0.66700  0.33300  0.91200  1.0000
  Bi  Bi23      1.0  0.00000  0.00000  0.93200  1.0000
  Bi  Bi24      1.0  0.66700  0.33300  0.97800  1.0000
  Se  Se1       1.0  0.00000  0.00000  0.00000  1.0000
  Se  Se2       1.0  0.66700  0.33300  0.03930  1.0000
  Se  Se3       1.0  0.66700  0.33300  0.11700  1.0000
  Se  Se4       1.0  0.33300  0.66700  0.15700  1.0000
  Se  Se5       1.0  0.00000  0.00000  0.19600  1.0000
  Se  Se6       1.0  0.33300  0.66700  0.22500  1.0000
  Se  Se7       1.0  0.00000  0.00000  0.26500  1.0000
  Se  Se8       1.0  0.66700  0.33300  0.30400  1.0000
  Se  Se9       1.0  0.66700  0.33300  0.38200  1.0000
  Se  Se10      1.0  0.33300  0.66700  0.42200  1.0000
  Se  Se11      1.0  0.00000  0.00000  0.46100  1.0000
  Se  Se12      1.0  0.00011  0.00000  0.53900  1.0000
  Se  Se13      1.0  0.66700  0.33300  0.57800  1.0000
  Se  Se14      1.0  0.33300  0.66700  0.61800  1.0000
  Se  Se15      1.0  0.33300  0.66700  0.69600  1.0000
  Se  Se16      1.0  0.00000  0.00000  0.73500  1.0000
  Se  Se17      1.0  0.66700  0.33300  0.77500  1.0000
  Se  Se18      1.0  0.00000  0.00000  0.80400  1.0000
  Se  Se19      1.0  0.66700  0.33300  0.84300  1.0000
  Se  Se20      1.0  0.33300  0.66700  0.88300  1.0000
  Se  Se21      1.0  0.33300  0.66700  0.96100  1.0000
