data_image0
_chemical_formula_structural       Ba16Sb16Se44
_chemical_formula_sum              "Ba16 Sb16 Se44"
_cell_length_a       9.08788
_cell_length_b       28.1095
_cell_length_c       9.27209
_cell_angle_alpha    90
_cell_angle_beta     90
_cell_angle_gamma    90

_space_group_name_H-M_alt    "P 1"
_space_group_IT_number       1

loop_
  _space_group_symop_operation_xyz
  'x, y, z'

loop_
  _atom_site_type_symbol
  _atom_site_label
  _atom_site_symmetry_multiplicity
  _atom_site_fract_x
  _atom_site_fract_y
  _atom_site_fract_z
  _atom_site_occupancy
  Ba  Ba1       1.0  0.84500  0.44100  0.24700  1.0000
  Ba  Ba2       1.0  0.15500  0.55900  0.24700  1.0000
  Ba  Ba3       1.0  0.06620  0.20900  0.24800  1.0000
  Ba  Ba4       1.0  0.93400  0.79100  0.24800  1.0000
  Ba  Ba5       1.0  0.56600  0.29100  0.25200  1.0000
  Ba  Ba6       1.0  0.43400  0.70900  0.25200  1.0000
  Ba  Ba7       1.0  0.34500  0.05870  0.25300  1.0000
  Ba  Ba8       1.0  0.65500  0.94100  0.25300  1.0000
  Ba  Ba9       1.0  0.34500  0.05870  0.74700  1.0000
  Ba  Ba10      1.0  0.65500  0.94100  0.74700  1.0000
  Ba  Ba11      1.0  0.56600  0.29100  0.74800  1.0000
  Ba  Ba12      1.0  0.43400  0.70900  0.74800  1.0000
  Ba  Ba13      1.0  0.06620  0.20900  0.75200  1.0000
  Ba  Ba14      1.0  0.93400  0.79100  0.75200  1.0000
  Ba  Ba15      1.0  0.84500  0.44100  0.75300  1.0000
  Ba  Ba16      1.0  0.15500  0.55900  0.75300  1.0000
  Sb  Sb1       1.0  0.96100  0.07210  0.00000  1.0000
  Sb  Sb2       1.0  0.63100  0.15700  0.00000  1.0000
  Sb  Sb3       1.0  0.13700  0.34000  0.00000  1.0000
  Sb  Sb4       1.0  0.41600  0.43600  0.00000  1.0000
  Sb  Sb5       1.0  0.58400  0.56400  0.00000  1.0000
  Sb  Sb6       1.0  0.86300  0.66000  0.00000  1.0000
  Sb  Sb7       1.0  0.36900  0.84300  0.00000  1.0000
  Sb  Sb8       1.0  0.03930  0.92800  0.00000  1.0000
  Sb  Sb9       1.0  0.91600  0.06440  0.50000  1.0000
  Sb  Sb10      1.0  0.63700  0.16000  0.50000  1.0000
  Sb  Sb11      1.0  0.13100  0.34300  0.50000  1.0000
  Sb  Sb12      1.0  0.46100  0.42800  0.50000  1.0000
  Sb  Sb13      1.0  0.53900  0.57200  0.50000  1.0000
  Sb  Sb14      1.0  0.86900  0.65700  0.50000  1.0000
  Sb  Sb15      1.0  0.36300  0.84000  0.50000  1.0000
  Sb  Sb16      1.0  0.08420  0.93600  0.50000  1.0000
  Se  Se1       1.0  0.60000  0.02860  0.00000  1.0000
  Se  Se2       1.0  0.19500  0.12600  0.00000  1.0000
  Se  Se3       1.0  0.77400  0.23600  0.00000  1.0000
  Se  Se4       1.0  0.29000  0.26100  0.00000  1.0000
  Se  Se5       1.0  0.64900  0.38100  0.00000  1.0000
  Se  Se6       1.0  0.09840  0.46900  0.00000  1.0000
  Se  Se7       1.0  0.90200  0.53100  0.00000  1.0000
  Se  Se8       1.0  0.35100  0.61900  0.00000  1.0000
  Se  Se9       1.0  0.71000  0.73900  0.00000  1.0000
  Se  Se10      1.0  0.22600  0.76400  0.00000  1.0000
  Se  Se11      1.0  0.80500  0.87400  0.00000  1.0000
  Se  Se12      1.0  0.40000  0.97100  0.00000  1.0000
  Se  Se13      1.0  0.50000  0.50000  0.20300  1.0000
  Se  Se14      1.0  0.82000  0.11700  0.20700  1.0000
  Se  Se15      1.0  0.18000  0.88300  0.20700  1.0000
  Se  Se16      1.0  0.96000  0.32500  0.22300  1.0000
  Se  Se17      1.0  0.03970  0.67500  0.22300  1.0000
  Se  Se18      1.0  0.46000  0.17500  0.27700  1.0000
  Se  Se19      1.0  0.54000  0.82500  0.27700  1.0000
  Se  Se20      1.0  0.32000  0.38300  0.29300  1.0000
  Se  Se21      1.0  0.68000  0.61700  0.29300  1.0000
  Se  Se22      1.0  0.00000  0.00000  0.29700  1.0000
  Se  Se23      1.0  0.59800  0.03060  0.50000  1.0000
  Se  Se24      1.0  0.14900  0.11900  0.50000  1.0000
  Se  Se25      1.0  0.79000  0.23900  0.50000  1.0000
  Se  Se26      1.0  0.27400  0.26400  0.50000  1.0000
  Se  Se27      1.0  0.69500  0.37400  0.50000  1.0000
  Se  Se28      1.0  0.09980  0.47100  0.50000  1.0000
  Se  Se29      1.0  0.90000  0.52900  0.50000  1.0000
  Se  Se30      1.0  0.30500  0.62600  0.50000  1.0000
  Se  Se31      1.0  0.72600  0.73600  0.50000  1.0000
  Se  Se32      1.0  0.21000  0.76100  0.50000  1.0000
  Se  Se33      1.0  0.85100  0.88100  0.50000  1.0000
  Se  Se34      1.0  0.40200  0.96900  0.50000  1.0000
  Se  Se35      1.0  0.00000  0.00000  0.70300  1.0000
  Se  Se36      1.0  0.32000  0.38300  0.70700  1.0000
  Se  Se37      1.0  0.68000  0.61700  0.70700  1.0000
  Se  Se38      1.0  0.46000  0.17500  0.72300  1.0000
  Se  Se39      1.0  0.54000  0.82500  0.72300  1.0000
  Se  Se40      1.0  0.96000  0.32500  0.77700  1.0000
  Se  Se41      1.0  0.03970  0.67500  0.77700  1.0000
  Se  Se42      1.0  0.82000  0.11700  0.79300  1.0000
  Se  Se43      1.0  0.18000  0.88300  0.79300  1.0000
  Se  Se44      1.0  0.50000  0.50000  0.79700  1.0000
