data_image0
_chemical_formula_structural       S36Sb16Sr12
_chemical_formula_sum              "S36 Sb16 Sr12"
_cell_length_a       16.6794
_cell_length_b       24.3575
_cell_length_c       4.0532
_cell_angle_alpha    90
_cell_angle_beta     90
_cell_angle_gamma    90

_space_group_name_H-M_alt    "P 1"
_space_group_IT_number       1

loop_
  _space_group_symop_operation_xyz
  'x, y, z'

loop_
  _atom_site_type_symbol
  _atom_site_label
  _atom_site_symmetry_multiplicity
  _atom_site_fract_x
  _atom_site_fract_y
  _atom_site_fract_z
  _atom_site_occupancy
  S   S1        1.0  0.29900  0.22700  0.24600  1.0000
  S   S2        1.0  0.79900  0.27300  0.24600  1.0000
  S   S3        1.0  0.75600  0.03170  0.25200  1.0000
  S   S4        1.0  0.25600  0.46800  0.25200  1.0000
  S   S5        1.0  0.25200  0.09420  0.25300  1.0000
  S   S6        1.0  0.75200  0.40600  0.25300  1.0000
  S   S7        1.0  0.04280  0.20000  0.25600  1.0000
  S   S8        1.0  0.54300  0.30000  0.25600  1.0000
  S   S9        1.0  0.45200  0.13800  0.26400  1.0000
  S   S10       1.0  0.95200  0.36200  0.26400  1.0000
  S   S11       1.0  0.43500  0.57200  0.26800  1.0000
  S   S12       1.0  0.93500  0.92800  0.26800  1.0000
  S   S13       1.0  0.93900  0.53700  0.26900  1.0000
  S   S14       1.0  0.43900  0.96300  0.26900  1.0000
  S   S15       1.0  0.63100  0.65200  0.27300  1.0000
  S   S16       1.0  0.13100  0.84800  0.27300  1.0000
  S   S17       1.0  0.85800  0.69200  0.27800  1.0000
  S   S18       1.0  0.35800  0.80800  0.27800  1.0000
  S   S19       1.0  0.20100  0.72700  0.74600  1.0000
  S   S20       1.0  0.70100  0.77300  0.74600  1.0000
  S   S21       1.0  0.74400  0.53200  0.75200  1.0000
  S   S22       1.0  0.24400  0.96800  0.75200  1.0000
  S   S23       1.0  0.24800  0.59400  0.75300  1.0000
  S   S24       1.0  0.74800  0.90600  0.75300  1.0000
  S   S25       1.0  0.45700  0.70000  0.75600  1.0000
  S   S26       1.0  0.95700  0.80000  0.75600  1.0000
  S   S27       1.0  0.04780  0.63800  0.76400  1.0000
  S   S28       1.0  0.54800  0.86200  0.76400  1.0000
  S   S29       1.0  0.06530  0.07230  0.76800  1.0000
  S   S30       1.0  0.56500  0.42800  0.76800  1.0000
  S   S31       1.0  0.56100  0.03650  0.76900  1.0000
  S   S32       1.0  0.06060  0.46300  0.76900  1.0000
  S   S33       1.0  0.86900  0.15200  0.77300  1.0000
  S   S34       1.0  0.36900  0.34800  0.77300  1.0000
  S   S35       1.0  0.64200  0.19200  0.77800  1.0000
  S   S36       1.0  0.14200  0.30800  0.77800  1.0000
  Sb  Sb1       1.0  0.75800  0.17700  0.20300  1.0000
  Sb  Sb2       1.0  0.25800  0.32300  0.20300  1.0000
  Sb  Sb3       1.0  0.97300  0.11100  0.20800  1.0000
  Sb  Sb4       1.0  0.47300  0.38900  0.20800  1.0000
  Sb  Sb5       1.0  0.16700  0.01170  0.22200  1.0000
  Sb  Sb6       1.0  0.66700  0.48800  0.22200  1.0000
  Sb  Sb7       1.0  0.59200  0.10400  0.26100  1.0000
  Sb  Sb8       1.0  0.09160  0.39600  0.26100  1.0000
  Sb  Sb9       1.0  0.74200  0.67700  0.70300  1.0000
  Sb  Sb10      1.0  0.24200  0.82300  0.70300  1.0000
  Sb  Sb11      1.0  0.52700  0.61100  0.70800  1.0000
  Sb  Sb12      1.0  0.02660  0.88900  0.70800  1.0000
  Sb  Sb13      1.0  0.33300  0.51200  0.72200  1.0000
  Sb  Sb14      1.0  0.83300  0.98800  0.72200  1.0000
  Sb  Sb15      1.0  0.90800  0.60400  0.76100  1.0000
  Sb  Sb16      1.0  0.40800  0.89600  0.76100  1.0000
  Sr  Sr1       1.0  0.32400  0.67700  0.25400  1.0000
  Sr  Sr2       1.0  0.82400  0.82300  0.25400  1.0000
  Sr  Sr3       1.0  0.12300  0.55600  0.25900  1.0000
  Sr  Sr4       1.0  0.62300  0.94400  0.25900  1.0000
  Sr  Sr5       1.0  0.05540  0.73300  0.26200  1.0000
  Sr  Sr6       1.0  0.55500  0.76700  0.26200  1.0000
  Sr  Sr7       1.0  0.17600  0.17700  0.75400  1.0000
  Sr  Sr8       1.0  0.67600  0.32300  0.75400  1.0000
  Sr  Sr9       1.0  0.37700  0.05600  0.75900  1.0000
  Sr  Sr10      1.0  0.87700  0.44400  0.75900  1.0000
  Sr  Sr11      1.0  0.44500  0.23300  0.76200  1.0000
  Sr  Sr12      1.0  0.94500  0.26700  0.76200  1.0000
