data_image0
_chemical_formula_structural       Br2In2O2
_chemical_formula_sum              "Br2 In2 O2"
_cell_length_a       4.10701
_cell_length_b       3.64801
_cell_length_c       8.70679
_cell_angle_alpha    90
_cell_angle_beta     90
_cell_angle_gamma    90

_space_group_name_H-M_alt    "P 1"
_space_group_IT_number       1

loop_
  _space_group_symop_operation_xyz
  'x, y, z'

loop_
  _atom_site_type_symbol
  _atom_site_label
  _atom_site_symmetry_multiplicity
  _atom_site_fract_x
  _atom_site_fract_y
  _atom_site_fract_z
  _atom_site_occupancy
  Br  Br1       1.0  0.25000  0.75000  0.34200  1.0000
  Br  Br2       1.0  0.75000  0.25000  0.65800  1.0000
  In  In1       1.0  0.25000  0.25000  0.11500  1.0000
  In  In2       1.0  0.75000  0.75000  0.88500  1.0000
  O   O1        1.0  0.75000  0.25000  0.03940  1.0000
  O   O2        1.0  0.25000  0.75000  0.96100  1.0000
