data_image0
_chemical_formula_structural       N2O2Pb2Y2
_chemical_formula_sum              "N2 O2 Pb2 Y2"
_cell_length_a       3.70727
_cell_length_b       5.82239
_cell_length_c       7.53443
_cell_angle_alpha    90
_cell_angle_beta     90
_cell_angle_gamma    90

_space_group_name_H-M_alt    "P 1"
_space_group_IT_number       1

loop_
  _space_group_symop_operation_xyz
  'x, y, z'

loop_
  _atom_site_type_symbol
  _atom_site_label
  _atom_site_symmetry_multiplicity
  _atom_site_fract_x
  _atom_site_fract_y
  _atom_site_fract_z
  _atom_site_occupancy
  N   N1        1.0  0.00000  0.89100  0.34800  1.0000
  N   N2        1.0  0.00000  0.39100  0.65200  1.0000
  O   O1        1.0  0.50000  0.37400  0.25900  1.0000
  O   O2        1.0  0.50000  0.87400  0.74100  1.0000
  Pb  Pb1       1.0  0.50000  0.98900  0.16800  1.0000
  Pb  Pb2       1.0  0.50000  0.48900  0.83200  1.0000
  Y   Y1        1.0  0.00000  0.50000  0.36500  1.0000
  Y   Y2        1.0  0.00000  0.00000  0.63500  1.0000
