data_image0
_chemical_formula_structural       FLiO2V
_chemical_formula_sum              "F1 Li1 O2 V1"
_cell_length_a       2.98087
_cell_length_b       2.98087
_cell_length_c       6.53314
_cell_angle_alpha    90
_cell_angle_beta     90
_cell_angle_gamma    120

_space_group_name_H-M_alt    "P 1"
_space_group_IT_number       1

loop_
  _space_group_symop_operation_xyz
  'x, y, z'

loop_
  _atom_site_type_symbol
  _atom_site_label
  _atom_site_symmetry_multiplicity
  _atom_site_fract_x
  _atom_site_fract_y
  _atom_site_fract_z
  _atom_site_occupancy
  F   F1        1.0  0.00000  0.00000  0.45000  1.0000
  Li  Li1       1.0  0.66700  0.33300  0.49700  1.0000
  O   O1        1.0  0.33300  0.66700  0.10500  1.0000
  O   O2        1.0  0.66700  0.33300  0.81800  1.0000
  V   V1        1.0  0.00000  0.00000  0.97000  1.0000
