data_image0
_chemical_formula_structural       FLiNiO2
_chemical_formula_sum              "F1 Li1 Ni1 O2"
_cell_length_a       2.85482
_cell_length_b       2.85482
_cell_length_c       6.61034
_cell_angle_alpha    90
_cell_angle_beta     90
_cell_angle_gamma    120

_space_group_name_H-M_alt    "P 1"
_space_group_IT_number       1

loop_
  _space_group_symop_operation_xyz
  'x, y, z'

loop_
  _atom_site_type_symbol
  _atom_site_label
  _atom_site_symmetry_multiplicity
  _atom_site_fract_x
  _atom_site_fract_y
  _atom_site_fract_z
  _atom_site_occupancy
  F   F1        1.0  0.00000  0.00000  0.47700  1.0000
  Li  Li1       1.0  0.66700  0.33300  0.42400  1.0000
  Ni  Ni1       1.0  0.00000  0.00000  0.97900  1.0000
  O   O1        1.0  0.33300  0.66700  0.11900  1.0000
  O   O2        1.0  0.66700  0.33300  0.84100  1.0000
