data_image0
_chemical_formula_structural       CoFLiO2
_chemical_formula_sum              "Co1 F1 Li1 O2"
_cell_length_a       2.87457
_cell_length_b       2.87456
_cell_length_c       6.52791
_cell_angle_alpha    90
_cell_angle_beta     90
_cell_angle_gamma    120

_space_group_name_H-M_alt    "P 1"
_space_group_IT_number       1

loop_
  _space_group_symop_operation_xyz
  'x, y, z'

loop_
  _atom_site_type_symbol
  _atom_site_label
  _atom_site_symmetry_multiplicity
  _atom_site_fract_x
  _atom_site_fract_y
  _atom_site_fract_z
  _atom_site_occupancy
  Co  Co1       1.0  0.00000  0.00000  0.02880  1.0000
  F   F1        1.0  0.00000  0.00000  0.51400  1.0000
  Li  Li1       1.0  0.33300  0.66700  0.56800  1.0000
  O   O1        1.0  0.33300  0.66700  0.16600  1.0000
  O   O2        1.0  0.66700  0.33300  0.88400  1.0000
