data_image0
_chemical_formula_structural       Ir4Mg4Tb16
_chemical_formula_sum              "Ir4 Mg4 Tb16"
_cell_length_a       9.73036
_cell_length_b       9.73036
_cell_length_c       9.73036
_cell_angle_alpha    120
_cell_angle_beta     90
_cell_angle_gamma    120

_space_group_name_H-M_alt    "P 1"
_space_group_IT_number       1

loop_
  _space_group_symop_operation_xyz
  'x, y, z'

loop_
  _atom_site_type_symbol
  _atom_site_label
  _atom_site_symmetry_multiplicity
  _atom_site_fract_x
  _atom_site_fract_y
  _atom_site_fract_z
  _atom_site_occupancy
  Ir  Ir1       1.0  0.14100  0.28200  0.42400  1.0000
  Ir  Ir2       1.0  0.14100  0.71800  0.85900  1.0000
  Ir  Ir3       1.0  0.57600  0.71800  0.85900  1.0000
  Ir  Ir4       1.0  0.14100  0.28200  0.85900  1.0000
  Mg  Mg1       1.0  0.57900  0.15900  0.42100  1.0000
  Mg  Mg2       1.0  0.26200  0.84100  0.42100  1.0000
  Mg  Mg3       1.0  0.57900  0.84100  0.42100  1.0000
  Mg  Mg4       1.0  0.57900  0.15900  0.73800  1.0000
  Tb  Tb1       1.0  0.34600  0.69300  0.03920  1.0000
  Tb  Tb2       1.0  0.93700  0.50000  0.06300  1.0000
  Tb  Tb3       1.0  0.56300  0.50000  0.06300  1.0000
  Tb  Tb4       1.0  0.56300  0.12600  0.06300  1.0000
  Tb  Tb5       1.0  0.81200  0.00000  0.18800  1.0000
  Tb  Tb6       1.0  0.18800  0.00000  0.18800  1.0000
  Tb  Tb7       1.0  0.18800  0.37700  0.18800  1.0000
  Tb  Tb8       1.0  0.56300  0.50000  0.43700  1.0000
  Tb  Tb9       1.0  0.93700  0.50000  0.43700  1.0000
  Tb  Tb10      1.0  0.93700  0.87400  0.43700  1.0000
  Tb  Tb11      1.0  0.34600  0.30700  0.65400  1.0000
  Tb  Tb12      1.0  0.34600  0.69300  0.65400  1.0000
  Tb  Tb13      1.0  0.96100  0.30700  0.65400  1.0000
  Tb  Tb14      1.0  0.18800  0.00000  0.81200  1.0000
  Tb  Tb15      1.0  0.81200  0.00000  0.81200  1.0000
  Tb  Tb16      1.0  0.81200  0.62300  0.81200  1.0000
