data_image0
_chemical_formula_structural       Mg4Mo6O16
_chemical_formula_sum              "Mg4 Mo6 O16"
_cell_length_a       5.77545
_cell_length_b       5.77455
_cell_length_c       9.85385
_cell_angle_alpha    90
_cell_angle_beta     90
_cell_angle_gamma    120.005

_space_group_name_H-M_alt    "P 1"
_space_group_IT_number       1

loop_
  _space_group_symop_operation_xyz
  'x, y, z'

loop_
  _atom_site_type_symbol
  _atom_site_label
  _atom_site_symmetry_multiplicity
  _atom_site_fract_x
  _atom_site_fract_y
  _atom_site_fract_z
  _atom_site_occupancy
  Mg  Mg1       1.0  0.66700  0.33300  0.00759  1.0000
  Mg  Mg2       1.0  0.66700  0.33300  0.44200  1.0000
  Mg  Mg3       1.0  0.33300  0.66700  0.50800  1.0000
  Mg  Mg4       1.0  0.33300  0.66700  0.94200  1.0000
  Mo  Mo1       1.0  0.14600  0.29200  0.24600  1.0000
  Mo  Mo2       1.0  0.14600  0.85400  0.24600  1.0000
  Mo  Mo3       1.0  0.70800  0.85400  0.24600  1.0000
  Mo  Mo4       1.0  0.85400  0.70800  0.74600  1.0000
  Mo  Mo5       1.0  0.29200  0.14600  0.74600  1.0000
  Mo  Mo6       1.0  0.85400  0.14600  0.74600  1.0000
  O   O1        1.0  0.33500  0.16800  0.12700  1.0000
  O   O2        1.0  0.83200  0.16800  0.12700  1.0000
  O   O3        1.0  0.83200  0.66500  0.12700  1.0000
  O   O4        1.0  0.33300  0.66700  0.14000  1.0000
  O   O5        1.0  0.48800  0.97500  0.36400  1.0000
  O   O6        1.0  0.02460  0.51200  0.36400  1.0000
  O   O7        1.0  0.48800  0.51200  0.36400  1.0000
  O   O8        1.0  0.00000  0.00000  0.39100  1.0000
  O   O9        1.0  0.16800  0.83200  0.62700  1.0000
  O   O10       1.0  0.66500  0.83200  0.62700  1.0000
  O   O11       1.0  0.16800  0.33500  0.62700  1.0000
  O   O12       1.0  0.66700  0.33300  0.64000  1.0000
  O   O13       1.0  0.51200  0.02450  0.86400  1.0000
  O   O14       1.0  0.51200  0.48800  0.86400  1.0000
  O   O15       1.0  0.97500  0.48800  0.86400  1.0000
  O   O16       1.0  0.00004  0.00007  0.89100  1.0000
