data_image0
_chemical_formula_structural       Mg24Tm5
_chemical_formula_sum              "Mg24 Tm5"
_cell_length_a       9.70232
_cell_length_b       9.70232
_cell_length_c       9.70232
_cell_angle_alpha    109.471
_cell_angle_beta     109.471
_cell_angle_gamma    109.471

_space_group_name_H-M_alt    "P 1"
_space_group_IT_number       1

loop_
  _space_group_symop_operation_xyz
  'x, y, z'

loop_
  _atom_site_type_symbol
  _atom_site_label
  _atom_site_symmetry_multiplicity
  _atom_site_fract_x
  _atom_site_fract_y
  _atom_site_fract_z
  _atom_site_occupancy
  Mg  Mg1       1.0  0.37100  0.19100  0.00000  1.0000
  Mg  Mg2       1.0  0.19100  0.37100  0.00000  1.0000
  Mg  Mg3       1.0  0.67700  0.39000  0.00000  1.0000
  Mg  Mg4       1.0  0.39000  0.67700  0.00000  1.0000
  Mg  Mg5       1.0  0.80900  0.80900  0.18100  1.0000
  Mg  Mg6       1.0  0.37100  0.00000  0.19100  1.0000
  Mg  Mg7       1.0  0.00000  0.37100  0.19100  1.0000
  Mg  Mg8       1.0  0.61000  0.61000  0.28700  1.0000
  Mg  Mg9       1.0  0.71300  0.32300  0.32300  1.0000
  Mg  Mg10      1.0  0.32300  0.71300  0.32300  1.0000
  Mg  Mg11      1.0  0.19100  0.00000  0.37100  1.0000
  Mg  Mg12      1.0  0.00000  0.19100  0.37100  1.0000
  Mg  Mg13      1.0  0.67700  0.00000  0.39000  1.0000
  Mg  Mg14      1.0  0.00000  0.67700  0.39000  1.0000
  Mg  Mg15      1.0  0.61000  0.28700  0.61000  1.0000
  Mg  Mg16      1.0  0.28700  0.61000  0.61000  1.0000
  Mg  Mg17      1.0  0.81900  0.62900  0.62900  1.0000
  Mg  Mg18      1.0  0.62900  0.81900  0.62900  1.0000
  Mg  Mg19      1.0  0.39000  0.00000  0.67700  1.0000
  Mg  Mg20      1.0  0.00000  0.39000  0.67700  1.0000
  Mg  Mg21      1.0  0.32300  0.32300  0.71300  1.0000
  Mg  Mg22      1.0  0.80900  0.18100  0.80900  1.0000
  Mg  Mg23      1.0  0.18100  0.80900  0.80900  1.0000
  Mg  Mg24      1.0  0.62900  0.62900  0.81900  1.0000
  Tm  Tm1       1.0  0.00000  0.00000  0.00000  1.0000
  Tm  Tm2       1.0  0.62800  0.00000  0.00000  1.0000
  Tm  Tm3       1.0  0.00000  0.62800  0.00000  1.0000
  Tm  Tm4       1.0  0.37200  0.37200  0.37200  1.0000
  Tm  Tm5       1.0  0.00000  0.00000  0.62800  1.0000
