data_image0
_chemical_formula_structural       H8Mg4Ni2
_chemical_formula_sum              "H8 Mg4 Ni2"
_cell_length_a       4.39554
_cell_length_b       4.39554
_cell_length_c       6.45929
_cell_angle_alpha    90.0888
_cell_angle_beta     89.9112
_cell_angle_gamma    88.3235

_space_group_name_H-M_alt    "P 1"
_space_group_IT_number       1

loop_
  _space_group_symop_operation_xyz
  'x, y, z'

loop_
  _atom_site_type_symbol
  _atom_site_label
  _atom_site_symmetry_multiplicity
  _atom_site_fract_x
  _atom_site_fract_y
  _atom_site_fract_z
  _atom_site_occupancy
  H   H1        1.0  0.24400  0.24400  0.00000  1.0000
  H   H2        1.0  0.75600  0.75600  0.00000  1.0000
  H   H3        1.0  0.74700  0.25300  0.00246  1.0000
  H   H4        1.0  0.49800  0.50200  0.26000  1.0000
  H   H5        1.0  0.75500  0.24500  0.49700  1.0000
  H   H6        1.0  0.24500  0.75500  0.50300  1.0000
  H   H7        1.0  0.50200  0.49800  0.74000  1.0000
  H   H8        1.0  0.25300  0.74700  0.99800  1.0000
  Mg  Mg1       1.0  0.49800  0.00055  0.25500  1.0000
  Mg  Mg2       1.0  0.99900  0.50200  0.25500  1.0000
  Mg  Mg3       1.0  0.00055  0.49800  0.74500  1.0000
  Mg  Mg4       1.0  0.50200  0.99900  0.74500  1.0000
  Ni  Ni1       1.0  0.00000  0.00000  0.00000  1.0000
  Ni  Ni2       1.0  0.50000  0.50000  0.50000  1.0000
