data_image0
_chemical_formula_structural       Ga2Mg2Mo8O14
_chemical_formula_sum              "Ga2 Mg2 Mo8 O14"
_cell_length_a       5.74022
_cell_length_b       6.04534
_cell_length_c       9.33997
_cell_angle_alpha    108.882
_cell_angle_beta     107.896
_cell_angle_gamma    90

_space_group_name_H-M_alt    "P 1"
_space_group_IT_number       1

loop_
  _space_group_symop_operation_xyz
  'x, y, z'

loop_
  _atom_site_type_symbol
  _atom_site_label
  _atom_site_symmetry_multiplicity
  _atom_site_fract_x
  _atom_site_fract_y
  _atom_site_fract_z
  _atom_site_occupancy
  Ga  Ga1       1.0  0.94400  0.69400  0.38800  1.0000
  Ga  Ga2       1.0  0.05590  0.30600  0.61200  1.0000
  Mg  Mg1       1.0  0.50000  0.00000  0.50000  1.0000
  Mg  Mg2       1.0  0.50000  0.50000  0.50000  1.0000
  Mo  Mo1       1.0  0.25400  0.23400  0.00877  1.0000
  Mo  Mo2       1.0  0.25400  0.77400  0.00877  1.0000
  Mo  Mo3       1.0  0.09280  0.11300  0.22700  1.0000
  Mo  Mo4       1.0  0.63400  0.11300  0.22700  1.0000
  Mo  Mo5       1.0  0.36600  0.88700  0.77300  1.0000
  Mo  Mo6       1.0  0.90700  0.88700  0.77300  1.0000
  Mo  Mo7       1.0  0.74600  0.22600  0.99100  1.0000
  Mo  Mo8       1.0  0.74600  0.76600  0.99100  1.0000
  O   O1        1.0  0.00000  0.50000  0.00000  1.0000
  O   O2        1.0  0.50000  0.50000  0.00000  1.0000
  O   O3        1.0  0.87100  0.38700  0.24300  1.0000
  O   O4        1.0  0.87100  0.85600  0.24300  1.0000
  O   O5        1.0  0.37600  0.35500  0.25200  1.0000
  O   O6        1.0  0.37600  0.89700  0.25200  1.0000
  O   O7        1.0  0.25100  0.24200  0.48500  1.0000
  O   O8        1.0  0.73400  0.24200  0.48500  1.0000
  O   O9        1.0  0.26600  0.75800  0.51500  1.0000
  O   O10       1.0  0.74900  0.75800  0.51500  1.0000
  O   O11       1.0  0.62400  0.10300  0.74800  1.0000
  O   O12       1.0  0.62400  0.64500  0.74800  1.0000
  O   O13       1.0  0.12900  0.14400  0.75700  1.0000
  O   O14       1.0  0.12900  0.61300  0.75700  1.0000
