data_image0
_chemical_formula_structural       Sb2Tm2Zr2
_chemical_formula_sum              "Sb2 Tm2 Zr2"
_cell_length_a       4.25918
_cell_length_b       4.25918
_cell_length_c       8.74178
_cell_angle_alpha    104.1
_cell_angle_beta     104.1
_cell_angle_gamma    90

_space_group_name_H-M_alt    "P 1"
_space_group_IT_number       1

loop_
  _space_group_symop_operation_xyz
  'x, y, z'

loop_
  _atom_site_type_symbol
  _atom_site_label
  _atom_site_symmetry_multiplicity
  _atom_site_fract_x
  _atom_site_fract_y
  _atom_site_fract_z
  _atom_site_occupancy
  Sb  Sb1       1.0  0.13500  0.13500  0.27100  1.0000
  Sb  Sb2       1.0  0.86500  0.86500  0.72900  1.0000
  Tm  Tm1       1.0  0.67600  0.67600  0.35100  1.0000
  Tm  Tm2       1.0  0.32400  0.32400  0.64900  1.0000
  Zr  Zr1       1.0  0.50000  0.00000  0.00000  1.0000
  Zr  Zr2       1.0  0.00000  0.50000  0.00000  1.0000
