data_image0
_chemical_formula_structural       As4La4Te4
_chemical_formula_sum              "As4 La4 Te4"
_cell_length_a       7.89766
_cell_length_b       4.20537
_cell_length_c       10.3777
_cell_angle_alpha    90
_cell_angle_beta     90
_cell_angle_gamma    90

_space_group_name_H-M_alt    "P 1"
_space_group_IT_number       1

loop_
  _space_group_symop_operation_xyz
  'x, y, z'

loop_
  _atom_site_type_symbol
  _atom_site_label
  _atom_site_symmetry_multiplicity
  _atom_site_fract_x
  _atom_site_fract_y
  _atom_site_fract_z
  _atom_site_occupancy
  As  As1       1.0  0.08980  0.25000  0.03860  1.0000
  As  As2       1.0  0.59000  0.25000  0.46100  1.0000
  As  As3       1.0  0.41000  0.75000  0.53900  1.0000
  As  As4       1.0  0.91000  0.75000  0.96100  1.0000
  La  La1       1.0  0.72200  0.25000  0.15600  1.0000
  La  La2       1.0  0.22200  0.25000  0.34400  1.0000
  La  La3       1.0  0.77800  0.75000  0.65600  1.0000
  La  La4       1.0  0.27800  0.75000  0.84400  1.0000
  Te  Te1       1.0  0.40600  0.75000  0.15000  1.0000
  Te  Te2       1.0  0.90600  0.75000  0.35000  1.0000
  Te  Te3       1.0  0.09360  0.25000  0.65000  1.0000
  Te  Te4       1.0  0.59400  0.25000  0.85000  1.0000
