data_image0
_chemical_formula_structural       Ga4La4Ni4
_chemical_formula_sum              "Ga4 La4 Ni4"
_cell_length_a       6.5063
_cell_length_b       6.23658
_cell_length_c       6.43354
_cell_angle_alpha    90
_cell_angle_beta     100.246
_cell_angle_gamma    90

_space_group_name_H-M_alt    "P 1"
_space_group_IT_number       1

loop_
  _space_group_symop_operation_xyz
  'x, y, z'

loop_
  _atom_site_type_symbol
  _atom_site_label
  _atom_site_symmetry_multiplicity
  _atom_site_fract_x
  _atom_site_fract_y
  _atom_site_fract_z
  _atom_site_occupancy
  Ga  Ga1       1.0  0.54300  0.81600  0.15300  1.0000
  Ga  Ga2       1.0  0.95700  0.31600  0.34700  1.0000
  Ga  Ga3       1.0  0.04310  0.68400  0.65300  1.0000
  Ga  Ga4       1.0  0.45700  0.18400  0.84700  1.0000
  La  La1       1.0  0.04210  0.76600  0.16400  1.0000
  La  La2       1.0  0.45800  0.26600  0.33600  1.0000
  La  La3       1.0  0.54200  0.73400  0.66400  1.0000
  La  La4       1.0  0.95800  0.23400  0.83600  1.0000
  Ni  Ni1       1.0  0.68600  0.46000  0.06240  1.0000
  Ni  Ni2       1.0  0.81400  0.96000  0.43800  1.0000
  Ni  Ni3       1.0  0.18600  0.03960  0.56200  1.0000
  Ni  Ni4       1.0  0.31400  0.54000  0.93800  1.0000
