data_image0
_chemical_formula_structural       Ag4Sr2
_chemical_formula_sum              "Ag4 Sr2"
_cell_length_a       4.83467
_cell_length_b       6.13921
_cell_length_c       6.13921
_cell_angle_alpha    95.1056
_cell_angle_beta     113.188
_cell_angle_gamma    66.8118

_space_group_name_H-M_alt    "P 1"
_space_group_IT_number       1

loop_
  _space_group_symop_operation_xyz
  'x, y, z'

loop_
  _atom_site_type_symbol
  _atom_site_label
  _atom_site_symmetry_multiplicity
  _atom_site_fract_x
  _atom_site_fract_y
  _atom_site_fract_z
  _atom_site_occupancy
  Ag  Ag1       1.0  0.55400  0.10900  0.21700  1.0000
  Ag  Ag2       1.0  0.05370  0.28300  0.39100  1.0000
  Ag  Ag3       1.0  0.94600  0.71700  0.60900  1.0000
  Ag  Ag4       1.0  0.44600  0.89100  0.78300  1.0000
  Sr  Sr1       1.0  0.25000  0.70600  0.20600  1.0000
  Sr  Sr2       1.0  0.75000  0.29400  0.79400  1.0000
