data_image0
_chemical_formula_structural       BC5
_chemical_formula_sum              "B1 C5"
_cell_length_a       2.49719
_cell_length_b       3.72533
_cell_length_c       4.45801
_cell_angle_alpha    114.697
_cell_angle_beta     106.265
_cell_angle_gamma    90

_space_group_name_H-M_alt    "P 1"
_space_group_IT_number       1

loop_
  _space_group_symop_operation_xyz
  'x, y, z'

loop_
  _atom_site_type_symbol
  _atom_site_label
  _atom_site_symmetry_multiplicity
  _atom_site_fract_x
  _atom_site_fract_y
  _atom_site_fract_z
  _atom_site_occupancy
  B   B1        1.0  0.50000  0.47600  0.00000  1.0000
  C   C1        1.0  0.00000  0.17500  0.00000  1.0000
  C   C2        1.0  0.16900  0.12700  0.33700  1.0000
  C   C3        1.0  0.67300  0.88900  0.34500  1.0000
  C   C4        1.0  0.32700  0.54400  0.65500  1.0000
  C   C5        1.0  0.83100  0.79000  0.66300  1.0000
