data_image0
_chemical_formula_structural       Eu4Mg4Pb4
_chemical_formula_sum              "Eu4 Mg4 Pb4"
_cell_length_a       8.07007
_cell_length_b       4.85667
_cell_length_c       8.90075
_cell_angle_alpha    90
_cell_angle_beta     90
_cell_angle_gamma    90

_space_group_name_H-M_alt    "P 1"
_space_group_IT_number       1

loop_
  _space_group_symop_operation_xyz
  'x, y, z'

loop_
  _atom_site_type_symbol
  _atom_site_label
  _atom_site_symmetry_multiplicity
  _atom_site_fract_x
  _atom_site_fract_y
  _atom_site_fract_z
  _atom_site_occupancy
  Eu  Eu1       1.0  0.48500  0.75000  0.18900  1.0000
  Eu  Eu2       1.0  0.98500  0.75000  0.31100  1.0000
  Eu  Eu3       1.0  0.01490  0.25000  0.68900  1.0000
  Eu  Eu4       1.0  0.51500  0.25000  0.81100  1.0000
  Mg  Mg1       1.0  0.14700  0.25000  0.06430  1.0000
  Mg  Mg2       1.0  0.64700  0.25000  0.43600  1.0000
  Mg  Mg3       1.0  0.35300  0.75000  0.56400  1.0000
  Mg  Mg4       1.0  0.85300  0.75000  0.93600  1.0000
  Pb  Pb1       1.0  0.76900  0.25000  0.11200  1.0000
  Pb  Pb2       1.0  0.26900  0.25000  0.38800  1.0000
  Pb  Pb3       1.0  0.73100  0.75000  0.61200  1.0000
  Pb  Pb4       1.0  0.23100  0.75000  0.88800  1.0000
