data_image0
_chemical_formula_structural       H16Mg4Ni4Yb4
_chemical_formula_sum              "H16 Mg4 Ni4 Yb4"
_cell_length_a       6.58696
_cell_length_b       6.58696
_cell_length_c       6.58696
_cell_angle_alpha    90
_cell_angle_beta     90
_cell_angle_gamma    90

_space_group_name_H-M_alt    "P 1"
_space_group_IT_number       1

loop_
  _space_group_symop_operation_xyz
  'x, y, z'

loop_
  _atom_site_type_symbol
  _atom_site_label
  _atom_site_symmetry_multiplicity
  _atom_site_fract_x
  _atom_site_fract_y
  _atom_site_fract_z
  _atom_site_occupancy
  H   H1        1.0  0.56500  0.23400  0.05390  1.0000
  H   H2        1.0  0.26600  0.94600  0.06460  1.0000
  H   H3        1.0  0.40700  0.59300  0.09310  1.0000
  H   H4        1.0  0.05390  0.56500  0.23400  1.0000
  H   H5        1.0  0.94600  0.06460  0.26600  1.0000
  H   H6        1.0  0.59300  0.09310  0.40700  1.0000
  H   H7        1.0  0.73400  0.44600  0.43500  1.0000
  H   H8        1.0  0.43500  0.73400  0.44600  1.0000
  H   H9        1.0  0.93500  0.76600  0.55400  1.0000
  H   H10       1.0  0.23400  0.05390  0.56500  1.0000
  H   H11       1.0  0.09310  0.40700  0.59300  1.0000
  H   H12       1.0  0.44600  0.43500  0.73400  1.0000
  H   H13       1.0  0.55400  0.93500  0.76600  1.0000
  H   H14       1.0  0.90700  0.90700  0.90700  1.0000
  H   H15       1.0  0.76600  0.55400  0.93500  1.0000
  H   H16       1.0  0.06460  0.26600  0.94600  1.0000
  Mg  Mg1       1.0  0.83900  0.33900  0.16100  1.0000
  Mg  Mg2       1.0  0.16100  0.83900  0.33900  1.0000
  Mg  Mg3       1.0  0.66100  0.66100  0.66100  1.0000
  Mg  Mg4       1.0  0.33900  0.16100  0.83900  1.0000
  Ni  Ni1       1.0  0.04620  0.04620  0.04620  1.0000
  Ni  Ni2       1.0  0.95400  0.54600  0.45400  1.0000
  Ni  Ni3       1.0  0.45400  0.95400  0.54600  1.0000
  Ni  Ni4       1.0  0.54600  0.45400  0.95400  1.0000
  Yb  Yb1       1.0  0.66500  0.83500  0.16500  1.0000
  Yb  Yb2       1.0  0.33500  0.33500  0.33500  1.0000
  Yb  Yb3       1.0  0.83500  0.16500  0.66500  1.0000
  Yb  Yb4       1.0  0.16500  0.66500  0.83500  1.0000
