data_image0
_chemical_formula_structural       Ge6Pd6Tm6
_chemical_formula_sum              "Ge6 Pd6 Tm6"
_cell_length_a       4.37276
_cell_length_b       7.59958
_cell_length_c       11.2588
_cell_angle_alpha    109.724
_cell_angle_beta     101.198
_cell_angle_gamma    90

_space_group_name_H-M_alt    "P 1"
_space_group_IT_number       1

loop_
  _space_group_symop_operation_xyz
  'x, y, z'

loop_
  _atom_site_type_symbol
  _atom_site_label
  _atom_site_symmetry_multiplicity
  _atom_site_fract_x
  _atom_site_fract_y
  _atom_site_fract_z
  _atom_site_occupancy
  Ge  Ge1       1.0  0.06530  0.91300  0.13100  1.0000
  Ge  Ge2       1.0  0.59300  0.43800  0.18600  1.0000
  Ge  Ge3       1.0  0.23600  0.39800  0.47300  1.0000
  Ge  Ge4       1.0  0.76400  0.92500  0.52700  1.0000
  Ge  Ge5       1.0  0.40700  0.25200  0.81400  1.0000
  Ge  Ge6       1.0  0.93500  0.78200  0.86900  1.0000
  Pd  Pd1       1.0  0.57300  0.75000  0.14500  1.0000
  Pd  Pd2       1.0  0.10500  0.27800  0.20900  1.0000
  Pd  Pd3       1.0  0.73300  0.56500  0.46500  1.0000
  Pd  Pd4       1.0  0.26700  0.10000  0.53500  1.0000
  Pd  Pd5       1.0  0.89500  0.06830  0.79100  1.0000
  Pd  Pd6       1.0  0.42700  0.60400  0.85500  1.0000
  Tm  Tm1       1.0  0.50000  0.04890  0.00000  1.0000
  Tm  Tm2       1.0  0.00000  0.46600  0.00000  1.0000
  Tm  Tm3       1.0  0.16700  0.70900  0.33400  1.0000
  Tm  Tm4       1.0  0.66700  0.13200  0.33400  1.0000
  Tm  Tm5       1.0  0.33300  0.79800  0.66600  1.0000
  Tm  Tm6       1.0  0.83300  0.37600  0.66600  1.0000
