data_image0
_chemical_formula_structural       Gd16Mg4Rh4
_chemical_formula_sum              "Gd16 Mg4 Rh4"
_cell_length_a       9.76876
_cell_length_b       9.76876
_cell_length_c       9.76876
_cell_angle_alpha    120
_cell_angle_beta     90
_cell_angle_gamma    120

_space_group_name_H-M_alt    "P 1"
_space_group_IT_number       1

loop_
  _space_group_symop_operation_xyz
  'x, y, z'

loop_
  _atom_site_type_symbol
  _atom_site_label
  _atom_site_symmetry_multiplicity
  _atom_site_fract_x
  _atom_site_fract_y
  _atom_site_fract_z
  _atom_site_occupancy
  Gd  Gd1       1.0  0.18800  0.00000  0.18800  1.0000
  Gd  Gd2       1.0  0.18800  0.37600  0.18800  1.0000
  Gd  Gd3       1.0  0.81200  0.00000  0.18800  1.0000
  Gd  Gd4       1.0  0.65300  0.30600  0.34700  1.0000
  Gd  Gd5       1.0  0.04110  0.69400  0.34700  1.0000
  Gd  Gd6       1.0  0.65300  0.69400  0.34700  1.0000
  Gd  Gd7       1.0  0.06450  0.12900  0.56500  1.0000
  Gd  Gd8       1.0  0.06450  0.50000  0.56500  1.0000
  Gd  Gd9       1.0  0.43500  0.50000  0.56500  1.0000
  Gd  Gd10      1.0  0.18800  0.00000  0.81200  1.0000
  Gd  Gd11      1.0  0.81200  0.62400  0.81200  1.0000
  Gd  Gd12      1.0  0.81200  0.00000  0.81200  1.0000
  Gd  Gd13      1.0  0.06450  0.50000  0.93500  1.0000
  Gd  Gd14      1.0  0.43500  0.50000  0.93500  1.0000
  Gd  Gd15      1.0  0.43500  0.87100  0.93500  1.0000
  Gd  Gd16      1.0  0.65300  0.30600  0.95900  1.0000
  Mg  Mg1       1.0  0.42000  0.84100  0.26100  1.0000
  Mg  Mg2       1.0  0.73900  0.15900  0.58000  1.0000
  Mg  Mg3       1.0  0.42000  0.15900  0.58000  1.0000
  Mg  Mg4       1.0  0.42000  0.84100  0.58000  1.0000
  Rh  Rh1       1.0  0.42600  0.28400  0.14200  1.0000
  Rh  Rh2       1.0  0.85800  0.28400  0.14200  1.0000
  Rh  Rh3       1.0  0.85800  0.71600  0.14200  1.0000
  Rh  Rh4       1.0  0.85800  0.71600  0.57400  1.0000
