data_image0
_chemical_formula_structural       Co2La2Si2
_chemical_formula_sum              "Co2 La2 Si2"
_cell_length_a       4.05851
_cell_length_b       4.05851
_cell_length_c       7.10391
_cell_angle_alpha    90
_cell_angle_beta     90
_cell_angle_gamma    90

_space_group_name_H-M_alt    "P 1"
_space_group_IT_number       1

loop_
  _space_group_symop_operation_xyz
  'x, y, z'

loop_
  _atom_site_type_symbol
  _atom_site_label
  _atom_site_symmetry_multiplicity
  _atom_site_fract_x
  _atom_site_fract_y
  _atom_site_fract_z
  _atom_site_occupancy
  Co  Co1       1.0  0.75000  0.25000  0.00000  1.0000
  Co  Co2       1.0  0.25000  0.75000  0.00000  1.0000
  La  La1       1.0  0.75000  0.75000  0.31700  1.0000
  La  La2       1.0  0.25000  0.25000  0.68300  1.0000
  Si  Si1       1.0  0.25000  0.25000  0.16500  1.0000
  Si  Si2       1.0  0.75000  0.75000  0.83500  1.0000
