data_image0
_chemical_formula_structural       Co4Ga4Pr4
_chemical_formula_sum              "Co4 Ga4 Pr4"
_cell_length_a       7.82303
_cell_length_b       4.2298
_cell_length_c       7.96826
_cell_angle_alpha    90
_cell_angle_beta     90
_cell_angle_gamma    90

_space_group_name_H-M_alt    "P 1"
_space_group_IT_number       1

loop_
  _space_group_symop_operation_xyz
  'x, y, z'

loop_
  _atom_site_type_symbol
  _atom_site_label
  _atom_site_symmetry_multiplicity
  _atom_site_fract_x
  _atom_site_fract_y
  _atom_site_fract_z
  _atom_site_occupancy
  Co  Co1       1.0  0.54900  0.25000  0.07350  1.0000
  Co  Co2       1.0  0.04890  0.25000  0.42600  1.0000
  Co  Co3       1.0  0.95100  0.75000  0.57400  1.0000
  Co  Co4       1.0  0.45100  0.75000  0.92600  1.0000
  Ga  Ga1       1.0  0.50300  0.75000  0.22200  1.0000
  Ga  Ga2       1.0  0.00332  0.75000  0.27800  1.0000
  Ga  Ga3       1.0  0.99700  0.25000  0.72200  1.0000
  Ga  Ga4       1.0  0.49700  0.25000  0.77800  1.0000
  Pr  Pr1       1.0  0.20900  0.25000  0.07310  1.0000
  Pr  Pr2       1.0  0.70900  0.25000  0.42700  1.0000
  Pr  Pr3       1.0  0.29100  0.75000  0.57300  1.0000
  Pr  Pr4       1.0  0.79100  0.75000  0.92700  1.0000
