data_image0
_chemical_formula_structural       Ir6Mg6Si16
_chemical_formula_sum              "Ir6 Mg6 Si16"
_cell_length_a       8.67189
_cell_length_b       8.67189
_cell_length_c       8.67189
_cell_angle_alpha    120
_cell_angle_beta     90
_cell_angle_gamma    120

_space_group_name_H-M_alt    "P 1"
_space_group_IT_number       1

loop_
  _space_group_symop_operation_xyz
  'x, y, z'

loop_
  _atom_site_type_symbol
  _atom_site_label
  _atom_site_symmetry_multiplicity
  _atom_site_fract_x
  _atom_site_fract_y
  _atom_site_fract_z
  _atom_site_occupancy
  Ir  Ir1       1.0  0.74500  0.00000  0.25500  1.0000
  Ir  Ir2       1.0  0.25500  0.00000  0.25500  1.0000
  Ir  Ir3       1.0  0.25500  0.51000  0.25500  1.0000
  Ir  Ir4       1.0  0.25500  0.00000  0.74500  1.0000
  Ir  Ir5       1.0  0.74500  0.00000  0.74500  1.0000
  Ir  Ir6       1.0  0.74500  0.49000  0.74500  1.0000
  Mg  Mg1       1.0  0.00000  0.00000  0.00000  1.0000
  Mg  Mg2       1.0  0.65000  0.30000  0.35000  1.0000
  Mg  Mg3       1.0  0.05010  0.70000  0.35000  1.0000
  Mg  Mg4       1.0  0.65000  0.70000  0.35000  1.0000
  Mg  Mg5       1.0  0.25000  0.50000  0.75000  1.0000
  Mg  Mg6       1.0  0.65000  0.30000  0.95000  1.0000
  Si  Si1       1.0  0.42600  0.85200  0.27800  1.0000
  Si  Si2       1.0  0.02930  0.05870  0.39000  1.0000
  Si  Si3       1.0  0.02930  0.36100  0.39000  1.0000
  Si  Si4       1.0  0.33100  0.36100  0.39000  1.0000
  Si  Si5       1.0  0.42600  0.14800  0.57400  1.0000
  Si  Si6       1.0  0.72200  0.14800  0.57400  1.0000
  Si  Si7       1.0  0.42600  0.85200  0.57400  1.0000
  Si  Si8       1.0  0.02930  0.05870  0.66900  1.0000
  Si  Si9       1.0  0.02930  0.63900  0.66900  1.0000
  Si  Si10      1.0  0.61000  0.63900  0.66900  1.0000
  Si  Si11      1.0  0.02930  0.36100  0.97100  1.0000
  Si  Si12      1.0  0.33100  0.36100  0.97100  1.0000
  Si  Si13      1.0  0.02930  0.63900  0.97100  1.0000
  Si  Si14      1.0  0.61000  0.63900  0.97100  1.0000
  Si  Si15      1.0  0.33100  0.94100  0.97100  1.0000
  Si  Si16      1.0  0.61000  0.94100  0.97100  1.0000
