data_image0
_chemical_formula_structural       Mg4Pd4Yb16
_chemical_formula_sum              "Mg4 Pd4 Yb16"
_cell_length_a       10.1009
_cell_length_b       10.1009
_cell_length_c       10.1009
_cell_angle_alpha    120
_cell_angle_beta     90
_cell_angle_gamma    120

_space_group_name_H-M_alt    "P 1"
_space_group_IT_number       1

loop_
  _space_group_symop_operation_xyz
  'x, y, z'

loop_
  _atom_site_type_symbol
  _atom_site_label
  _atom_site_symmetry_multiplicity
  _atom_site_fract_x
  _atom_site_fract_y
  _atom_site_fract_z
  _atom_site_occupancy
  Mg  Mg1       1.0  0.57800  0.15600  0.42200  1.0000
  Mg  Mg2       1.0  0.26600  0.84400  0.42200  1.0000
  Mg  Mg3       1.0  0.57800  0.84400  0.42200  1.0000
  Mg  Mg4       1.0  0.57800  0.15600  0.73400  1.0000
  Pd  Pd1       1.0  0.13900  0.27900  0.41800  1.0000
  Pd  Pd2       1.0  0.13900  0.27900  0.86100  1.0000
  Pd  Pd3       1.0  0.13900  0.72100  0.86100  1.0000
  Pd  Pd4       1.0  0.58200  0.72100  0.86100  1.0000
  Yb  Yb1       1.0  0.34300  0.68700  0.03020  1.0000
  Yb  Yb2       1.0  0.94500  0.50000  0.05500  1.0000
  Yb  Yb3       1.0  0.55500  0.11000  0.05500  1.0000
  Yb  Yb4       1.0  0.55500  0.50000  0.05500  1.0000
  Yb  Yb5       1.0  0.80800  0.00000  0.19200  1.0000
  Yb  Yb6       1.0  0.19200  0.00000  0.19200  1.0000
  Yb  Yb7       1.0  0.19200  0.38300  0.19200  1.0000
  Yb  Yb8       1.0  0.55500  0.50000  0.44500  1.0000
  Yb  Yb9       1.0  0.94500  0.50000  0.44500  1.0000
  Yb  Yb10      1.0  0.94500  0.89000  0.44500  1.0000
  Yb  Yb11      1.0  0.34300  0.31300  0.65700  1.0000
  Yb  Yb12      1.0  0.97000  0.31300  0.65700  1.0000
  Yb  Yb13      1.0  0.34300  0.68700  0.65700  1.0000
  Yb  Yb14      1.0  0.80800  0.00000  0.80800  1.0000
  Yb  Yb15      1.0  0.19200  0.00000  0.80800  1.0000
  Yb  Yb16      1.0  0.80800  0.61700  0.80800  1.0000
