data_image0
_chemical_formula_structural       Er2Ga2Zn2
_chemical_formula_sum              "Er2 Ga2 Zn2"
_cell_length_a       4.38788
_cell_length_b       4.38788
_cell_length_c       7.07643
_cell_angle_alpha    90
_cell_angle_beta     90
_cell_angle_gamma    120

_space_group_name_H-M_alt    "P 1"
_space_group_IT_number       1

loop_
  _space_group_symop_operation_xyz
  'x, y, z'

loop_
  _atom_site_type_symbol
  _atom_site_label
  _atom_site_symmetry_multiplicity
  _atom_site_fract_x
  _atom_site_fract_y
  _atom_site_fract_z
  _atom_site_occupancy
  Er  Er1       1.0  0.00001  0.00002  0.99900  1.0000
  Er  Er2       1.0  0.00000  0.00000  0.49900  1.0000
  Ga  Ga1       1.0  0.33300  0.66700  0.28200  1.0000
  Ga  Ga2       1.0  0.66700  0.33300  0.78200  1.0000
  Zn  Zn1       1.0  0.66700  0.33300  0.21300  1.0000
  Zn  Zn2       1.0  0.33300  0.66700  0.71300  1.0000
