data_image0
_chemical_formula_structural       H8Li8Mg4N8
_chemical_formula_sum              "H8 Li8 Mg4 N8"
_cell_length_a       9.55837
_cell_length_b       5.06317
_cell_length_c       5.15497
_cell_angle_alpha    90
_cell_angle_beta     90
_cell_angle_gamma    90

_space_group_name_H-M_alt    "P 1"
_space_group_IT_number       1

loop_
  _space_group_symop_operation_xyz
  'x, y, z'

loop_
  _atom_site_type_symbol
  _atom_site_label
  _atom_site_symmetry_multiplicity
  _atom_site_fract_x
  _atom_site_fract_y
  _atom_site_fract_z
  _atom_site_occupancy
  H   H1        1.0  0.30300  0.08800  0.23300  1.0000
  H   H2        1.0  0.80300  0.91200  0.23300  1.0000
  H   H3        1.0  0.19700  0.41200  0.33900  1.0000
  H   H4        1.0  0.69700  0.58800  0.33900  1.0000
  H   H5        1.0  0.19700  0.08800  0.73300  1.0000
  H   H6        1.0  0.69700  0.91200  0.73300  1.0000
  H   H7        1.0  0.30300  0.41200  0.83900  1.0000
  H   H8        1.0  0.80300  0.58800  0.83900  1.0000
  Li  Li1       1.0  0.74000  0.25000  0.03570  1.0000
  Li  Li2       1.0  0.24000  0.75000  0.03570  1.0000
  Li  Li3       1.0  0.49500  0.25000  0.03590  1.0000
  Li  Li4       1.0  0.99500  0.75000  0.03590  1.0000
  Li  Li5       1.0  0.76000  0.25000  0.53600  1.0000
  Li  Li6       1.0  0.26000  0.75000  0.53600  1.0000
  Li  Li7       1.0  0.00481  0.25000  0.53600  1.0000
  Li  Li8       1.0  0.50500  0.75000  0.53600  1.0000
  Mg  Mg1       1.0  0.01240  0.25000  0.03590  1.0000
  Mg  Mg2       1.0  0.51200  0.75000  0.03590  1.0000
  Mg  Mg3       1.0  0.48800  0.25000  0.53600  1.0000
  Mg  Mg4       1.0  0.98800  0.75000  0.53600  1.0000
  N   N1        1.0  0.61100  0.47900  0.28500  1.0000
  N   N2        1.0  0.11100  0.52100  0.28500  1.0000
  N   N3        1.0  0.88900  0.02050  0.28700  1.0000
  N   N4        1.0  0.38900  0.98000  0.28700  1.0000
  N   N5        1.0  0.88900  0.47900  0.78500  1.0000
  N   N6        1.0  0.38900  0.52100  0.78500  1.0000
  N   N7        1.0  0.61100  0.02050  0.78700  1.0000
  N   N8        1.0  0.11100  0.98000  0.78700  1.0000
