data_image0
_chemical_formula_structural       Sb2Sm4
_chemical_formula_sum              "Sb2 Sm4"
_cell_length_a       4.50943
_cell_length_b       4.50943
_cell_length_c       9.31233
_cell_angle_alpha    104.012
_cell_angle_beta     104.012
_cell_angle_gamma    90

_space_group_name_H-M_alt    "P 1"
_space_group_IT_number       1

loop_
  _space_group_symop_operation_xyz
  'x, y, z'

loop_
  _atom_site_type_symbol
  _atom_site_label
  _atom_site_symmetry_multiplicity
  _atom_site_fract_x
  _atom_site_fract_y
  _atom_site_fract_z
  _atom_site_occupancy
  Sb  Sb1       1.0  0.63800  0.63800  0.27700  1.0000
  Sb  Sb2       1.0  0.36200  0.36200  0.72300  1.0000
  Sm  Sm1       1.0  0.50000  0.00000  0.00000  1.0000
  Sm  Sm2       1.0  0.00000  0.50000  0.00000  1.0000
  Sm  Sm3       1.0  0.17900  0.17900  0.35800  1.0000
  Sm  Sm4       1.0  0.82100  0.82100  0.64200  1.0000
