data_image0
_chemical_formula_structural       Fe4Mg4O16Si4
_chemical_formula_sum              "Fe4 Mg4 O16 Si4"
_cell_length_a       4.77131
_cell_length_b       10.3073
_cell_length_c       6.04997
_cell_angle_alpha    90
_cell_angle_beta     90
_cell_angle_gamma    90

_space_group_name_H-M_alt    "P 1"
_space_group_IT_number       1

loop_
  _space_group_symop_operation_xyz
  'x, y, z'

loop_
  _atom_site_type_symbol
  _atom_site_label
  _atom_site_symmetry_multiplicity
  _atom_site_fract_x
  _atom_site_fract_y
  _atom_site_fract_z
  _atom_site_occupancy
  Fe  Fe1       1.0  0.98500  0.27800  0.25000  1.0000
  Fe  Fe2       1.0  0.51500  0.77800  0.25000  1.0000
  Fe  Fe3       1.0  0.48500  0.22200  0.75000  1.0000
  Fe  Fe4       1.0  0.01480  0.72200  0.75000  1.0000
  Mg  Mg1       1.0  0.00000  0.00000  0.00000  1.0000
  Mg  Mg2       1.0  0.50000  0.50000  0.00000  1.0000
  Mg  Mg3       1.0  0.00000  0.00000  0.50000  1.0000
  Mg  Mg4       1.0  0.50000  0.50000  0.50000  1.0000
  O   O1        1.0  0.27900  0.16200  0.03250  1.0000
  O   O2        1.0  0.22100  0.66200  0.03250  1.0000
  O   O3        1.0  0.76600  0.08610  0.25000  1.0000
  O   O4        1.0  0.23100  0.44800  0.25000  1.0000
  O   O5        1.0  0.73400  0.58600  0.25000  1.0000
  O   O6        1.0  0.26900  0.94800  0.25000  1.0000
  O   O7        1.0  0.27900  0.16200  0.46700  1.0000
  O   O8        1.0  0.22100  0.66200  0.46700  1.0000
  O   O9        1.0  0.77900  0.33800  0.53300  1.0000
  O   O10       1.0  0.72100  0.83800  0.53300  1.0000
  O   O11       1.0  0.73100  0.05180  0.75000  1.0000
  O   O12       1.0  0.26600  0.41400  0.75000  1.0000
  O   O13       1.0  0.76900  0.55200  0.75000  1.0000
  O   O14       1.0  0.23400  0.91400  0.75000  1.0000
  O   O15       1.0  0.77900  0.33800  0.96700  1.0000
  O   O16       1.0  0.72100  0.83800  0.96700  1.0000
  Si  Si1       1.0  0.42600  0.09270  0.25000  1.0000
  Si  Si2       1.0  0.07410  0.59300  0.25000  1.0000
  Si  Si3       1.0  0.92600  0.40700  0.75000  1.0000
  Si  Si4       1.0  0.57400  0.90700  0.75000  1.0000
