data_image0
_chemical_formula_structural       Se4TiZr
_chemical_formula_sum              "Se4 Ti1 Zr1"
_cell_length_a       6.23856
_cell_length_b       3.66113
_cell_length_c       6.33939
_cell_angle_alpha    90
_cell_angle_beta     89.6399
_cell_angle_gamma    90

_space_group_name_H-M_alt    "P 1"
_space_group_IT_number       1

loop_
  _space_group_symop_operation_xyz
  'x, y, z'

loop_
  _atom_site_type_symbol
  _atom_site_label
  _atom_site_symmetry_multiplicity
  _atom_site_fract_x
  _atom_site_fract_y
  _atom_site_fract_z
  _atom_site_occupancy
  Se  Se1       1.0  0.75200  0.50000  0.15500  1.0000
  Se  Se2       1.0  0.25700  0.00000  0.31800  1.0000
  Se  Se3       1.0  0.74300  0.00000  0.68200  1.0000
  Se  Se4       1.0  0.24800  0.50000  0.84500  1.0000
  Ti  Ti1       1.0  0.00000  0.00000  0.00000  1.0000
  Zr  Zr1       1.0  0.00000  0.50000  0.50000  1.0000
