data_image0
_chemical_formula_structural       Cs4Mg4O16P4
_chemical_formula_sum              "Cs4 Mg4 O16 P4"
_cell_length_a       8.76997
_cell_length_b       5.5039
_cell_length_c       9.72717
_cell_angle_alpha    90
_cell_angle_beta     90
_cell_angle_gamma    90

_space_group_name_H-M_alt    "P 1"
_space_group_IT_number       1

loop_
  _space_group_symop_operation_xyz
  'x, y, z'

loop_
  _atom_site_type_symbol
  _atom_site_label
  _atom_site_symmetry_multiplicity
  _atom_site_fract_x
  _atom_site_fract_y
  _atom_site_fract_z
  _atom_site_occupancy
  Cs  Cs1       1.0  0.00256  0.75000  0.20300  1.0000
  Cs  Cs2       1.0  0.50300  0.75000  0.29700  1.0000
  Cs  Cs3       1.0  0.49700  0.25000  0.70300  1.0000
  Cs  Cs4       1.0  0.99700  0.25000  0.79700  1.0000
  Mg  Mg1       1.0  0.32000  0.25000  0.07790  1.0000
  Mg  Mg2       1.0  0.82000  0.25000  0.42200  1.0000
  Mg  Mg3       1.0  0.18000  0.75000  0.57800  1.0000
  Mg  Mg4       1.0  0.68000  0.75000  0.92200  1.0000
  O   O1        1.0  0.77600  0.02200  0.01090  1.0000
  O   O2        1.0  0.77600  0.47800  0.01090  1.0000
  O   O3        1.0  0.53600  0.25000  0.07590  1.0000
  O   O4        1.0  0.76400  0.25000  0.23400  1.0000
  O   O5        1.0  0.26400  0.25000  0.26600  1.0000
  O   O6        1.0  0.03640  0.25000  0.42400  1.0000
  O   O7        1.0  0.27600  0.02200  0.48900  1.0000
  O   O8        1.0  0.27600  0.47800  0.48900  1.0000
  O   O9        1.0  0.72400  0.52200  0.51100  1.0000
  O   O10       1.0  0.72400  0.97800  0.51100  1.0000
  O   O11       1.0  0.96400  0.75000  0.57600  1.0000
  O   O12       1.0  0.73600  0.75000  0.73400  1.0000
  O   O13       1.0  0.23600  0.75000  0.76600  1.0000
  O   O14       1.0  0.46400  0.75000  0.92400  1.0000
  O   O15       1.0  0.22400  0.52200  0.98900  1.0000
  O   O16       1.0  0.22400  0.97800  0.98900  1.0000
  P   P1        1.0  0.71100  0.25000  0.08370  1.0000
  P   P2        1.0  0.21100  0.25000  0.41600  1.0000
  P   P3        1.0  0.78900  0.75000  0.58400  1.0000
  P   P4        1.0  0.28900  0.75000  0.91600  1.0000
