data_image0
_chemical_formula_structural       Er4Pt4Zn4
_chemical_formula_sum              "Er4 Pt4 Zn4"
_cell_length_a       6.91003
_cell_length_b       4.10199
_cell_length_c       8.17102
_cell_angle_alpha    90
_cell_angle_beta     90
_cell_angle_gamma    90

_space_group_name_H-M_alt    "P 1"
_space_group_IT_number       1

loop_
  _space_group_symop_operation_xyz
  'x, y, z'

loop_
  _atom_site_type_symbol
  _atom_site_label
  _atom_site_symmetry_multiplicity
  _atom_site_fract_x
  _atom_site_fract_y
  _atom_site_fract_z
  _atom_site_occupancy
  Er  Er1       1.0  0.45700  0.75000  0.18500  1.0000
  Er  Er2       1.0  0.95700  0.75000  0.31500  1.0000
  Er  Er3       1.0  0.04260  0.25000  0.68500  1.0000
  Er  Er4       1.0  0.54300  0.25000  0.81500  1.0000
  Pt  Pt1       1.0  0.75000  0.25000  0.12300  1.0000
  Pt  Pt2       1.0  0.25000  0.25000  0.37700  1.0000
  Pt  Pt3       1.0  0.75000  0.75000  0.62300  1.0000
  Pt  Pt4       1.0  0.25000  0.75000  0.87700  1.0000
  Zn  Zn1       1.0  0.13700  0.25000  0.06310  1.0000
  Zn  Zn2       1.0  0.63700  0.25000  0.43700  1.0000
  Zn  Zn3       1.0  0.36300  0.75000  0.56300  1.0000
  Zn  Zn4       1.0  0.86300  0.75000  0.93700  1.0000
