data_image0
_chemical_formula_structural       Gd16Ir4Mg4
_chemical_formula_sum              "Gd16 Ir4 Mg4"
_cell_length_a       9.77522
_cell_length_b       9.77522
_cell_length_c       9.77522
_cell_angle_alpha    120
_cell_angle_beta     90
_cell_angle_gamma    120

_space_group_name_H-M_alt    "P 1"
_space_group_IT_number       1

loop_
  _space_group_symop_operation_xyz
  'x, y, z'

loop_
  _atom_site_type_symbol
  _atom_site_label
  _atom_site_symmetry_multiplicity
  _atom_site_fract_x
  _atom_site_fract_y
  _atom_site_fract_z
  _atom_site_occupancy
  Gd  Gd1       1.0  0.81200  0.00000  0.18800  1.0000
  Gd  Gd2       1.0  0.18800  0.00000  0.18800  1.0000
  Gd  Gd3       1.0  0.18800  0.37600  0.18800  1.0000
  Gd  Gd4       1.0  0.65300  0.30700  0.34700  1.0000
  Gd  Gd5       1.0  0.04000  0.69300  0.34700  1.0000
  Gd  Gd6       1.0  0.65300  0.69300  0.34700  1.0000
  Gd  Gd7       1.0  0.06290  0.12600  0.56300  1.0000
  Gd  Gd8       1.0  0.06290  0.50000  0.56300  1.0000
  Gd  Gd9       1.0  0.43700  0.50000  0.56300  1.0000
  Gd  Gd10      1.0  0.18800  0.00000  0.81200  1.0000
  Gd  Gd11      1.0  0.81200  1.00000  0.81200  1.0000
  Gd  Gd12      1.0  0.81200  0.62400  0.81200  1.0000
  Gd  Gd13      1.0  0.06290  0.50000  0.93700  1.0000
  Gd  Gd14      1.0  0.43700  0.50000  0.93700  1.0000
  Gd  Gd15      1.0  0.43700  0.87400  0.93700  1.0000
  Gd  Gd16      1.0  0.65300  0.30700  0.96000  1.0000
  Ir  Ir1       1.0  0.42400  0.28300  0.14100  1.0000
  Ir  Ir2       1.0  0.85900  0.28300  0.14100  1.0000
  Ir  Ir3       1.0  0.85900  0.71700  0.14100  1.0000
  Ir  Ir4       1.0  0.85900  0.71700  0.57600  1.0000
  Mg  Mg1       1.0  0.42100  0.84100  0.26200  1.0000
  Mg  Mg2       1.0  0.42100  0.15900  0.57900  1.0000
  Mg  Mg3       1.0  0.73800  0.15900  0.57900  1.0000
  Mg  Mg4       1.0  0.42100  0.84100  0.57900  1.0000
