data_image0
_chemical_formula_structural       Br2F2Sr2
_chemical_formula_sum              "Br2 F2 Sr2"
_cell_length_a       4.19929
_cell_length_b       4.19929
_cell_length_c       7.29732
_cell_angle_alpha    90
_cell_angle_beta     90
_cell_angle_gamma    90

_space_group_name_H-M_alt    "P 1"
_space_group_IT_number       1

loop_
  _space_group_symop_operation_xyz
  'x, y, z'

loop_
  _atom_site_type_symbol
  _atom_site_label
  _atom_site_symmetry_multiplicity
  _atom_site_fract_x
  _atom_site_fract_y
  _atom_site_fract_z
  _atom_site_occupancy
  Br  Br1       1.0  0.75000  0.75000  0.35500  1.0000
  Br  Br2       1.0  0.25000  0.25000  0.64500  1.0000
  F   F1        1.0  0.75000  0.25000  0.00000  1.0000
  F   F2        1.0  0.25000  0.75000  0.00000  1.0000
  Sr  Sr1       1.0  0.25000  0.25000  0.18900  1.0000
  Sr  Sr2       1.0  0.75000  0.75000  0.81100  1.0000
