data_image0
_chemical_formula_structural       La2Mg2Na2O12Te2
_chemical_formula_sum              "La2 Mg2 Na2 O12 Te2"
_cell_length_a       5.55548
_cell_length_b       5.52483
_cell_length_c       7.85466
_cell_angle_alpha    90
_cell_angle_beta     90.2127
_cell_angle_gamma    90

_space_group_name_H-M_alt    "P 1"
_space_group_IT_number       1

loop_
  _space_group_symop_operation_xyz
  'x, y, z'

loop_
  _atom_site_type_symbol
  _atom_site_label
  _atom_site_symmetry_multiplicity
  _atom_site_fract_x
  _atom_site_fract_y
  _atom_site_fract_z
  _atom_site_occupancy
  La  La1       1.0  0.75500  0.75000  0.99900  1.0000
  La  La2       1.0  0.24500  0.25000  0.00065  1.0000
  Mg  Mg1       1.0  0.74700  0.25000  0.26700  1.0000
  Mg  Mg2       1.0  0.25300  0.75000  0.73300  1.0000
  Na  Na1       1.0  0.23800  0.25000  0.49900  1.0000
  Na  Na2       1.0  0.76200  0.75000  0.50100  1.0000
  O   O1        1.0  0.80700  0.25000  0.99500  1.0000
  O   O2        1.0  0.19300  0.75000  0.00515  1.0000
  O   O3        1.0  0.49600  0.50700  0.20000  1.0000
  O   O4        1.0  0.49600  0.99300  0.20000  1.0000
  O   O5        1.0  0.01270  0.50300  0.26600  1.0000
  O   O6        1.0  0.01270  0.99700  0.26600  1.0000
  O   O7        1.0  0.33100  0.75000  0.48900  1.0000
  O   O8        1.0  0.66900  0.25000  0.51100  1.0000
  O   O9        1.0  0.98700  0.00340  0.73400  1.0000
  O   O10       1.0  0.98700  0.49700  0.73400  1.0000
  O   O11       1.0  0.50400  0.00669  0.80000  1.0000
  O   O12       1.0  0.50400  0.49300  0.80000  1.0000
  Te  Te1       1.0  0.25500  0.75000  0.25700  1.0000
  Te  Te2       1.0  0.74500  0.25000  0.74300  1.0000
