data_image0
_chemical_formula_structural       Er4Ga4Pd4
_chemical_formula_sum              "Er4 Ga4 Pd4"
_cell_length_a       6.87617
_cell_length_b       4.44791
_cell_length_c       7.63294
_cell_angle_alpha    90
_cell_angle_beta     90
_cell_angle_gamma    90

_space_group_name_H-M_alt    "P 1"
_space_group_IT_number       1

loop_
  _space_group_symop_operation_xyz
  'x, y, z'

loop_
  _atom_site_type_symbol
  _atom_site_label
  _atom_site_symmetry_multiplicity
  _atom_site_fract_x
  _atom_site_fract_y
  _atom_site_fract_z
  _atom_site_occupancy
  Er  Er1       1.0  0.51500  0.75000  0.19900  1.0000
  Er  Er2       1.0  0.01460  0.75000  0.30100  1.0000
  Er  Er3       1.0  0.98500  0.25000  0.69900  1.0000
  Er  Er4       1.0  0.48500  0.25000  0.80100  1.0000
  Ga  Ga1       1.0  0.82400  0.25000  0.07650  1.0000
  Ga  Ga2       1.0  0.32400  0.25000  0.42400  1.0000
  Ga  Ga3       1.0  0.67600  0.75000  0.57600  1.0000
  Ga  Ga4       1.0  0.17600  0.75000  0.92400  1.0000
  Pd  Pd1       1.0  0.22200  0.25000  0.09530  1.0000
  Pd  Pd2       1.0  0.72200  0.25000  0.40500  1.0000
  Pd  Pd3       1.0  0.27800  0.75000  0.59500  1.0000
  Pd  Pd4       1.0  0.77800  0.75000  0.90500  1.0000
