data_image0
_chemical_formula_structural       Mg4Rh4Sm16
_chemical_formula_sum              "Mg4 Rh4 Sm16"
_cell_length_a       9.88326
_cell_length_b       9.88326
_cell_length_c       9.88326
_cell_angle_alpha    120
_cell_angle_beta     90
_cell_angle_gamma    120

_space_group_name_H-M_alt    "P 1"
_space_group_IT_number       1

loop_
  _space_group_symop_operation_xyz
  'x, y, z'

loop_
  _atom_site_type_symbol
  _atom_site_label
  _atom_site_symmetry_multiplicity
  _atom_site_fract_x
  _atom_site_fract_y
  _atom_site_fract_z
  _atom_site_occupancy
  Mg  Mg1       1.0  0.42100  0.84100  0.26200  1.0000
  Mg  Mg2       1.0  0.73800  0.15900  0.57900  1.0000
  Mg  Mg3       1.0  0.42100  0.15900  0.57900  1.0000
  Mg  Mg4       1.0  0.42100  0.84100  0.57900  1.0000
  Rh  Rh1       1.0  0.42500  0.28300  0.14200  1.0000
  Rh  Rh2       1.0  0.85800  0.28300  0.14200  1.0000
  Rh  Rh3       1.0  0.85800  0.71700  0.14200  1.0000
  Rh  Rh4       1.0  0.85800  0.71700  0.57500  1.0000
  Sm  Sm1       1.0  0.18800  0.00000  0.18800  1.0000
  Sm  Sm2       1.0  0.18800  0.37600  0.18800  1.0000
  Sm  Sm3       1.0  0.81200  0.00000  0.18800  1.0000
  Sm  Sm4       1.0  0.65300  0.30700  0.34700  1.0000
  Sm  Sm5       1.0  0.04000  0.69300  0.34700  1.0000
  Sm  Sm6       1.0  0.65300  0.69300  0.34700  1.0000
  Sm  Sm7       1.0  0.06400  0.12800  0.56400  1.0000
  Sm  Sm8       1.0  0.06400  0.50000  0.56400  1.0000
  Sm  Sm9       1.0  0.43600  0.50000  0.56400  1.0000
  Sm  Sm10      1.0  0.18800  1.00000  0.81200  1.0000
  Sm  Sm11      1.0  0.81200  1.00000  0.81200  1.0000
  Sm  Sm12      1.0  0.81200  0.62400  0.81200  1.0000
  Sm  Sm13      1.0  0.43600  0.87200  0.93600  1.0000
  Sm  Sm14      1.0  0.06400  0.50000  0.93600  1.0000
  Sm  Sm15      1.0  0.43600  0.50000  0.93600  1.0000
  Sm  Sm16      1.0  0.65300  0.30700  0.96000  1.0000
