data_image0
_chemical_formula_structural       Al4H20Mg4
_chemical_formula_sum              "Al4 H20 Mg4"
_cell_length_a       4.1927
_cell_length_b       4.43691
_cell_length_c       12.7907
_cell_angle_alpha    90
_cell_angle_beta     90
_cell_angle_gamma    90

_space_group_name_H-M_alt    "P 1"
_space_group_IT_number       1

loop_
  _space_group_symop_operation_xyz
  'x, y, z'

loop_
  _atom_site_type_symbol
  _atom_site_label
  _atom_site_symmetry_multiplicity
  _atom_site_fract_x
  _atom_site_fract_y
  _atom_site_fract_z
  _atom_site_occupancy
  Al  Al1       1.0  0.25100  0.74800  0.09120  1.0000
  Al  Al2       1.0  0.74900  0.24800  0.40900  1.0000
  Al  Al3       1.0  0.24900  0.25200  0.59100  1.0000
  Al  Al4       1.0  0.75100  0.75200  0.90900  1.0000
  H   H1        1.0  0.50200  0.92100  0.00056  1.0000
  H   H2        1.0  0.47100  0.43500  0.08970  1.0000
  H   H3        1.0  0.03150  0.06150  0.09030  1.0000
  H   H4        1.0  0.02550  0.59500  0.19600  1.0000
  H   H5        1.0  0.47600  0.90000  0.19600  1.0000
  H   H6        1.0  0.52400  0.40000  0.30400  1.0000
  H   H7        1.0  0.97500  0.09540  0.30400  1.0000
  H   H8        1.0  0.96800  0.56200  0.41000  1.0000
  H   H9        1.0  0.52900  0.93500  0.41000  1.0000
  H   H10       1.0  0.49800  0.42100  0.49900  1.0000
  H   H11       1.0  0.99800  0.07930  0.50100  1.0000
  H   H12       1.0  0.02860  0.56500  0.59000  1.0000
  H   H13       1.0  0.46800  0.93800  0.59000  1.0000
  H   H14       1.0  0.47500  0.40500  0.69600  1.0000
  H   H15       1.0  0.02400  0.10000  0.69600  1.0000
  H   H16       1.0  0.97600  0.60000  0.80400  1.0000
  H   H17       1.0  0.52500  0.90500  0.80400  1.0000
  H   H18       1.0  0.53200  0.43800  0.91000  1.0000
  H   H19       1.0  0.97100  0.06480  0.91000  1.0000
  H   H20       1.0  0.00195  0.57900  0.99900  1.0000
  Mg  Mg1       1.0  0.75000  0.24800  0.17900  1.0000
  Mg  Mg2       1.0  0.25000  0.74800  0.32100  1.0000
  Mg  Mg3       1.0  0.75000  0.75200  0.67900  1.0000
  Mg  Mg4       1.0  0.25000  0.25200  0.82100  1.0000
