data_image0
_chemical_formula_structural       H20Mg6Sr4
_chemical_formula_sum              "H20 Mg6 Sr4"
_cell_length_a       5.61963
_cell_length_b       7.30774
_cell_length_c       9.07742
_cell_angle_alpha    110.224
_cell_angle_beta     108.031
_cell_angle_gamma    90

_space_group_name_H-M_alt    "P 1"
_space_group_IT_number       1

loop_
  _space_group_symop_operation_xyz
  'x, y, z'

loop_
  _atom_site_type_symbol
  _atom_site_label
  _atom_site_symmetry_multiplicity
  _atom_site_fract_x
  _atom_site_fract_y
  _atom_site_fract_z
  _atom_site_occupancy
  H   H1        1.0  0.51800  0.19600  0.03610  1.0000
  H   H2        1.0  0.01990  0.17600  0.03980  1.0000
  H   H3        1.0  0.39100  0.02690  0.22700  1.0000
  H   H4        1.0  0.83600  0.02690  0.22700  1.0000
  H   H5        1.0  0.13500  0.74200  0.27000  1.0000
  H   H6        1.0  0.40000  0.48300  0.30800  1.0000
  H   H7        1.0  0.90900  0.48300  0.30800  1.0000
  H   H8        1.0  0.23700  0.29300  0.47500  1.0000
  H   H9        1.0  0.00000  0.00000  0.50000  1.0000
  H   H10       1.0  0.50000  0.00000  0.50000  1.0000
  H   H11       1.0  0.76300  0.70700  0.52500  1.0000
  H   H12       1.0  0.09120  0.51700  0.69200  1.0000
  H   H13       1.0  0.60000  0.51700  0.69200  1.0000
  H   H14       1.0  0.86500  0.25800  0.73000  1.0000
  H   H15       1.0  0.16400  0.97300  0.77300  1.0000
  H   H16       1.0  0.60900  0.97300  0.77300  1.0000
  H   H17       1.0  0.98000  0.82400  0.96000  1.0000
  H   H18       1.0  0.48200  0.80400  0.96400  1.0000
  H   H19       1.0  0.23400  0.50000  0.00000  1.0000
  H   H20       1.0  0.76600  0.50000  0.00000  1.0000
  Mg  Mg1       1.0  0.25900  0.00000  0.00000  1.0000
  Mg  Mg2       1.0  0.74100  0.00000  0.00000  1.0000
  Mg  Mg3       1.0  0.07520  0.44700  0.15000  1.0000
  Mg  Mg4       1.0  0.17400  0.02090  0.34700  1.0000
  Mg  Mg5       1.0  0.82600  0.97900  0.65300  1.0000
  Mg  Mg6       1.0  0.92500  0.55300  0.85000  1.0000
  Sr  Sr1       1.0  0.61600  0.72000  0.23200  1.0000
  Sr  Sr2       1.0  0.72000  0.31300  0.44000  1.0000
  Sr  Sr3       1.0  0.28000  0.68700  0.56000  1.0000
  Sr  Sr4       1.0  0.38400  0.28000  0.76800  1.0000
