data_image0
_chemical_formula_structural       Au4F16Mg2
_chemical_formula_sum              "Au4 F16 Mg2"
_cell_length_a       5.36145
_cell_length_b       5.20367
_cell_length_c       10.4487
_cell_angle_alpha    90
_cell_angle_beta     109.174
_cell_angle_gamma    90

_space_group_name_H-M_alt    "P 1"
_space_group_IT_number       1

loop_
  _space_group_symop_operation_xyz
  'x, y, z'

loop_
  _atom_site_type_symbol
  _atom_site_label
  _atom_site_symmetry_multiplicity
  _atom_site_fract_x
  _atom_site_fract_y
  _atom_site_fract_z
  _atom_site_occupancy
  Au  Au1       1.0  0.13600  0.19100  0.15900  1.0000
  Au  Au2       1.0  0.86400  0.69100  0.34100  1.0000
  Au  Au3       1.0  0.13600  0.30900  0.65900  1.0000
  Au  Au4       1.0  0.86400  0.80900  0.84100  1.0000
  F   F1        1.0  0.82600  0.31100  0.01240  1.0000
  F   F2        1.0  0.34100  0.17900  0.03250  1.0000
  F   F3        1.0  0.55300  0.57600  0.19300  1.0000
  F   F4        1.0  0.06820  0.69200  0.21900  1.0000
  F   F5        1.0  0.93200  0.19200  0.28100  1.0000
  F   F6        1.0  0.44700  0.07640  0.30700  1.0000
  F   F7        1.0  0.65900  0.67900  0.46700  1.0000
  F   F8        1.0  0.17400  0.81100  0.48800  1.0000
  F   F9        1.0  0.82600  0.18900  0.51200  1.0000
  F   F10       1.0  0.34100  0.32100  0.53300  1.0000
  F   F11       1.0  0.55300  0.92400  0.69300  1.0000
  F   F12       1.0  0.06820  0.80800  0.71900  1.0000
  F   F13       1.0  0.93200  0.30800  0.78100  1.0000
  F   F14       1.0  0.44700  0.42400  0.80700  1.0000
  F   F15       1.0  0.65900  0.82100  0.96700  1.0000
  F   F16       1.0  0.17400  0.68900  0.98800  1.0000
  Mg  Mg1       1.0  0.50000  0.50000  0.00000  1.0000
  Mg  Mg2       1.0  0.50000  0.00000  0.50000  1.0000
