data_image0
_chemical_formula_structural       Li8Sn8Y8
_chemical_formula_sum              "Li8 Sn8 Y8"
_cell_length_a       9.33731
_cell_length_b       9.33731
_cell_length_c       7.32414
_cell_angle_alpha    90
_cell_angle_beta     90
_cell_angle_gamma    120

_space_group_name_H-M_alt    "P 1"
_space_group_IT_number       1

loop_
  _space_group_symop_operation_xyz
  'x, y, z'

loop_
  _atom_site_type_symbol
  _atom_site_label
  _atom_site_symmetry_multiplicity
  _atom_site_fract_x
  _atom_site_fract_y
  _atom_site_fract_z
  _atom_site_occupancy
  Li  Li1       1.0  0.16700  0.33400  0.19400  1.0000
  Li  Li2       1.0  0.66600  0.83300  0.19400  1.0000
  Li  Li3       1.0  0.16700  0.83300  0.19400  1.0000
  Li  Li4       1.0  0.66700  0.33300  0.31300  1.0000
  Li  Li5       1.0  0.83300  0.16700  0.69400  1.0000
  Li  Li6       1.0  0.33400  0.16700  0.69400  1.0000
  Li  Li7       1.0  0.83300  0.66600  0.69400  1.0000
  Li  Li8       1.0  0.33300  0.66700  0.81300  1.0000
  Sn  Sn1       1.0  0.33300  0.66700  0.22300  1.0000
  Sn  Sn2       1.0  0.83300  0.16700  0.25600  1.0000
  Sn  Sn3       1.0  0.33300  0.16700  0.25600  1.0000
  Sn  Sn4       1.0  0.83300  0.66700  0.25600  1.0000
  Sn  Sn5       1.0  0.66700  0.33300  0.72300  1.0000
  Sn  Sn6       1.0  0.16700  0.33300  0.75600  1.0000
  Sn  Sn7       1.0  0.16700  0.83300  0.75600  1.0000
  Sn  Sn8       1.0  0.66700  0.83300  0.75600  1.0000
  Y   Y1        1.0  0.00000  0.00000  0.98600  1.0000
  Y   Y2        1.0  0.51300  0.48700  0.99100  1.0000
  Y   Y3        1.0  0.51300  0.02510  0.99100  1.0000
  Y   Y4        1.0  0.97500  0.48700  0.99100  1.0000
  Y   Y5        1.0  0.00000  0.00000  0.48600  1.0000
  Y   Y6        1.0  0.48700  0.51300  0.49100  1.0000
  Y   Y7        1.0  0.02510  0.51300  0.49100  1.0000
  Y   Y8        1.0  0.48700  0.97500  0.49100  1.0000
