data_image0
_chemical_formula_structural       K2Sb4
_chemical_formula_sum              "K2 Sb4"
_cell_length_a       4.30062
_cell_length_b       7.17702
_cell_length_c       7.50557
_cell_angle_alpha    93.5338
_cell_angle_beta     106.648
_cell_angle_gamma    90

_space_group_name_H-M_alt    "P 1"
_space_group_IT_number       1

loop_
  _space_group_symop_operation_xyz
  'x, y, z'

loop_
  _atom_site_type_symbol
  _atom_site_label
  _atom_site_symmetry_multiplicity
  _atom_site_fract_x
  _atom_site_fract_y
  _atom_site_fract_z
  _atom_site_occupancy
  K   K1        1.0  0.63500  0.63000  0.26900  1.0000
  K   K2        1.0  0.36500  0.37000  0.73100  1.0000
  Sb  Sb1       1.0  0.05200  0.18100  0.10400  1.0000
  Sb  Sb2       1.0  0.68500  0.12900  0.37000  1.0000
  Sb  Sb3       1.0  0.31500  0.87100  0.63000  1.0000
  Sb  Sb4       1.0  0.94800  0.81900  0.89600  1.0000
