data_image0
_chemical_formula_structural       Ba6Mg2O18Sb4
_chemical_formula_sum              "Ba6 Mg2 O18 Sb4"
_cell_length_a       5.85012
_cell_length_b       5.85009
_cell_length_c       14.4624
_cell_angle_alpha    90
_cell_angle_beta     90
_cell_angle_gamma    120

_space_group_name_H-M_alt    "P 1"
_space_group_IT_number       1

loop_
  _space_group_symop_operation_xyz
  'x, y, z'

loop_
  _atom_site_type_symbol
  _atom_site_label
  _atom_site_symmetry_multiplicity
  _atom_site_fract_x
  _atom_site_fract_y
  _atom_site_fract_z
  _atom_site_occupancy
  Ba  Ba1       1.0  0.66700  0.33300  0.08890  1.0000
  Ba  Ba2       1.0  0.00000  0.00000  0.25000  1.0000
  Ba  Ba3       1.0  0.66700  0.33300  0.41100  1.0000
  Ba  Ba4       1.0  0.33300  0.66700  0.58900  1.0000
  Ba  Ba5       1.0  0.00000  0.00000  0.75000  1.0000
  Ba  Ba6       1.0  0.33300  0.66700  0.91100  1.0000
  Mg  Mg1       1.0  0.00000  0.00000  0.00000  1.0000
  Mg  Mg2       1.0  0.00000  0.00000  0.50000  1.0000
  O   O1        1.0  0.16800  0.83200  0.08340  1.0000
  O   O2        1.0  0.66500  0.83200  0.08340  1.0000
  O   O3        1.0  0.16800  0.33500  0.08340  1.0000
  O   O4        1.0  0.48400  0.96700  0.25000  1.0000
  O   O5        1.0  0.03270  0.51600  0.25000  1.0000
  O   O6        1.0  0.48400  0.51600  0.25000  1.0000
  O   O7        1.0  0.16800  0.33500  0.41700  1.0000
  O   O8        1.0  0.16800  0.83200  0.41700  1.0000
  O   O9        1.0  0.66500  0.83200  0.41700  1.0000
  O   O10       1.0  0.33500  0.16800  0.58300  1.0000
  O   O11       1.0  0.83200  0.16800  0.58300  1.0000
  O   O12       1.0  0.83200  0.66500  0.58300  1.0000
  O   O13       1.0  0.51600  0.03270  0.75000  1.0000
  O   O14       1.0  0.96700  0.48400  0.75000  1.0000
  O   O15       1.0  0.51600  0.48400  0.75000  1.0000
  O   O16       1.0  0.83200  0.66500  0.91700  1.0000
  O   O17       1.0  0.33500  0.16800  0.91700  1.0000
  O   O18       1.0  0.83200  0.16800  0.91700  1.0000
  Sb  Sb1       1.0  0.33300  0.66700  0.15100  1.0000
  Sb  Sb2       1.0  0.33300  0.66700  0.34900  1.0000
  Sb  Sb3       1.0  0.66700  0.33300  0.65100  1.0000
  Sb  Sb4       1.0  0.66700  0.33300  0.84900  1.0000
