data_image0
_chemical_formula_structural       Rh4Si4Ti4
_chemical_formula_sum              "Rh4 Si4 Ti4"
_cell_length_a       6.26394
_cell_length_b       3.82891
_cell_length_c       7.26933
_cell_angle_alpha    90
_cell_angle_beta     90
_cell_angle_gamma    90

_space_group_name_H-M_alt    "P 1"
_space_group_IT_number       1

loop_
  _space_group_symop_operation_xyz
  'x, y, z'

loop_
  _atom_site_type_symbol
  _atom_site_label
  _atom_site_symmetry_multiplicity
  _atom_site_fract_x
  _atom_site_fract_y
  _atom_site_fract_z
  _atom_site_occupancy
  Rh  Rh1       1.0  0.34700  0.75000  0.06330  1.0000
  Rh  Rh2       1.0  0.84700  0.75000  0.43700  1.0000
  Rh  Rh3       1.0  0.15300  0.25000  0.56300  1.0000
  Rh  Rh4       1.0  0.65300  0.25000  0.93700  1.0000
  Si  Si1       1.0  0.73200  0.75000  0.12200  1.0000
  Si  Si2       1.0  0.23200  0.75000  0.37800  1.0000
  Si  Si3       1.0  0.76800  0.25000  0.62200  1.0000
  Si  Si4       1.0  0.26800  0.25000  0.87800  1.0000
  Ti  Ti1       1.0  0.02430  0.25000  0.18300  1.0000
  Ti  Ti2       1.0  0.52400  0.25000  0.31700  1.0000
  Ti  Ti3       1.0  0.47600  0.75000  0.68300  1.0000
  Ti  Ti4       1.0  0.97600  0.75000  0.81700  1.0000
