data_image0
_chemical_formula_structural       Fe2Mg2O2S2
_chemical_formula_sum              "Fe2 Mg2 O2 S2"
_cell_length_a       3.47603
_cell_length_b       3.44051
_cell_length_c       11.5346
_cell_angle_alpha    90
_cell_angle_beta     90
_cell_angle_gamma    120.342

_space_group_name_H-M_alt    "P 1"
_space_group_IT_number       1

loop_
  _space_group_symop_operation_xyz
  'x, y, z'

loop_
  _atom_site_type_symbol
  _atom_site_label
  _atom_site_symmetry_multiplicity
  _atom_site_fract_x
  _atom_site_fract_y
  _atom_site_fract_z
  _atom_site_occupancy
  Fe  Fe1       1.0  0.99000  0.98000  0.49300  1.0000
  Fe  Fe2       1.0  0.00999  0.02000  0.99300  1.0000
  Mg  Mg1       1.0  0.33700  0.67300  0.26400  1.0000
  Mg  Mg2       1.0  0.66300  0.32700  0.76400  1.0000
  O   O1        1.0  0.00402  0.00804  0.32700  1.0000
  O   O2        1.0  0.99600  0.99200  0.82700  1.0000
  S   S1        1.0  0.66800  0.33600  0.10400  1.0000
  S   S2        1.0  0.33200  0.66400  0.60400  1.0000
