data_image0
_chemical_formula_structural       Ag2Ba2O2S2
_chemical_formula_sum              "Ag2 Ba2 O2 S2"
_cell_length_a       4.2401
_cell_length_b       4.24001
_cell_length_c       11.9002
_cell_angle_alpha    90
_cell_angle_beta     90
_cell_angle_gamma    120.001

_space_group_name_H-M_alt    "P 1"
_space_group_IT_number       1

loop_
  _space_group_symop_operation_xyz
  'x, y, z'

loop_
  _atom_site_type_symbol
  _atom_site_label
  _atom_site_symmetry_multiplicity
  _atom_site_fract_x
  _atom_site_fract_y
  _atom_site_fract_z
  _atom_site_occupancy
  Ag  Ag1       1.0  0.00000  0.00000  0.01670  1.0000
  Ag  Ag2       1.0  0.00000  0.00000  0.51700  1.0000
  Ba  Ba1       1.0  0.33300  0.66700  0.27300  1.0000
  Ba  Ba2       1.0  0.66700  0.33300  0.77300  1.0000
  O   O1        1.0  0.00000  0.00000  0.33100  1.0000
  O   O2        1.0  0.00000  0.00000  0.83100  1.0000
  S   S1        1.0  0.66700  0.33300  0.06730  1.0000
  S   S2        1.0  0.33300  0.66700  0.56700  1.0000
