data_image0
_chemical_formula_structural       Ba2Fe2O2S2
_chemical_formula_sum              "Ba2 Fe2 O2 S2"
_cell_length_a       4.12233
_cell_length_b       4.13112
_cell_length_c       12.0428
_cell_angle_alpha    90
_cell_angle_beta     90
_cell_angle_gamma    119.93

_space_group_name_H-M_alt    "P 1"
_space_group_IT_number       1

loop_
  _space_group_symop_operation_xyz
  'x, y, z'

loop_
  _atom_site_type_symbol
  _atom_site_label
  _atom_site_symmetry_multiplicity
  _atom_site_fract_x
  _atom_site_fract_y
  _atom_site_fract_z
  _atom_site_occupancy
  Ba  Ba1       1.0  0.33100  0.66200  0.26900  1.0000
  Ba  Ba2       1.0  0.66900  0.33800  0.76900  1.0000
  Fe  Fe1       1.0  0.99400  0.98900  0.00276  1.0000
  Fe  Fe2       1.0  0.00562  0.01120  0.50300  1.0000
  O   O1        1.0  0.99700  0.99400  0.34600  1.0000
  O   O2        1.0  0.00323  0.00646  0.84600  1.0000
  S   S1        1.0  0.66800  0.33500  0.07010  1.0000
  S   S2        1.0  0.33200  0.66500  0.57000  1.0000
