data_image0
_chemical_formula_structural       Cd2Fe2O2S2
_chemical_formula_sum              "Cd2 Fe2 O2 S2"
_cell_length_a       3.56971
_cell_length_b       3.55862
_cell_length_c       12.0693
_cell_angle_alpha    90
_cell_angle_beta     90
_cell_angle_gamma    120.103

_space_group_name_H-M_alt    "P 1"
_space_group_IT_number       1

loop_
  _space_group_symop_operation_xyz
  'x, y, z'

loop_
  _atom_site_type_symbol
  _atom_site_label
  _atom_site_symmetry_multiplicity
  _atom_site_fract_x
  _atom_site_fract_y
  _atom_site_fract_z
  _atom_site_occupancy
  Cd  Cd1       1.0  0.00211  0.00422  0.49400  1.0000
  Cd  Cd2       1.0  0.99800  0.99600  0.99400  1.0000
  Fe  Fe1       1.0  0.32700  0.65400  0.25900  1.0000
  Fe  Fe2       1.0  0.67300  0.34600  0.75900  1.0000
  O   O1        1.0  0.00840  0.01680  0.31700  1.0000
  O   O2        1.0  0.99200  0.98300  0.81700  1.0000
  S   S1        1.0  0.66400  0.32800  0.11800  1.0000
  S   S2        1.0  0.33600  0.67200  0.61800  1.0000
