data_image0
_chemical_formula_structural       Fe2O2S2Sn2
_chemical_formula_sum              "Fe2 O2 S2 Sn2"
_cell_length_a       3.7999
_cell_length_b       3.80946
_cell_length_c       12.0493
_cell_angle_alpha    90
_cell_angle_beta     90
_cell_angle_gamma    119.917

_space_group_name_H-M_alt    "P 1"
_space_group_IT_number       1

loop_
  _space_group_symop_operation_xyz
  'x, y, z'

loop_
  _atom_site_type_symbol
  _atom_site_label
  _atom_site_symmetry_multiplicity
  _atom_site_fract_x
  _atom_site_fract_y
  _atom_site_fract_z
  _atom_site_occupancy
  Fe  Fe1       1.0  0.99200  0.98400  0.00108  1.0000
  Fe  Fe2       1.0  0.00816  0.01630  0.50100  1.0000
  O   O1        1.0  0.99400  0.98700  0.34000  1.0000
  O   O2        1.0  0.00638  0.01280  0.84000  1.0000
  S   S1        1.0  0.66300  0.32500  0.08260  1.0000
  S   S2        1.0  0.33700  0.67500  0.58300  1.0000
  Sn  Sn1       1.0  0.33100  0.66300  0.26400  1.0000
  Sn  Sn2       1.0  0.66900  0.33700  0.76400  1.0000
