data_image0
_chemical_formula_structural       Al4Au4Ca4
_chemical_formula_sum              "Al4 Au4 Ca4"
_cell_length_a       7.31802
_cell_length_b       4.53354
_cell_length_c       7.81008
_cell_angle_alpha    90
_cell_angle_beta     90
_cell_angle_gamma    90

_space_group_name_H-M_alt    "P 1"
_space_group_IT_number       1

loop_
  _space_group_symop_operation_xyz
  'x, y, z'

loop_
  _atom_site_type_symbol
  _atom_site_label
  _atom_site_symmetry_multiplicity
  _atom_site_fract_x
  _atom_site_fract_y
  _atom_site_fract_z
  _atom_site_occupancy
  Al  Al1       1.0  0.15500  0.25000  0.06890  1.0000
  Al  Al2       1.0  0.65500  0.25000  0.43100  1.0000
  Al  Al3       1.0  0.34500  0.75000  0.56900  1.0000
  Al  Al4       1.0  0.84500  0.75000  0.93100  1.0000
  Au  Au1       1.0  0.79100  0.25000  0.11300  1.0000
  Au  Au2       1.0  0.29100  0.25000  0.38700  1.0000
  Au  Au3       1.0  0.70900  0.75000  0.61300  1.0000
  Au  Au4       1.0  0.20900  0.75000  0.88700  1.0000
  Ca  Ca1       1.0  0.48600  0.75000  0.18300  1.0000
  Ca  Ca2       1.0  0.98600  0.75000  0.31700  1.0000
  Ca  Ca3       1.0  0.01410  0.25000  0.68300  1.0000
  Ca  Ca4       1.0  0.51400  0.25000  0.81700  1.0000
