data_image0
_chemical_formula_structural       Cd2Mn2O2S2
_chemical_formula_sum              "Cd2 Mn2 O2 S2"
_cell_length_a       3.72534
_cell_length_b       3.72539
_cell_length_c       11.7834
_cell_angle_alpha    90
_cell_angle_beta     90
_cell_angle_gamma    120

_space_group_name_H-M_alt    "P 1"
_space_group_IT_number       1

loop_
  _space_group_symop_operation_xyz
  'x, y, z'

loop_
  _atom_site_type_symbol
  _atom_site_label
  _atom_site_symmetry_multiplicity
  _atom_site_fract_x
  _atom_site_fract_y
  _atom_site_fract_z
  _atom_site_occupancy
  Cd  Cd1       1.0  0.33300  0.66700  0.26100  1.0000
  Cd  Cd2       1.0  0.66700  0.33300  0.76100  1.0000
  Mn  Mn1       1.0  0.00000  0.00000  0.49800  1.0000
  Mn  Mn2       1.0  0.00000  0.00000  0.99800  1.0000
  O   O1        1.0  0.00000  0.00000  0.33000  1.0000
  O   O2        1.0  0.00000  0.00000  0.83000  1.0000
  S   S1        1.0  0.66700  0.33300  0.09860  1.0000
  S   S2        1.0  0.33300  0.66700  0.59900  1.0000
