data_image0
_chemical_formula_structural       Mg8Si16Sr8
_chemical_formula_sum              "Mg8 Si16 Sr8"
_cell_length_a       14.3886
_cell_length_b       4.43485
_cell_length_c       11.419
_cell_angle_alpha    90
_cell_angle_beta     90
_cell_angle_gamma    90

_space_group_name_H-M_alt    "P 1"
_space_group_IT_number       1

loop_
  _space_group_symop_operation_xyz
  'x, y, z'

loop_
  _atom_site_type_symbol
  _atom_site_label
  _atom_site_symmetry_multiplicity
  _atom_site_fract_x
  _atom_site_fract_y
  _atom_site_fract_z
  _atom_site_occupancy
  Mg  Mg1       1.0  0.94000  0.25000  0.05800  1.0000
  Mg  Mg2       1.0  0.81000  0.75000  0.18000  1.0000
  Mg  Mg3       1.0  0.31000  0.75000  0.32000  1.0000
  Mg  Mg4       1.0  0.44000  0.25000  0.44200  1.0000
  Mg  Mg5       1.0  0.56000  0.75000  0.55800  1.0000
  Mg  Mg6       1.0  0.69000  0.25000  0.68000  1.0000
  Mg  Mg7       1.0  0.19000  0.25000  0.82000  1.0000
  Mg  Mg8       1.0  0.06000  0.75000  0.94200  1.0000
  Si  Si1       1.0  0.46800  0.25000  0.02760  1.0000
  Si  Si2       1.0  0.13200  0.25000  0.04770  1.0000
  Si  Si3       1.0  0.39300  0.25000  0.21200  1.0000
  Si  Si4       1.0  0.22300  0.25000  0.22600  1.0000
  Si  Si5       1.0  0.72300  0.25000  0.27400  1.0000
  Si  Si6       1.0  0.89300  0.25000  0.28800  1.0000
  Si  Si7       1.0  0.63200  0.25000  0.45200  1.0000
  Si  Si8       1.0  0.96800  0.25000  0.47200  1.0000
  Si  Si9       1.0  0.03240  0.75000  0.52800  1.0000
  Si  Si10      1.0  0.36800  0.75000  0.54800  1.0000
  Si  Si11      1.0  0.10700  0.75000  0.71200  1.0000
  Si  Si12      1.0  0.27700  0.75000  0.72600  1.0000
  Si  Si13      1.0  0.77700  0.75000  0.77400  1.0000
  Si  Si14      1.0  0.60700  0.75000  0.78800  1.0000
  Si  Si15      1.0  0.86800  0.75000  0.95200  1.0000
  Si  Si16      1.0  0.53200  0.75000  0.97200  1.0000
  Sr  Sr1       1.0  0.30400  0.75000  0.02290  1.0000
  Sr  Sr2       1.0  0.56100  0.75000  0.24100  1.0000
  Sr  Sr3       1.0  0.06140  0.75000  0.25900  1.0000
  Sr  Sr4       1.0  0.80400  0.75000  0.47700  1.0000
  Sr  Sr5       1.0  0.19600  0.25000  0.52300  1.0000
  Sr  Sr6       1.0  0.93900  0.25000  0.74100  1.0000
  Sr  Sr7       1.0  0.43900  0.25000  0.75900  1.0000
  Sr  Sr8       1.0  0.69600  0.25000  0.97700  1.0000
