data_image0
_chemical_formula_structural       Co2Fe2O2S2
_chemical_formula_sum              "Co2 Fe2 O2 S2"
_cell_length_a       3.46704
_cell_length_b       3.46497
_cell_length_c       11.0628
_cell_angle_alpha    90
_cell_angle_beta     90
_cell_angle_gamma    120.02

_space_group_name_H-M_alt    "P 1"
_space_group_IT_number       1

loop_
  _space_group_symop_operation_xyz
  'x, y, z'

loop_
  _atom_site_type_symbol
  _atom_site_label
  _atom_site_symmetry_multiplicity
  _atom_site_fract_x
  _atom_site_fract_y
  _atom_site_fract_z
  _atom_site_occupancy
  Co  Co1       1.0  0.99800  0.99600  0.49800  1.0000
  Co  Co2       1.0  0.00220  0.00440  0.99800  1.0000
  Fe  Fe1       1.0  0.32300  0.64600  0.26100  1.0000
  Fe  Fe2       1.0  0.67700  0.35400  0.76100  1.0000
  O   O1        1.0  0.00575  0.01150  0.32800  1.0000
  O   O2        1.0  0.99400  0.98900  0.82800  1.0000
  S   S1        1.0  0.66800  0.33700  0.10100  1.0000
  S   S2        1.0  0.33200  0.66300  0.60100  1.0000
