data_image0
_chemical_formula_structural       Ca4Pt4Sb4
_chemical_formula_sum              "Ca4 Pt4 Sb4"
_cell_length_a       7.37927
_cell_length_b       4.63049
_cell_length_c       7.95917
_cell_angle_alpha    90
_cell_angle_beta     90
_cell_angle_gamma    90

_space_group_name_H-M_alt    "P 1"
_space_group_IT_number       1

loop_
  _space_group_symop_operation_xyz
  'x, y, z'

loop_
  _atom_site_type_symbol
  _atom_site_label
  _atom_site_symmetry_multiplicity
  _atom_site_fract_x
  _atom_site_fract_y
  _atom_site_fract_z
  _atom_site_occupancy
  Ca  Ca1       1.0  0.49400  0.75000  0.19600  1.0000
  Ca  Ca2       1.0  0.99400  0.75000  0.30400  1.0000
  Ca  Ca3       1.0  0.00640  0.25000  0.69600  1.0000
  Ca  Ca4       1.0  0.50600  0.25000  0.80400  1.0000
  Pt  Pt1       1.0  0.80300  0.25000  0.08480  1.0000
  Pt  Pt2       1.0  0.30300  0.25000  0.41500  1.0000
  Pt  Pt3       1.0  0.69700  0.75000  0.58500  1.0000
  Pt  Pt4       1.0  0.19700  0.75000  0.91500  1.0000
  Sb  Sb1       1.0  0.18800  0.25000  0.09080  1.0000
  Sb  Sb2       1.0  0.68800  0.25000  0.40900  1.0000
  Sb  Sb3       1.0  0.31200  0.75000  0.59100  1.0000
  Sb  Sb4       1.0  0.81200  0.75000  0.90900  1.0000
