data_image0
_chemical_formula_structural       Br2N2Zr2
_chemical_formula_sum              "Br2 N2 Zr2"
_cell_length_a       4.15794
_cell_length_b       3.62634
_cell_length_c       8.65395
_cell_angle_alpha    90
_cell_angle_beta     90
_cell_angle_gamma    90

_space_group_name_H-M_alt    "P 1"
_space_group_IT_number       1

loop_
  _space_group_symop_operation_xyz
  'x, y, z'

loop_
  _atom_site_type_symbol
  _atom_site_label
  _atom_site_symmetry_multiplicity
  _atom_site_fract_x
  _atom_site_fract_y
  _atom_site_fract_z
  _atom_site_occupancy
  Br  Br1       1.0  0.00000  0.00000  0.34500  1.0000
  Br  Br2       1.0  0.50000  0.50000  0.65500  1.0000
  N   N1        1.0  0.50000  0.50000  0.03480  1.0000
  N   N2        1.0  0.00000  0.00000  0.96500  1.0000
  Zr  Zr1       1.0  0.00000  0.50000  0.10300  1.0000
  Zr  Zr2       1.0  0.50000  0.00000  0.89700  1.0000
