data_image0
_chemical_formula_structural       Co2O2Pb2S2
_chemical_formula_sum              "Co2 O2 Pb2 S2"
_cell_length_a       3.21588
_cell_length_b       3.21564
_cell_length_c       14.4931
_cell_angle_alpha    90
_cell_angle_beta     90
_cell_angle_gamma    120.003

_space_group_name_H-M_alt    "P 1"
_space_group_IT_number       1

loop_
  _space_group_symop_operation_xyz
  'x, y, z'

loop_
  _atom_site_type_symbol
  _atom_site_label
  _atom_site_symmetry_multiplicity
  _atom_site_fract_x
  _atom_site_fract_y
  _atom_site_fract_z
  _atom_site_occupancy
  Co  Co1       1.0  0.33400  0.66800  0.24600  1.0000
  Co  Co2       1.0  0.66600  0.33200  0.74600  1.0000
  O   O1        1.0  0.00063  0.00126  0.31100  1.0000
  O   O2        1.0  0.99900  0.99900  0.81100  1.0000
  Pb  Pb1       1.0  0.99700  0.99500  0.46600  1.0000
  Pb  Pb2       1.0  0.00275  0.00549  0.96600  1.0000
  S   S1        1.0  0.66700  0.33500  0.16500  1.0000
  S   S2        1.0  0.33300  0.66500  0.66500  1.0000
