data_image0
_chemical_formula_structural       Er2Sn4
_chemical_formula_sum              "Er2 Sn4"
_cell_length_a       4.31782
_cell_length_b       4.40063
_cell_length_c       8.38924
_cell_angle_alpha    74.7947
_cell_angle_beta     90
_cell_angle_gamma    90

_space_group_name_H-M_alt    "P 1"
_space_group_IT_number       1

loop_
  _space_group_symop_operation_xyz
  'x, y, z'

loop_
  _atom_site_type_symbol
  _atom_site_label
  _atom_site_symmetry_multiplicity
  _atom_site_fract_x
  _atom_site_fract_y
  _atom_site_fract_z
  _atom_site_occupancy
  Er  Er1       1.0  0.25000  0.90200  0.19700  1.0000
  Er  Er2       1.0  0.75000  0.09850  0.80300  1.0000
  Sn  Sn1       1.0  0.75000  0.43600  0.12900  1.0000
  Sn  Sn2       1.0  0.25000  0.25300  0.49300  1.0000
  Sn  Sn3       1.0  0.75000  0.74700  0.50700  1.0000
  Sn  Sn4       1.0  0.25000  0.56400  0.87100  1.0000
