data_image0
_chemical_formula_structural       Mg2Mn2O2S2
_chemical_formula_sum              "Mg2 Mn2 O2 S2"
_cell_length_a       3.48912
_cell_length_b       3.48914
_cell_length_c       11.7382
_cell_angle_alpha    90
_cell_angle_beta     90
_cell_angle_gamma    120

_space_group_name_H-M_alt    "P 1"
_space_group_IT_number       1

loop_
  _space_group_symop_operation_xyz
  'x, y, z'

loop_
  _atom_site_type_symbol
  _atom_site_label
  _atom_site_symmetry_multiplicity
  _atom_site_fract_x
  _atom_site_fract_y
  _atom_site_fract_z
  _atom_site_occupancy
  Mg  Mg1       1.0  0.33300  0.66700  0.26400  1.0000
  Mg  Mg2       1.0  0.66700  0.33300  0.76400  1.0000
  Mn  Mn1       1.0  0.00000  0.00000  0.49300  1.0000
  Mn  Mn2       1.0  0.00000  0.00000  0.99300  1.0000
  O   O1        1.0  0.00000  0.00000  0.32400  1.0000
  O   O2        1.0  0.00000  0.00000  0.82400  1.0000
  S   S1        1.0  0.66700  0.33300  0.10700  1.0000
  S   S2        1.0  0.33300  0.66700  0.60700  1.0000
