data_image0
_chemical_formula_structural       Ca4Pd4Si4
_chemical_formula_sum              "Ca4 Pd4 Si4"
_cell_length_a       5.87434
_cell_length_b       5.72354
_cell_length_c       7.41104
_cell_angle_alpha    90
_cell_angle_beta     109.452
_cell_angle_gamma    90

_space_group_name_H-M_alt    "P 1"
_space_group_IT_number       1

loop_
  _space_group_symop_operation_xyz
  'x, y, z'

loop_
  _atom_site_type_symbol
  _atom_site_label
  _atom_site_symmetry_multiplicity
  _atom_site_fract_x
  _atom_site_fract_y
  _atom_site_fract_z
  _atom_site_occupancy
  Ca  Ca1       1.0  0.31900  0.12500  0.11600  1.0000
  Ca  Ca2       1.0  0.18100  0.62500  0.38400  1.0000
  Ca  Ca3       1.0  0.81900  0.37500  0.61600  1.0000
  Ca  Ca4       1.0  0.68100  0.87500  0.88400  1.0000
  Pd  Pd1       1.0  0.57800  0.61100  0.19100  1.0000
  Pd  Pd2       1.0  0.92200  0.11100  0.30900  1.0000
  Pd  Pd3       1.0  0.07820  0.88900  0.69100  1.0000
  Pd  Pd4       1.0  0.42200  0.38900  0.80900  1.0000
  Si  Si1       1.0  0.83100  0.38300  0.04220  1.0000
  Si  Si2       1.0  0.66900  0.88300  0.45800  1.0000
  Si  Si3       1.0  0.33100  0.11700  0.54200  1.0000
  Si  Si4       1.0  0.16900  0.61700  0.95800  1.0000
