data_image0
_chemical_formula_structural       Fe2O2S2Sr2
_chemical_formula_sum              "Fe2 O2 S2 Sr2"
_cell_length_a       3.94925
_cell_length_b       3.96062
_cell_length_c       11.6433
_cell_angle_alpha    90
_cell_angle_beta     90
_cell_angle_gamma    119.905

_space_group_name_H-M_alt    "P 1"
_space_group_IT_number       1

loop_
  _space_group_symop_operation_xyz
  'x, y, z'

loop_
  _atom_site_type_symbol
  _atom_site_label
  _atom_site_symmetry_multiplicity
  _atom_site_fract_x
  _atom_site_fract_y
  _atom_site_fract_z
  _atom_site_occupancy
  Fe  Fe1       1.0  0.99500  0.98900  0.00167  1.0000
  Fe  Fe2       1.0  0.00527  0.01050  0.50200  1.0000
  O   O1        1.0  0.99700  0.99400  0.34000  1.0000
  O   O2        1.0  0.00299  0.00598  0.84000  1.0000
  S   S1        1.0  0.66700  0.33400  0.07980  1.0000
  S   S2        1.0  0.33300  0.66600  0.58000  1.0000
  Sr  Sr1       1.0  0.33100  0.66200  0.26700  1.0000
  Sr  Sr2       1.0  0.66900  0.33800  0.76700  1.0000
