data_image0
_chemical_formula_structural       Ag2Cd2O2S2
_chemical_formula_sum              "Ag2 Cd2 O2 S2"
_cell_length_a       3.70856
_cell_length_b       3.70864
_cell_length_c       12.0868
_cell_angle_alpha    90
_cell_angle_beta     90
_cell_angle_gamma    119.999

_space_group_name_H-M_alt    "P 1"
_space_group_IT_number       1

loop_
  _space_group_symop_operation_xyz
  'x, y, z'

loop_
  _atom_site_type_symbol
  _atom_site_label
  _atom_site_symmetry_multiplicity
  _atom_site_fract_x
  _atom_site_fract_y
  _atom_site_fract_z
  _atom_site_occupancy
  Ag  Ag1       1.0  0.33300  0.66700  0.25200  1.0000
  Ag  Ag2       1.0  0.66700  0.33300  0.75200  1.0000
  Cd  Cd1       1.0  0.00000  0.00000  0.49600  1.0000
  Cd  Cd2       1.0  0.00000  0.00000  0.99600  1.0000
  O   O1        1.0  0.00000  0.00000  0.32200  1.0000
  O   O2        1.0  0.00000  0.00000  0.82200  1.0000
  S   S1        1.0  0.66700  0.33300  0.11800  1.0000
  S   S2        1.0  0.33300  0.66700  0.61800  1.0000
