data_image0
_chemical_formula_structural       B28Mg4
_chemical_formula_sum              "B28 Mg4"
_cell_length_a       5.95852
_cell_length_b       7.23777
_cell_length_c       7.23777
_cell_angle_alpha    92.1303
_cell_angle_beta     114.307
_cell_angle_gamma    114.307

_space_group_name_H-M_alt    "P 1"
_space_group_IT_number       1

loop_
  _space_group_symop_operation_xyz
  'x, y, z'

loop_
  _atom_site_type_symbol
  _atom_site_label
  _atom_site_symmetry_multiplicity
  _atom_site_fract_x
  _atom_site_fract_y
  _atom_site_fract_z
  _atom_site_occupancy
  B   B1        1.0  0.88500  0.24400  0.02690  1.0000
  B   B2        1.0  0.20800  0.37700  0.03340  1.0000
  B   B3        1.0  0.70200  0.37700  0.03340  1.0000
  B   B4        1.0  0.67700  0.75900  0.09420  1.0000
  B   B5        1.0  0.52400  0.35800  0.19100  1.0000
  B   B6        1.0  0.50800  0.60000  0.22800  1.0000
  B   B7        1.0  0.81900  0.60000  0.22800  1.0000
  B   B8        1.0  0.32300  0.90600  0.24100  1.0000
  B   B9        1.0  0.88500  0.02690  0.24400  1.0000
  B   B10       1.0  0.52400  0.19100  0.35800  1.0000
  B   B11       1.0  0.20800  0.03340  0.37700  1.0000
  B   B12       1.0  0.70200  0.03340  0.37700  1.0000
  B   B13       1.0  0.18100  0.77200  0.40000  1.0000
  B   B14       1.0  0.49200  0.77200  0.40000  1.0000
  B   B15       1.0  0.50800  0.22800  0.60000  1.0000
  B   B16       1.0  0.81900  0.22800  0.60000  1.0000
  B   B17       1.0  0.29800  0.96700  0.62300  1.0000
  B   B18       1.0  0.79200  0.96700  0.62300  1.0000
  B   B19       1.0  0.47600  0.80900  0.64200  1.0000
  B   B20       1.0  0.11500  0.97300  0.75600  1.0000
  B   B21       1.0  0.67700  0.09420  0.75900  1.0000
  B   B22       1.0  0.18100  0.40000  0.77200  1.0000
  B   B23       1.0  0.49200  0.40000  0.77200  1.0000
  B   B24       1.0  0.47600  0.64200  0.80900  1.0000
  B   B25       1.0  0.32300  0.24100  0.90600  1.0000
  B   B26       1.0  0.29800  0.62300  0.96700  1.0000
  B   B27       1.0  0.79200  0.62300  0.96700  1.0000
  B   B28       1.0  0.11500  0.75600  0.97300  1.0000
  Mg  Mg1       1.0  0.00000  0.00000  0.00000  1.0000
  Mg  Mg2       1.0  0.50000  0.00000  0.00000  1.0000
  Mg  Mg3       1.0  0.13600  0.38600  0.38600  1.0000
  Mg  Mg4       1.0  0.86400  0.61400  0.61400  1.0000
