data_image0
_chemical_formula_structural       Cu2Hg2O2S2
_chemical_formula_sum              "Cu2 Hg2 O2 S2"
_cell_length_a       3.40899
_cell_length_b       3.40916
_cell_length_c       12.284
_cell_angle_alpha    90
_cell_angle_beta     90
_cell_angle_gamma    119.998

_space_group_name_H-M_alt    "P 1"
_space_group_IT_number       1

loop_
  _space_group_symop_operation_xyz
  'x, y, z'

loop_
  _atom_site_type_symbol
  _atom_site_label
  _atom_site_symmetry_multiplicity
  _atom_site_fract_x
  _atom_site_fract_y
  _atom_site_fract_z
  _atom_site_occupancy
  Cu  Cu1       1.0  0.33300  0.66700  0.24900  1.0000
  Cu  Cu2       1.0  0.66700  0.33300  0.74900  1.0000
  Hg  Hg1       1.0  0.00000  0.00000  0.48600  1.0000
  Hg  Hg2       1.0  0.00000  0.00000  0.98600  1.0000
  O   O1        1.0  0.00000  0.00000  0.31500  1.0000
  O   O2        1.0  0.00000  0.00000  0.81500  1.0000
  S   S1        1.0  0.66700  0.33300  0.13700  1.0000
  S   S2        1.0  0.33300  0.66700  0.63700  1.0000
