data_image0
_chemical_formula_structural       Au4Ca2
_chemical_formula_sum              "Au4 Ca2"
_cell_length_a       4.65841
_cell_length_b       5.88367
_cell_length_c       5.88367
_cell_angle_alpha    91.5982
_cell_angle_beta     113.321
_cell_angle_gamma    66.6794

_space_group_name_H-M_alt    "P 1"
_space_group_IT_number       1

loop_
  _space_group_symop_operation_xyz
  'x, y, z'

loop_
  _atom_site_type_symbol
  _atom_site_label
  _atom_site_symmetry_multiplicity
  _atom_site_fract_x
  _atom_site_fract_y
  _atom_site_fract_z
  _atom_site_occupancy
  Au  Au1       1.0  0.03810  0.12400  0.20000  1.0000
  Au  Au2       1.0  0.53800  0.30000  0.37600  1.0000
  Au  Au3       1.0  0.46200  0.70000  0.62400  1.0000
  Au  Au4       1.0  0.96200  0.87600  0.80000  1.0000
  Ca  Ca1       1.0  0.75000  0.71000  0.21000  1.0000
  Ca  Ca2       1.0  0.25000  0.29000  0.79000  1.0000
