data_image0
_chemical_formula_structural       Ag12Ca12Ge12
_chemical_formula_sum              "Ag12 Ca12 Ge12"
_cell_length_a       21.5276
_cell_length_b       4.58723
_cell_length_c       7.89993
_cell_angle_alpha    90
_cell_angle_beta     90
_cell_angle_gamma    90

_space_group_name_H-M_alt    "P 1"
_space_group_IT_number       1

loop_
  _space_group_symop_operation_xyz
  'x, y, z'

loop_
  _atom_site_type_symbol
  _atom_site_label
  _atom_site_symmetry_multiplicity
  _atom_site_fract_x
  _atom_site_fract_y
  _atom_site_fract_z
  _atom_site_occupancy
  Ag  Ag1       1.0  0.09570  0.75000  0.08000  1.0000
  Ag  Ag2       1.0  0.43600  0.75000  0.08220  1.0000
  Ag  Ag3       1.0  0.23700  0.75000  0.08790  1.0000
  Ag  Ag4       1.0  0.73700  0.75000  0.41200  1.0000
  Ag  Ag5       1.0  0.93600  0.75000  0.41800  1.0000
  Ag  Ag6       1.0  0.59600  0.75000  0.42000  1.0000
  Ag  Ag7       1.0  0.40400  0.25000  0.58000  1.0000
  Ag  Ag8       1.0  0.06440  0.25000  0.58200  1.0000
  Ag  Ag9       1.0  0.26300  0.25000  0.58800  1.0000
  Ag  Ag10      1.0  0.76300  0.25000  0.91200  1.0000
  Ag  Ag11      1.0  0.56400  0.25000  0.91800  1.0000
  Ag  Ag12      1.0  0.90400  0.25000  0.92000  1.0000
  Ca  Ca1       1.0  0.33300  0.25000  0.20700  1.0000
  Ca  Ca2       1.0  0.66800  0.25000  0.20800  1.0000
  Ca  Ca3       1.0  0.00045  0.25000  0.21800  1.0000
  Ca  Ca4       1.0  0.50000  0.25000  0.28200  1.0000
  Ca  Ca5       1.0  0.16800  0.25000  0.29200  1.0000
  Ca  Ca6       1.0  0.83300  0.25000  0.29300  1.0000
  Ca  Ca7       1.0  0.16700  0.75000  0.70700  1.0000
  Ca  Ca8       1.0  0.83200  0.75000  0.70800  1.0000
  Ca  Ca9       1.0  0.50000  0.75000  0.71800  1.0000
  Ca  Ca10      1.0  0.00000  0.75000  0.78200  1.0000
  Ca  Ca11      1.0  0.33200  0.75000  0.79200  1.0000
  Ca  Ca12      1.0  0.66700  0.75000  0.79300  1.0000
  Ge  Ge1       1.0  0.77200  0.75000  0.08330  1.0000
  Ge  Ge2       1.0  0.89700  0.75000  0.08920  1.0000
  Ge  Ge3       1.0  0.57300  0.75000  0.09160  1.0000
  Ge  Ge4       1.0  0.07290  0.75000  0.40800  1.0000
  Ge  Ge5       1.0  0.39700  0.75000  0.41100  1.0000
  Ge  Ge6       1.0  0.27200  0.75000  0.41700  1.0000
  Ge  Ge7       1.0  0.72800  0.25000  0.58300  1.0000
  Ge  Ge8       1.0  0.60300  0.25000  0.58900  1.0000
  Ge  Ge9       1.0  0.92700  0.25000  0.59200  1.0000
  Ge  Ge10      1.0  0.42700  0.25000  0.90800  1.0000
  Ge  Ge11      1.0  0.10300  0.25000  0.91100  1.0000
  Ge  Ge12      1.0  0.22800  0.25000  0.91700  1.0000
