data_image0
_chemical_formula_structural       Co2Cu2O2S2
_chemical_formula_sum              "Co2 Cu2 O2 S2"
_cell_length_a       3.3616
_cell_length_b       3.36236
_cell_length_c       10.8722
_cell_angle_alpha    90
_cell_angle_beta     90
_cell_angle_gamma    119.992

_space_group_name_H-M_alt    "P 1"
_space_group_IT_number       1

loop_
  _space_group_symop_operation_xyz
  'x, y, z'

loop_
  _atom_site_type_symbol
  _atom_site_label
  _atom_site_symmetry_multiplicity
  _atom_site_fract_x
  _atom_site_fract_y
  _atom_site_fract_z
  _atom_site_occupancy
  Co  Co1       1.0  0.00000  0.00000  0.49600  1.0000
  Co  Co2       1.0  0.00000  0.00000  0.99600  1.0000
  Cu  Cu1       1.0  0.33300  0.66700  0.25500  1.0000
  Cu  Cu2       1.0  0.66700  0.33300  0.75500  1.0000
  O   O1        1.0  0.00000  0.00000  0.32900  1.0000
  O   O2        1.0  0.00000  0.00000  0.82900  1.0000
  S   S1        1.0  0.66700  0.33300  0.10700  1.0000
  S   S2        1.0  0.33300  0.66700  0.60700  1.0000
