data_image0
_chemical_formula_structural       Cu4Ti2
_chemical_formula_sum              "Cu4 Ti2"
_cell_length_a       4.41063
_cell_length_b       4.49028
_cell_length_c       4.59528
_cell_angle_alpha    119.247
_cell_angle_beta     90
_cell_angle_gamma    90

_space_group_name_H-M_alt    "P 1"
_space_group_IT_number       1

loop_
  _space_group_symop_operation_xyz
  'x, y, z'

loop_
  _atom_site_type_symbol
  _atom_site_label
  _atom_site_symmetry_multiplicity
  _atom_site_fract_x
  _atom_site_fract_y
  _atom_site_fract_z
  _atom_site_occupancy
  Cu  Cu1       1.0  0.25000  0.46500  0.34500  1.0000
  Cu  Cu2       1.0  0.75000  0.88100  0.34500  1.0000
  Cu  Cu3       1.0  0.25000  0.11900  0.65500  1.0000
  Cu  Cu4       1.0  0.75000  0.53500  0.65500  1.0000
  Ti  Ti1       1.0  0.75000  0.22100  0.00000  1.0000
  Ti  Ti2       1.0  0.25000  0.77900  0.00000  1.0000
