data_image0
_chemical_formula_structural       Ga2Ge2Li2
_chemical_formula_sum              "Ga2 Ge2 Li2"
_cell_length_a       4.1993
_cell_length_b       4.19922
_cell_length_c       6.81101
_cell_angle_alpha    90
_cell_angle_beta     90
_cell_angle_gamma    120.001

_space_group_name_H-M_alt    "P 1"
_space_group_IT_number       1

loop_
  _space_group_symop_operation_xyz
  'x, y, z'

loop_
  _atom_site_type_symbol
  _atom_site_label
  _atom_site_symmetry_multiplicity
  _atom_site_fract_x
  _atom_site_fract_y
  _atom_site_fract_z
  _atom_site_occupancy
  Ga  Ga1       1.0  0.33300  0.66700  0.05880  1.0000
  Ga  Ga2       1.0  0.66700  0.33300  0.55900  1.0000
  Ge  Ge1       1.0  0.33300  0.66700  0.44400  1.0000
  Ge  Ge2       1.0  0.66700  0.33300  0.94400  1.0000
  Li  Li1       1.0  0.00000  0.00000  0.24700  1.0000
  Li  Li2       1.0  0.00000  0.00000  0.74700  1.0000
