data_image0
_chemical_formula_structural       Mn2O2Pb2S2
_chemical_formula_sum              "Mn2 O2 Pb2 S2"
_cell_length_a       3.59078
_cell_length_b       3.59084
_cell_length_c       13.5529
_cell_angle_alpha    90
_cell_angle_beta     90
_cell_angle_gamma    119.999

_space_group_name_H-M_alt    "P 1"
_space_group_IT_number       1

loop_
  _space_group_symop_operation_xyz
  'x, y, z'

loop_
  _atom_site_type_symbol
  _atom_site_label
  _atom_site_symmetry_multiplicity
  _atom_site_fract_x
  _atom_site_fract_y
  _atom_site_fract_z
  _atom_site_occupancy
  Mn  Mn1       1.0  0.33300  0.66600  0.26000  1.0000
  Mn  Mn2       1.0  0.66700  0.33400  0.76000  1.0000
  O   O1        1.0  0.00000  0.00000  0.31000  1.0000
  O   O2        1.0  0.00011  0.00023  0.81000  1.0000
  Pb  Pb1       1.0  0.00000  0.00015  0.49200  1.0000
  Pb  Pb2       1.0  0.00000  0.00000  0.99200  1.0000
  S   S1        1.0  0.66700  0.33300  0.12600  1.0000
  S   S2        1.0  0.33300  0.66700  0.62600  1.0000
