data_image0
_chemical_formula_structural       Na2NiO2Rb
_chemical_formula_sum              "Na2 Ni1 O2 Rb1"
_cell_length_a       4.56468
_cell_length_b       4.56468
_cell_length_c       5.79851
_cell_angle_alpha    113.179
_cell_angle_beta     113.179
_cell_angle_gamma    90

_space_group_name_H-M_alt    "P 1"
_space_group_IT_number       1

loop_
  _space_group_symop_operation_xyz
  'x, y, z'

loop_
  _atom_site_type_symbol
  _atom_site_label
  _atom_site_symmetry_multiplicity
  _atom_site_fract_x
  _atom_site_fract_y
  _atom_site_fract_z
  _atom_site_occupancy
  Na  Na1       1.0  0.75000  0.25000  0.50000  1.0000
  Na  Na2       1.0  0.25000  0.75000  0.50000  1.0000
  Ni  Ni1       1.0  0.50000  0.50000  0.00000  1.0000
  O   O1        1.0  0.68200  0.68200  0.36400  1.0000
  O   O2        1.0  0.31800  0.31800  0.63600  1.0000
  Rb  Rb1       1.0  0.00000  0.00000  0.00000  1.0000
