data_image0
_chemical_formula_structural       Nd2O4
_chemical_formula_sum              "Nd2 O4"
_cell_length_a       3.89529
_cell_length_b       3.89529
_cell_length_c       6.48825
_cell_angle_alpha    96.8893
_cell_angle_beta     96.8893
_cell_angle_gamma    61.9329

_space_group_name_H-M_alt    "P 1"
_space_group_IT_number       1

loop_
  _space_group_symop_operation_xyz
  'x, y, z'

loop_
  _atom_site_type_symbol
  _atom_site_label
  _atom_site_symmetry_multiplicity
  _atom_site_fract_x
  _atom_site_fract_y
  _atom_site_fract_z
  _atom_site_occupancy
  Nd  Nd1       1.0  0.19800  0.19800  0.23100  1.0000
  Nd  Nd2       1.0  0.80200  0.80200  0.76900  1.0000
  O   O1        1.0  0.84700  0.84700  0.14200  1.0000
  O   O2        1.0  0.57800  0.57800  0.42700  1.0000
  O   O3        1.0  0.42200  0.42200  0.57300  1.0000
  O   O4        1.0  0.15300  0.15300  0.85800  1.0000
