data_image0
_chemical_formula_structural       Ni2O2S2Sr2
_chemical_formula_sum              "Ni2 O2 S2 Sr2"
_cell_length_a       4.01137
_cell_length_b       3.88981
_cell_length_c       11.4522
_cell_angle_alpha    90
_cell_angle_beta     90
_cell_angle_gamma    121.039

_space_group_name_H-M_alt    "P 1"
_space_group_IT_number       1

loop_
  _space_group_symop_operation_xyz
  'x, y, z'

loop_
  _atom_site_type_symbol
  _atom_site_label
  _atom_site_symmetry_multiplicity
  _atom_site_fract_x
  _atom_site_fract_y
  _atom_site_fract_z
  _atom_site_occupancy
  Ni  Ni1       1.0  0.00385  0.00770  0.00404  1.0000
  Ni  Ni2       1.0  0.99600  0.99200  0.50400  1.0000
  O   O1        1.0  0.99600  0.99200  0.34000  1.0000
  O   O2        1.0  0.00380  0.00759  0.84000  1.0000
  S   S1        1.0  0.66400  0.32800  0.07220  1.0000
  S   S2        1.0  0.33600  0.67200  0.57200  1.0000
  Sr  Sr1       1.0  0.33600  0.67200  0.27100  1.0000
  Sr  Sr2       1.0  0.66400  0.32800  0.77100  1.0000
