data_image0
_chemical_formula_structural       Ba2Ca2O2S2
_chemical_formula_sum              "Ba2 Ca2 O2 S2"
_cell_length_a       4.29828
_cell_length_b       4.29823
_cell_length_c       13.0114
_cell_angle_alpha    90
_cell_angle_beta     90
_cell_angle_gamma    120

_space_group_name_H-M_alt    "P 1"
_space_group_IT_number       1

loop_
  _space_group_symop_operation_xyz
  'x, y, z'

loop_
  _atom_site_type_symbol
  _atom_site_label
  _atom_site_symmetry_multiplicity
  _atom_site_fract_x
  _atom_site_fract_y
  _atom_site_fract_z
  _atom_site_occupancy
  Ba  Ba1       1.0  0.33300  0.66700  0.26500  1.0000
  Ba  Ba2       1.0  0.66700  0.33300  0.76500  1.0000
  Ca  Ca1       1.0  0.00000  0.00000  0.00046  1.0000
  Ca  Ca2       1.0  0.00000  0.00000  0.50000  1.0000
  O   O1        1.0  0.00000  0.00000  0.33600  1.0000
  O   O2        1.0  0.00000  0.00000  0.83600  1.0000
  S   S1        1.0  0.66700  0.33300  0.08590  1.0000
  S   S2        1.0  0.33300  0.66700  0.58600  1.0000
