data_image0
_chemical_formula_structural       Ba2Hg4
_chemical_formula_sum              "Ba2 Hg4"
_cell_length_a       5.19704
_cell_length_b       6.52844
_cell_length_c       6.52844
_cell_angle_alpha    94.5073
_cell_angle_beta     113.455
_cell_angle_gamma    66.5449

_space_group_name_H-M_alt    "P 1"
_space_group_IT_number       1

loop_
  _space_group_symop_operation_xyz
  'x, y, z'

loop_
  _atom_site_type_symbol
  _atom_site_label
  _atom_site_symmetry_multiplicity
  _atom_site_fract_x
  _atom_site_fract_y
  _atom_site_fract_z
  _atom_site_occupancy
  Ba  Ba1       1.0  0.75000  0.71500  0.21500  1.0000
  Ba  Ba2       1.0  0.25000  0.28500  0.78500  1.0000
  Hg  Hg1       1.0  0.04530  0.12000  0.21000  1.0000
  Hg  Hg2       1.0  0.54500  0.29000  0.38000  1.0000
  Hg  Hg3       1.0  0.45500  0.71000  0.62000  1.0000
  Hg  Hg4       1.0  0.95500  0.88000  0.79000  1.0000
