data_image0
_chemical_formula_structural       Cu3NaTe2
_chemical_formula_sum              "Cu3 Na1 Te2"
_cell_length_a       4.2908
_cell_length_b       4.2908
_cell_length_c       8.26309
_cell_angle_alpha    74.9515
_cell_angle_beta     105.048
_cell_angle_gamma    120

_space_group_name_H-M_alt    "P 1"
_space_group_IT_number       1

loop_
  _space_group_symop_operation_xyz
  'x, y, z'

loop_
  _atom_site_type_symbol
  _atom_site_label
  _atom_site_symmetry_multiplicity
  _atom_site_fract_x
  _atom_site_fract_y
  _atom_site_fract_z
  _atom_site_occupancy
  Cu  Cu1       1.0  0.46600  0.53400  0.39700  1.0000
  Cu  Cu2       1.0  0.13600  0.86400  0.40900  1.0000
  Cu  Cu3       1.0  0.86300  0.13700  0.58900  1.0000
  Na  Na1       1.0  0.99200  0.00794  0.97600  1.0000
  Te  Te1       1.0  0.74700  0.25300  0.24200  1.0000
  Te  Te2       1.0  0.24400  0.75600  0.73200  1.0000
