data_image0
_chemical_formula_structural       Ba6Mg23
_chemical_formula_sum              "Ba6 Mg23"
_cell_length_a       10.7493
_cell_length_b       10.7493
_cell_length_c       10.7493
_cell_angle_alpha    120
_cell_angle_beta     90
_cell_angle_gamma    120

_space_group_name_H-M_alt    "P 1"
_space_group_IT_number       1

loop_
  _space_group_symop_operation_xyz
  'x, y, z'

loop_
  _atom_site_type_symbol
  _atom_site_label
  _atom_site_symmetry_multiplicity
  _atom_site_fract_x
  _atom_site_fract_y
  _atom_site_fract_z
  _atom_site_occupancy
  Ba  Ba1       1.0  0.21100  0.42300  0.21100  1.0000
  Ba  Ba2       1.0  0.21100  0.00000  0.21100  1.0000
  Ba  Ba3       1.0  0.78900  0.00000  0.21100  1.0000
  Ba  Ba4       1.0  0.78900  0.00000  0.78900  1.0000
  Ba  Ba5       1.0  0.78900  0.57700  0.78900  1.0000
  Ba  Ba6       1.0  0.21100  0.00000  0.78900  1.0000
  Mg  Mg1       1.0  0.00000  0.50000  0.00000  1.0000
  Mg  Mg2       1.0  0.50000  0.50000  1.00000  1.0000
  Mg  Mg3       1.0  0.50000  0.00000  1.00000  1.0000
  Mg  Mg4       1.0  0.37800  0.75500  0.13300  1.0000
  Mg  Mg5       1.0  0.53100  0.35400  0.17700  1.0000
  Mg  Mg6       1.0  0.82300  0.35400  0.17700  1.0000
  Mg  Mg7       1.0  0.82300  0.64600  0.17700  1.0000
  Mg  Mg8       1.0  0.13300  0.75500  0.37800  1.0000
  Mg  Mg9       1.0  0.62200  0.75500  0.37800  1.0000
  Mg  Mg10      1.0  0.62200  0.24500  0.37800  1.0000
  Mg  Mg11      1.0  0.82300  0.64600  0.46900  1.0000
  Mg  Mg12      1.0  1.00000  0.50000  0.50000  1.0000
  Mg  Mg13      1.0  0.50000  0.50000  0.50000  1.0000
  Mg  Mg14      1.0  1.00000  0.00000  0.50000  1.0000
  Mg  Mg15      1.0  0.50000  0.00000  0.50000  1.0000
  Mg  Mg16      1.0  0.17700  0.35400  0.53100  1.0000
  Mg  Mg17      1.0  0.37800  0.75500  0.62200  1.0000
  Mg  Mg18      1.0  0.37800  0.24500  0.62200  1.0000
  Mg  Mg19      1.0  0.86700  0.24500  0.62200  1.0000
  Mg  Mg20      1.0  0.17700  0.35400  0.82300  1.0000
  Mg  Mg21      1.0  0.17700  0.64600  0.82300  1.0000
  Mg  Mg22      1.0  0.46900  0.64600  0.82300  1.0000
  Mg  Mg23      1.0  0.62200  0.24500  0.86700  1.0000
