data_image0
_chemical_formula_structural       Ca3Li3Pb3
_chemical_formula_sum              "Ca3 Li3 Pb3"
_cell_length_a       4.95015
_cell_length_b       4.95
_cell_length_c       10.8907
_cell_angle_alpha    90
_cell_angle_beta     90
_cell_angle_gamma    120.001

_space_group_name_H-M_alt    "P 1"
_space_group_IT_number       1

loop_
  _space_group_symop_operation_xyz
  'x, y, z'

loop_
  _atom_site_type_symbol
  _atom_site_label
  _atom_site_symmetry_multiplicity
  _atom_site_fract_x
  _atom_site_fract_y
  _atom_site_fract_z
  _atom_site_occupancy
  Ca  Ca1       1.0  0.00000  0.00000  0.00000  1.0000
  Ca  Ca2       1.0  0.00006  0.00012  0.33400  1.0000
  Ca  Ca3       1.0  0.00006  0.00012  0.66600  1.0000
  Li  Li1       1.0  0.66700  0.33300  0.20000  1.0000
  Li  Li2       1.0  0.33300  0.66700  0.50000  1.0000
  Li  Li3       1.0  0.66700  0.33300  0.80000  1.0000
  Pb  Pb1       1.0  0.33300  0.66700  0.15500  1.0000
  Pb  Pb2       1.0  0.66600  0.33300  0.50000  1.0000
  Pb  Pb3       1.0  0.33300  0.66700  0.84500  1.0000
