data_image0
_chemical_formula_structural       Li4Na4Te4
_chemical_formula_sum              "Li4 Na4 Te4"
_cell_length_a       7.64272
_cell_length_b       4.58168
_cell_length_c       8.2664
_cell_angle_alpha    90
_cell_angle_beta     90
_cell_angle_gamma    90

_space_group_name_H-M_alt    "P 1"
_space_group_IT_number       1

loop_
  _space_group_symop_operation_xyz
  'x, y, z'

loop_
  _atom_site_type_symbol
  _atom_site_label
  _atom_site_symmetry_multiplicity
  _atom_site_fract_x
  _atom_site_fract_y
  _atom_site_fract_z
  _atom_site_occupancy
  Li  Li1       1.0  0.35600  0.75000  0.07350  1.0000
  Li  Li2       1.0  0.85600  0.75000  0.42700  1.0000
  Li  Li3       1.0  0.14400  0.25000  0.57300  1.0000
  Li  Li4       1.0  0.64400  0.25000  0.92700  1.0000
  Na  Na1       1.0  0.01290  0.25000  0.18700  1.0000
  Na  Na2       1.0  0.51300  0.25000  0.31300  1.0000
  Na  Na3       1.0  0.48700  0.75000  0.68700  1.0000
  Na  Na4       1.0  0.98700  0.75000  0.81300  1.0000
  Te  Te1       1.0  0.72500  0.75000  0.10600  1.0000
  Te  Te2       1.0  0.22500  0.75000  0.39400  1.0000
  Te  Te3       1.0  0.77500  0.25000  0.60600  1.0000
  Te  Te4       1.0  0.27500  0.25000  0.89400  1.0000
