data_image0
_chemical_formula_structural       Ag2Ni2O2S2
_chemical_formula_sum              "Ag2 Ni2 O2 S2"
_cell_length_a       3.57988
_cell_length_b       3.66179
_cell_length_c       11.1105
_cell_angle_alpha    90
_cell_angle_beta     90
_cell_angle_gamma    119.263

_space_group_name_H-M_alt    "P 1"
_space_group_IT_number       1

loop_
  _space_group_symop_operation_xyz
  'x, y, z'

loop_
  _atom_site_type_symbol
  _atom_site_label
  _atom_site_symmetry_multiplicity
  _atom_site_fract_x
  _atom_site_fract_y
  _atom_site_fract_z
  _atom_site_occupancy
  Ag  Ag1       1.0  0.29500  0.59100  0.24900  1.0000
  Ag  Ag2       1.0  0.70500  0.40900  0.74900  1.0000
  Ni  Ni1       1.0  0.03810  0.07630  0.00260  1.0000
  Ni  Ni2       1.0  0.96200  0.92400  0.50300  1.0000
  O   O1        1.0  0.91700  0.83500  0.34300  1.0000
  O   O2        1.0  0.08270  0.16500  0.84300  1.0000
  S   S1        1.0  0.71600  0.43100  0.09300  1.0000
  S   S2        1.0  0.28400  0.56900  0.59300  1.0000
