data_image0
_chemical_formula_structural       Cl16Cs8Mg4
_chemical_formula_sum              "Cl16 Cs8 Mg4"
_cell_length_a       9.84944
_cell_length_b       7.46901
_cell_length_c       13.3346
_cell_angle_alpha    90
_cell_angle_beta     90
_cell_angle_gamma    90

_space_group_name_H-M_alt    "P 1"
_space_group_IT_number       1

loop_
  _space_group_symop_operation_xyz
  'x, y, z'

loop_
  _atom_site_type_symbol
  _atom_site_label
  _atom_site_symmetry_multiplicity
  _atom_site_fract_x
  _atom_site_fract_y
  _atom_site_fract_z
  _atom_site_occupancy
  Cl  Cl1       1.0  0.18500  0.75000  0.08660  1.0000
  Cl  Cl2       1.0  0.49300  0.25000  0.08950  1.0000
  Cl  Cl3       1.0  0.82200  0.00000  0.15400  1.0000
  Cl  Cl4       1.0  0.82200  0.50000  0.15400  1.0000
  Cl  Cl5       1.0  0.32200  0.00000  0.34600  1.0000
  Cl  Cl6       1.0  0.32200  0.50000  0.34600  1.0000
  Cl  Cl7       1.0  0.99300  0.25000  0.41100  1.0000
  Cl  Cl8       1.0  0.68500  0.75000  0.41300  1.0000
  Cl  Cl9       1.0  0.31500  0.25000  0.58700  1.0000
  Cl  Cl10      1.0  0.00686  0.75000  0.58900  1.0000
  Cl  Cl11      1.0  0.67800  0.00001  0.65400  1.0000
  Cl  Cl12      1.0  0.67800  0.50000  0.65400  1.0000
  Cl  Cl13      1.0  0.17800  0.00001  0.84600  1.0000
  Cl  Cl14      1.0  0.17800  0.50000  0.84600  1.0000
  Cl  Cl15      1.0  0.50700  0.75000  0.91100  1.0000
  Cl  Cl16      1.0  0.81500  0.25000  0.91300  1.0000
  Cs  Cs1       1.0  0.13700  0.25000  0.09200  1.0000
  Cs  Cs2       1.0  0.51800  0.75000  0.17800  1.0000
  Cs  Cs3       1.0  0.01810  0.75000  0.32200  1.0000
  Cs  Cs4       1.0  0.63700  0.25000  0.40800  1.0000
  Cs  Cs5       1.0  0.36300  0.75000  0.59200  1.0000
  Cs  Cs6       1.0  0.98200  0.25000  0.67800  1.0000
  Cs  Cs7       1.0  0.48200  0.25000  0.82200  1.0000
  Cs  Cs8       1.0  0.86300  0.75000  0.90800  1.0000
  Mg  Mg1       1.0  0.72800  0.25000  0.07620  1.0000
  Mg  Mg2       1.0  0.22800  0.25000  0.42400  1.0000
  Mg  Mg3       1.0  0.77200  0.75000  0.57600  1.0000
  Mg  Mg4       1.0  0.27200  0.75000  0.92400  1.0000
