data_image0
_chemical_formula_structural       B4Co4Mo4
_chemical_formula_sum              "B4 Co4 Mo4"
_cell_length_a       5.74157
_cell_length_b       3.24076
_cell_length_c       6.6148
_cell_angle_alpha    90
_cell_angle_beta     90
_cell_angle_gamma    90

_space_group_name_H-M_alt    "P 1"
_space_group_IT_number       1

loop_
  _space_group_symop_operation_xyz
  'x, y, z'

loop_
  _atom_site_type_symbol
  _atom_site_label
  _atom_site_symmetry_multiplicity
  _atom_site_fract_x
  _atom_site_fract_y
  _atom_site_fract_z
  _atom_site_occupancy
  B   B1        1.0  0.72800  0.75000  0.12500  1.0000
  B   B2        1.0  0.22800  0.75000  0.37500  1.0000
  B   B3        1.0  0.77200  0.25000  0.62500  1.0000
  B   B4        1.0  0.27200  0.25000  0.87500  1.0000
  Co  Co1       1.0  0.35700  0.75000  0.05730  1.0000
  Co  Co2       1.0  0.85700  0.75000  0.44300  1.0000
  Co  Co3       1.0  0.14300  0.25000  0.55700  1.0000
  Co  Co4       1.0  0.64300  0.25000  0.94300  1.0000
  Mo  Mo1       1.0  0.02770  0.25000  0.17400  1.0000
  Mo  Mo2       1.0  0.52800  0.25000  0.32600  1.0000
  Mo  Mo3       1.0  0.47200  0.75000  0.67400  1.0000
  Mo  Mo4       1.0  0.97200  0.75000  0.82600  1.0000
