data_image0
_chemical_formula_structural       Mg4Nd16Ru4
_chemical_formula_sum              "Mg4 Nd16 Ru4"
_cell_length_a       9.97571
_cell_length_b       9.97571
_cell_length_c       9.97571
_cell_angle_alpha    120
_cell_angle_beta     90
_cell_angle_gamma    120

_space_group_name_H-M_alt    "P 1"
_space_group_IT_number       1

loop_
  _space_group_symop_operation_xyz
  'x, y, z'

loop_
  _atom_site_type_symbol
  _atom_site_label
  _atom_site_symmetry_multiplicity
  _atom_site_fract_x
  _atom_site_fract_y
  _atom_site_fract_z
  _atom_site_occupancy
  Mg  Mg1       1.0  0.57900  0.15700  0.42100  1.0000
  Mg  Mg2       1.0  0.26400  0.84300  0.42100  1.0000
  Mg  Mg3       1.0  0.57900  0.84300  0.42100  1.0000
  Mg  Mg4       1.0  0.57900  0.15700  0.73600  1.0000
  Nd  Nd1       1.0  0.34500  0.68900  0.03360  1.0000
  Nd  Nd2       1.0  0.93900  0.50000  0.06130  1.0000
  Nd  Nd3       1.0  0.56100  0.12300  0.06130  1.0000
  Nd  Nd4       1.0  0.56100  0.50000  0.06130  1.0000
  Nd  Nd5       1.0  0.81200  0.00000  0.18800  1.0000
  Nd  Nd6       1.0  0.18800  0.00000  0.18800  1.0000
  Nd  Nd7       1.0  0.18800  0.37700  0.18800  1.0000
  Nd  Nd8       1.0  0.56100  0.50000  0.43900  1.0000
  Nd  Nd9       1.0  0.93900  0.50000  0.43900  1.0000
  Nd  Nd10      1.0  0.93900  0.87700  0.43900  1.0000
  Nd  Nd11      1.0  0.34500  0.31100  0.65500  1.0000
  Nd  Nd12      1.0  0.34500  0.68900  0.65500  1.0000
  Nd  Nd13      1.0  0.96600  0.31100  0.65500  1.0000
  Nd  Nd14      1.0  0.18800  0.00000  0.81200  1.0000
  Nd  Nd15      1.0  0.81200  0.00000  0.81200  1.0000
  Nd  Nd16      1.0  0.81200  0.62400  0.81200  1.0000
  Ru  Ru1       1.0  0.13800  0.27600  0.41400  1.0000
  Ru  Ru2       1.0  0.13800  0.27600  0.86200  1.0000
  Ru  Ru3       1.0  0.13800  0.72400  0.86200  1.0000
  Ru  Ru4       1.0  0.58600  0.72400  0.86200  1.0000
