data_image0
_chemical_formula_structural       Be2Gd2O2S2
_chemical_formula_sum              "Be2 Gd2 O2 S2"
_cell_length_a       4.07721
_cell_length_b       4.07721
_cell_length_c       10.995
_cell_angle_alpha    79.3149
_cell_angle_beta     100.685
_cell_angle_gamma    120

_space_group_name_H-M_alt    "P 1"
_space_group_IT_number       1

loop_
  _space_group_symop_operation_xyz
  'x, y, z'

loop_
  _atom_site_type_symbol
  _atom_site_label
  _atom_site_symmetry_multiplicity
  _atom_site_fract_x
  _atom_site_fract_y
  _atom_site_fract_z
  _atom_site_occupancy
  Be  Be1       1.0  0.35500  0.64500  0.06470  1.0000
  Be  Be2       1.0  0.64500  0.35500  0.93500  1.0000
  Gd  Gd1       1.0  0.75900  0.24100  0.27800  1.0000
  Gd  Gd2       1.0  0.24100  0.75900  0.72200  1.0000
  O   O1        1.0  0.69100  0.30900  0.07380  1.0000
  O   O2        1.0  0.30900  0.69100  0.92600  1.0000
  S   S1        1.0  0.12800  0.87200  0.38400  1.0000
  S   S2        1.0  0.87200  0.12800  0.61600  1.0000
