data_image0
_chemical_formula_structural       Fe2Gd2O2S2
_chemical_formula_sum              "Fe2 Gd2 O2 S2"
_cell_length_a       4.2038
_cell_length_b       4.2038
_cell_length_c       9.54942
_cell_angle_alpha    102.715
_cell_angle_beta     77.2847
_cell_angle_gamma    120

_space_group_name_H-M_alt    "P 1"
_space_group_IT_number       1

loop_
  _space_group_symop_operation_xyz
  'x, y, z'

loop_
  _atom_site_type_symbol
  _atom_site_label
  _atom_site_symmetry_multiplicity
  _atom_site_fract_x
  _atom_site_fract_y
  _atom_site_fract_z
  _atom_site_occupancy
  Fe  Fe1       1.0  0.63500  0.36500  0.09350  1.0000
  Fe  Fe2       1.0  0.36500  0.63500  0.90600  1.0000
  Gd  Gd1       1.0  0.21500  0.78500  0.35600  1.0000
  Gd  Gd2       1.0  0.78500  0.21500  0.64400  1.0000
  O   O1        1.0  0.29400  0.70600  0.11700  1.0000
  O   O2        1.0  0.70600  0.29400  0.88300  1.0000
  S   S1        1.0  0.90200  0.09800  0.29400  1.0000
  S   S2        1.0  0.09800  0.90200  0.70600  1.0000
