data_image0
_chemical_formula_structural       Ba2Gd2O2S2
_chemical_formula_sum              "Ba2 Gd2 O2 S2"
_cell_length_a       4.7351
_cell_length_b       4.7351
_cell_length_c       10.4193
_cell_angle_alpha    90
_cell_angle_beta     103.134
_cell_angle_gamma    120

_space_group_name_H-M_alt    "P 1"
_space_group_IT_number       1

loop_
  _space_group_symop_operation_xyz
  'x, y, z'

loop_
  _atom_site_type_symbol
  _atom_site_label
  _atom_site_symmetry_multiplicity
  _atom_site_fract_x
  _atom_site_fract_y
  _atom_site_fract_z
  _atom_site_occupancy
  Ba  Ba1       1.0  0.75300  0.37600  0.12900  1.0000
  Ba  Ba2       1.0  0.24700  0.62400  0.87100  1.0000
  Gd  Gd1       1.0  0.57800  0.78900  0.36700  1.0000
  Gd  Gd2       1.0  0.42200  0.21100  0.63300  1.0000
  O   O1        1.0  0.42800  0.71400  0.14200  1.0000
  O   O2        1.0  0.57200  0.28600  0.85800  1.0000
  S   S1        1.0  0.23300  0.11700  0.35000  1.0000
  S   S2        1.0  0.76700  0.88300  0.65000  1.0000
