data_image0
_chemical_formula_structural       Ca2Gd2O2S2
_chemical_formula_sum              "Ca2 Gd2 O2 S2"
_cell_length_a       4.50724
_cell_length_b       4.50724
_cell_length_c       9.87069
_cell_angle_alpha    76.8022
_cell_angle_beta     103.198
_cell_angle_gamma    120

_space_group_name_H-M_alt    "P 1"
_space_group_IT_number       1

loop_
  _space_group_symop_operation_xyz
  'x, y, z'

loop_
  _atom_site_type_symbol
  _atom_site_label
  _atom_site_symmetry_multiplicity
  _atom_site_fract_x
  _atom_site_fract_y
  _atom_site_fract_z
  _atom_site_occupancy
  Ca  Ca1       1.0  0.37200  0.62800  0.11500  1.0000
  Ca  Ca2       1.0  0.62800  0.37200  0.88500  1.0000
  Gd  Gd1       1.0  0.78700  0.21300  0.36200  1.0000
  Gd  Gd2       1.0  0.21300  0.78700  0.63800  1.0000
  O   O1        1.0  0.70500  0.29500  0.11400  1.0000
  O   O2        1.0  0.29500  0.70500  0.88600  1.0000
  S   S1        1.0  0.11200  0.88800  0.33700  1.0000
  S   S2        1.0  0.88800  0.11200  0.66300  1.0000
