data_image0
_chemical_formula_structural       Be2Br4
_chemical_formula_sum              "Be2 Br4"
_cell_length_a       5.56825
_cell_length_b       5.92042
_cell_length_c       6.87385
_cell_angle_alpha    115.509
_cell_angle_beta     113.893
_cell_angle_gamma    90

_space_group_name_H-M_alt    "P 1"
_space_group_IT_number       1

loop_
  _space_group_symop_operation_xyz
  'x, y, z'

loop_
  _atom_site_type_symbol
  _atom_site_label
  _atom_site_symmetry_multiplicity
  _atom_site_fract_x
  _atom_site_fract_y
  _atom_site_fract_z
  _atom_site_occupancy
  Be  Be1       1.0  0.25000  0.00000  0.00000  1.0000
  Be  Be2       1.0  0.75000  0.00000  0.00000  1.0000
  Br  Br1       1.0  0.10900  0.31200  0.21700  1.0000
  Br  Br2       1.0  0.60900  0.90600  0.21700  1.0000
  Br  Br3       1.0  0.39100  0.09440  0.78300  1.0000
  Br  Br4       1.0  0.89100  0.68800  0.78300  1.0000
