data_image0
_chemical_formula_structural       O2Pb2S2Sn2
_chemical_formula_sum              "O2 Pb2 S2 Sn2"
_cell_length_a       3.78467
_cell_length_b       3.78264
_cell_length_c       13.9516
_cell_angle_alpha    90
_cell_angle_beta     90
_cell_angle_gamma    120.018

_space_group_name_H-M_alt    "P 1"
_space_group_IT_number       1

loop_
  _space_group_symop_operation_xyz
  'x, y, z'

loop_
  _atom_site_type_symbol
  _atom_site_label
  _atom_site_symmetry_multiplicity
  _atom_site_fract_x
  _atom_site_fract_y
  _atom_site_fract_z
  _atom_site_occupancy
  O   O1        1.0  0.00000  0.99900  0.31300  1.0000
  O   O2        1.0  0.00040  0.00079  0.81300  1.0000
  Pb  Pb1       1.0  0.00192  0.00384  0.49300  1.0000
  Pb  Pb2       1.0  0.99800  0.99600  0.99300  1.0000
  S   S1        1.0  0.66700  0.33400  0.12500  1.0000
  S   S2        1.0  0.33300  0.66600  0.62500  1.0000
  Sn  Sn1       1.0  0.33400  0.66800  0.25700  1.0000
  Sn  Sn2       1.0  0.66600  0.33200  0.75700  1.0000
