data_image0
_chemical_formula_structural       Gd2Ni2O2S2
_chemical_formula_sum              "Gd2 Ni2 O2 S2"
_cell_length_a       4.29744
_cell_length_b       4.29744
_cell_length_c       10.8662
_cell_angle_alpha    90
_cell_angle_beta     101.405
_cell_angle_gamma    120

_space_group_name_H-M_alt    "P 1"
_space_group_IT_number       1

loop_
  _space_group_symop_operation_xyz
  'x, y, z'

loop_
  _atom_site_type_symbol
  _atom_site_label
  _atom_site_symmetry_multiplicity
  _atom_site_fract_x
  _atom_site_fract_y
  _atom_site_fract_z
  _atom_site_occupancy
  Gd  Gd1       1.0  0.53500  0.76800  0.30300  1.0000
  Gd  Gd2       1.0  0.46500  0.23200  0.69700  1.0000
  Ni  Ni1       1.0  0.71700  0.35800  0.07540  1.0000
  Ni  Ni2       1.0  0.28300  0.64200  0.92500  1.0000
  O   O1        1.0  0.40600  0.70300  0.10900  1.0000
  O   O2        1.0  0.59400  0.29700  0.89100  1.0000
  S   S1        1.0  0.25600  0.12800  0.38400  1.0000
  S   S2        1.0  0.74400  0.87200  0.61600  1.0000
