data_image0
_chemical_formula_structural       Cl2H4MgO10
_chemical_formula_sum              "Cl2 H4 Mg1 O10"
_cell_length_a       5.16896
_cell_length_b       5.11361
_cell_length_c       7.33223
_cell_angle_alpha    107.303
_cell_angle_beta     110.639
_cell_angle_gamma    90

_space_group_name_H-M_alt    "P 1"
_space_group_IT_number       1

loop_
  _space_group_symop_operation_xyz
  'x, y, z'

loop_
  _atom_site_type_symbol
  _atom_site_label
  _atom_site_symmetry_multiplicity
  _atom_site_fract_x
  _atom_site_fract_y
  _atom_site_fract_z
  _atom_site_occupancy
  Cl  Cl1       1.0  0.62700  0.83000  0.25500  1.0000
  Cl  Cl2       1.0  0.37300  0.17000  0.74500  1.0000
  H   H1        1.0  0.00506  0.33400  0.31500  1.0000
  H   H2        1.0  0.31000  0.33400  0.31500  1.0000
  H   H3        1.0  0.69000  0.66600  0.68500  1.0000
  H   H4        1.0  0.99500  0.66600  0.68500  1.0000
  Mg  Mg1       1.0  0.00000  0.50000  0.00000  1.0000
  O   O1        1.0  0.33400  0.80300  0.12200  1.0000
  O   O2        1.0  0.78900  0.80300  0.12200  1.0000
  O   O3        1.0  0.12100  0.36700  0.24300  1.0000
  O   O4        1.0  0.67500  0.61600  0.35100  1.0000
  O   O5        1.0  0.70200  0.10200  0.40300  1.0000
  O   O6        1.0  0.29800  0.89800  0.59700  1.0000
  O   O7        1.0  0.32500  0.38400  0.64900  1.0000
  O   O8        1.0  0.87900  0.63300  0.75700  1.0000
  O   O9        1.0  0.21100  0.19700  0.87800  1.0000
  O   O10       1.0  0.66600  0.19700  0.87800  1.0000
