data_image0
_chemical_formula_structural       Cd2Gd2O2S2
_chemical_formula_sum              "Cd2 Gd2 O2 S2"
_cell_length_a       4.4949
_cell_length_b       4.4949
_cell_length_c       10.6085
_cell_angle_alpha    77.769
_cell_angle_beta     102.231
_cell_angle_gamma    120

_space_group_name_H-M_alt    "P 1"
_space_group_IT_number       1

loop_
  _space_group_symop_operation_xyz
  'x, y, z'

loop_
  _atom_site_type_symbol
  _atom_site_label
  _atom_site_symmetry_multiplicity
  _atom_site_fract_x
  _atom_site_fract_y
  _atom_site_fract_z
  _atom_site_occupancy
  Cd  Cd1       1.0  0.36800  0.63200  0.10400  1.0000
  Cd  Cd2       1.0  0.63200  0.36800  0.89600  1.0000
  Gd  Gd1       1.0  0.77500  0.22500  0.32400  1.0000
  Gd  Gd2       1.0  0.22500  0.77500  0.67600  1.0000
  O   O1        1.0  0.70500  0.29500  0.11600  1.0000
  O   O2        1.0  0.29500  0.70500  0.88400  1.0000
  S   S1        1.0  0.12800  0.87200  0.38500  1.0000
  S   S2        1.0  0.87200  0.12800  0.61500  1.0000
