data_image0
_chemical_formula_structural       Gd2O2Pd2S2
_chemical_formula_sum              "Gd2 O2 Pd2 S2"
_cell_length_a       3.91557
_cell_length_b       3.91557
_cell_length_c       12.5718
_cell_angle_alpha    98.959
_cell_angle_beta     98.959
_cell_angle_gamma    60

_space_group_name_H-M_alt    "P 1"
_space_group_IT_number       1

loop_
  _space_group_symop_operation_xyz
  'x, y, z'

loop_
  _atom_site_type_symbol
  _atom_site_label
  _atom_site_symmetry_multiplicity
  _atom_site_fract_x
  _atom_site_fract_y
  _atom_site_fract_z
  _atom_site_occupancy
  Gd  Gd1       1.0  0.76100  0.76100  0.28300  1.0000
  Gd  Gd2       1.0  0.23900  0.23900  0.71700  1.0000
  O   O1        1.0  0.70200  0.70200  0.10600  1.0000
  O   O2        1.0  0.29800  0.29800  0.89400  1.0000
  Pd  Pd1       1.0  0.36800  0.36800  0.10400  1.0000
  Pd  Pd2       1.0  0.63200  0.63200  0.89600  1.0000
  S   S1        1.0  0.12900  0.12900  0.38700  1.0000
  S   S2        1.0  0.87100  0.87100  0.61300  1.0000
