data_image0
_chemical_formula_structural       C2S4
_chemical_formula_sum              "C2 S4"
_cell_length_a       4.45362
_cell_length_b       4.45362
_cell_length_c       9.39089
_cell_angle_alpha    90
_cell_angle_beta     90
_cell_angle_gamma    101.268

_space_group_name_H-M_alt    "P 1"
_space_group_IT_number       1

loop_
  _space_group_symop_operation_xyz
  'x, y, z'

loop_
  _atom_site_type_symbol
  _atom_site_label
  _atom_site_symmetry_multiplicity
  _atom_site_fract_x
  _atom_site_fract_y
  _atom_site_fract_z
  _atom_site_occupancy
  C   C1        1.0  0.50000  0.50000  0.00000  1.0000
  C   C2        1.0  0.00000  0.00000  0.50000  1.0000
  S   S1        1.0  0.29300  0.29300  0.10900  1.0000
  S   S2        1.0  0.79300  0.79300  0.39100  1.0000
  S   S3        1.0  0.20700  0.20700  0.60900  1.0000
  S   S4        1.0  0.70700  0.70700  0.89100  1.0000
