data_image0
_chemical_formula_structural       Gd2Ge2O2S2
_chemical_formula_sum              "Gd2 Ge2 O2 S2"
_cell_length_a       4.5068
_cell_length_b       4.5068
_cell_length_c       9.98463
_cell_angle_alpha    90
_cell_angle_beta     103.043
_cell_angle_gamma    120

_space_group_name_H-M_alt    "P 1"
_space_group_IT_number       1

loop_
  _space_group_symop_operation_xyz
  'x, y, z'

loop_
  _atom_site_type_symbol
  _atom_site_label
  _atom_site_symmetry_multiplicity
  _atom_site_fract_x
  _atom_site_fract_y
  _atom_site_fract_z
  _atom_site_occupancy
  Gd  Gd1       1.0  0.54400  0.77200  0.31600  1.0000
  Gd  Gd2       1.0  0.45600  0.22800  0.68400  1.0000
  Ge  Ge1       1.0  0.73800  0.36900  0.10700  1.0000
  Ge  Ge2       1.0  0.26200  0.63100  0.89300  1.0000
  O   O1        1.0  0.38900  0.69500  0.08360  1.0000
  O   O2        1.0  0.61100  0.30500  0.91600  1.0000
  S   S1        1.0  0.25300  0.12700  0.38000  1.0000
  S   S2        1.0  0.74700  0.87300  0.62000  1.0000
