data_image0
_chemical_formula_structural       Br4Hg2
_chemical_formula_sum              "Br4 Hg2"
_cell_length_a       4.14864
_cell_length_b       4.14864
_cell_length_c       12.4521
_cell_angle_alpha    90
_cell_angle_beta     90
_cell_angle_gamma    112.436

_space_group_name_H-M_alt    "P 1"
_space_group_IT_number       1

loop_
  _space_group_symop_operation_xyz
  'x, y, z'

loop_
  _atom_site_type_symbol
  _atom_site_label
  _atom_site_symmetry_multiplicity
  _atom_site_fract_x
  _atom_site_fract_y
  _atom_site_fract_z
  _atom_site_occupancy
  Br  Br1       1.0  0.94000  0.05980  0.13300  1.0000
  Br  Br2       1.0  0.60700  0.39300  0.36700  1.0000
  Br  Br3       1.0  0.05980  0.94000  0.63300  1.0000
  Br  Br4       1.0  0.39300  0.60700  0.86700  1.0000
  Hg  Hg1       1.0  0.66700  0.33300  0.00000  1.0000
  Hg  Hg2       1.0  0.33300  0.66700  0.50000  1.0000
