data_image0
_chemical_formula_structural       Gd2O2S2Sn2
_chemical_formula_sum              "Gd2 O2 S2 Sn2"
_cell_length_a       4.60513
_cell_length_b       4.60513
_cell_length_c       10.2195
_cell_angle_alpha    76.9789
_cell_angle_beta     103.021
_cell_angle_gamma    120

_space_group_name_H-M_alt    "P 1"
_space_group_IT_number       1

loop_
  _space_group_symop_operation_xyz
  'x, y, z'

loop_
  _atom_site_type_symbol
  _atom_site_label
  _atom_site_symmetry_multiplicity
  _atom_site_fract_x
  _atom_site_fract_y
  _atom_site_fract_z
  _atom_site_occupancy
  Gd  Gd1       1.0  0.77800  0.22200  0.33400  1.0000
  Gd  Gd2       1.0  0.22200  0.77800  0.66600  1.0000
  O   O1        1.0  0.70100  0.29900  0.10300  1.0000
  O   O2        1.0  0.29900  0.70100  0.89700  1.0000
  S   S1        1.0  0.12500  0.87500  0.37500  1.0000
  S   S2        1.0  0.87500  0.12500  0.62500  1.0000
  Sn  Sn1       1.0  0.37100  0.62900  0.11300  1.0000
  Sn  Sn2       1.0  0.62900  0.37100  0.88700  1.0000
