data_image0
_chemical_formula_structural       Cu16Mg6Si7
_chemical_formula_sum              "Cu16 Mg6 Si7"
_cell_length_a       8.23798
_cell_length_b       8.23798
_cell_length_c       8.23798
_cell_angle_alpha    120
_cell_angle_beta     90
_cell_angle_gamma    120

_space_group_name_H-M_alt    "P 1"
_space_group_IT_number       1

loop_
  _space_group_symop_operation_xyz
  'x, y, z'

loop_
  _atom_site_type_symbol
  _atom_site_label
  _atom_site_symmetry_multiplicity
  _atom_site_fract_x
  _atom_site_fract_y
  _atom_site_fract_z
  _atom_site_occupancy
  Cu  Cu1       1.0  0.38000  0.76000  0.14000  1.0000
  Cu  Cu2       1.0  0.50000  0.33300  0.16700  1.0000
  Cu  Cu3       1.0  0.83300  0.33300  0.16700  1.0000
  Cu  Cu4       1.0  0.83300  0.66700  0.16700  1.0000
  Cu  Cu5       1.0  0.62000  0.24000  0.38000  1.0000
  Cu  Cu6       1.0  0.14000  0.76000  0.38000  1.0000
  Cu  Cu7       1.0  0.62000  0.76000  0.38000  1.0000
  Cu  Cu8       1.0  0.83300  0.66700  0.50000  1.0000
  Cu  Cu9       1.0  0.16700  0.33300  0.50000  1.0000
  Cu  Cu10      1.0  0.86000  0.24000  0.62000  1.0000
  Cu  Cu11      1.0  0.38000  0.24000  0.62000  1.0000
  Cu  Cu12      1.0  0.38000  0.76000  0.62000  1.0000
  Cu  Cu13      1.0  0.16700  0.33300  0.83300  1.0000
  Cu  Cu14      1.0  0.16700  0.66700  0.83300  1.0000
  Cu  Cu15      1.0  0.50000  0.66700  0.83300  1.0000
  Cu  Cu16      1.0  0.62000  0.24000  0.86000  1.0000
  Mg  Mg1       1.0  0.79700  0.00000  0.20300  1.0000
  Mg  Mg2       1.0  0.20300  0.00000  0.20300  1.0000
  Mg  Mg3       1.0  0.20300  0.40500  0.20300  1.0000
  Mg  Mg4       1.0  0.20300  0.00000  0.79700  1.0000
  Mg  Mg5       1.0  0.79700  1.00000  0.79700  1.0000
  Mg  Mg6       1.0  0.79700  0.59500  0.79700  1.0000
  Si  Si1       1.0  0.50000  0.00000  0.00000  1.0000
  Si  Si2       1.0  0.00000  0.50000  0.00000  1.0000
  Si  Si3       1.0  0.50000  0.50000  0.00000  1.0000
  Si  Si4       1.0  0.50000  0.00000  0.50000  1.0000
  Si  Si5       1.0  0.00000  0.00000  0.50000  1.0000
  Si  Si6       1.0  0.00000  0.50000  0.50000  1.0000
  Si  Si7       1.0  0.50000  0.50000  0.50000  1.0000
