data_image0
_chemical_formula_structural       Fe3H22Mg4Yb4
_chemical_formula_sum              "Fe3 H22 Mg4 Yb4"
_cell_length_a       6.53945
_cell_length_b       6.53945
_cell_length_c       6.53945
_cell_angle_alpha    90
_cell_angle_beta     90
_cell_angle_gamma    90

_space_group_name_H-M_alt    "P 1"
_space_group_IT_number       1

loop_
  _space_group_symop_operation_xyz
  'x, y, z'

loop_
  _atom_site_type_symbol
  _atom_site_label
  _atom_site_symmetry_multiplicity
  _atom_site_fract_x
  _atom_site_fract_y
  _atom_site_fract_z
  _atom_site_occupancy
  Fe  Fe1       1.0  0.50000  0.00000  0.00000  1.0000
  Fe  Fe2       1.0  0.00000  0.50000  0.00000  1.0000
  Fe  Fe3       1.0  0.00000  0.00000  0.50000  1.0000
  H   H1        1.0  0.25900  0.00000  0.00000  1.0000
  H   H2        1.0  0.74100  0.00000  0.00000  1.0000
  H   H3        1.0  0.50000  0.24100  0.00000  1.0000
  H   H4        1.0  0.00000  0.25900  0.00000  1.0000
  H   H5        1.0  0.24100  0.50000  0.00000  1.0000
  H   H6        1.0  0.75900  0.50000  0.00000  1.0000
  H   H7        1.0  0.00000  0.74100  0.00000  1.0000
  H   H8        1.0  0.50000  0.75900  0.00000  1.0000
  H   H9        1.0  0.50000  0.00000  0.24100  1.0000
  H   H10       1.0  0.00000  0.50000  0.24100  1.0000
  H   H11       1.0  0.00000  0.00000  0.25900  1.0000
  H   H12       1.0  0.37600  0.37600  0.37600  1.0000
  H   H13       1.0  0.62400  0.62400  0.37600  1.0000
  H   H14       1.0  0.24100  0.00000  0.50000  1.0000
  H   H15       1.0  0.75900  0.00000  0.50000  1.0000
  H   H16       1.0  0.00000  0.24100  0.50000  1.0000
  H   H17       1.0  0.00000  0.75900  0.50000  1.0000
  H   H18       1.0  0.62400  0.37600  0.62400  1.0000
  H   H19       1.0  0.37600  0.62400  0.62400  1.0000
  H   H20       1.0  0.00000  0.00000  0.74100  1.0000
  H   H21       1.0  0.50000  0.00000  0.75900  1.0000
  H   H22       1.0  0.00000  0.50000  0.75900  1.0000
  Mg  Mg1       1.0  0.21400  0.21400  0.21400  1.0000
  Mg  Mg2       1.0  0.78600  0.78600  0.21400  1.0000
  Mg  Mg3       1.0  0.78600  0.21400  0.78600  1.0000
  Mg  Mg4       1.0  0.21400  0.78600  0.78600  1.0000
  Yb  Yb1       1.0  0.70900  0.29100  0.29100  1.0000
  Yb  Yb2       1.0  0.29100  0.70900  0.29100  1.0000
  Yb  Yb3       1.0  0.29100  0.29100  0.70900  1.0000
  Yb  Yb4       1.0  0.70900  0.70900  0.70900  1.0000
