data_image0
_chemical_formula_structural       Gd2O2Pt2S2
_chemical_formula_sum              "Gd2 O2 Pt2 S2"
_cell_length_a       3.85103
_cell_length_b       3.85103
_cell_length_c       12.9934
_cell_angle_alpha    98.5222
_cell_angle_beta     81.4778
_cell_angle_gamma    120

_space_group_name_H-M_alt    "P 1"
_space_group_IT_number       1

loop_
  _space_group_symop_operation_xyz
  'x, y, z'

loop_
  _atom_site_type_symbol
  _atom_site_label
  _atom_site_symmetry_multiplicity
  _atom_site_fract_x
  _atom_site_fract_y
  _atom_site_fract_z
  _atom_site_occupancy
  Gd  Gd1       1.0  0.23900  0.76100  0.28400  1.0000
  Gd  Gd2       1.0  0.76100  0.23900  0.71600  1.0000
  O   O1        1.0  0.29700  0.70300  0.10800  1.0000
  O   O2        1.0  0.70300  0.29700  0.89200  1.0000
  Pt  Pt1       1.0  0.62900  0.37100  0.11300  1.0000
  Pt  Pt2       1.0  0.37100  0.62900  0.88700  1.0000
  S   S1        1.0  0.87000  0.13000  0.39100  1.0000
  S   S2        1.0  0.13000  0.87000  0.60900  1.0000
