data_image0
_chemical_formula_structural       Gd2Mg2O2Se2
_chemical_formula_sum              "Gd2 Mg2 O2 Se2"
_cell_length_a       4.04284
_cell_length_b       4.04284
_cell_length_c       12.7223
_cell_angle_alpha    80.8576
_cell_angle_beta     99.1424
_cell_angle_gamma    120

_space_group_name_H-M_alt    "P 1"
_space_group_IT_number       1

loop_
  _space_group_symop_operation_xyz
  'x, y, z'

loop_
  _atom_site_type_symbol
  _atom_site_label
  _atom_site_symmetry_multiplicity
  _atom_site_fract_x
  _atom_site_fract_y
  _atom_site_fract_z
  _atom_site_occupancy
  Gd  Gd1       1.0  0.75600  0.24400  0.26700  1.0000
  Gd  Gd2       1.0  0.24400  0.75600  0.73300  1.0000
  Mg  Mg1       1.0  0.35900  0.64100  0.07570  1.0000
  Mg  Mg2       1.0  0.64100  0.35900  0.92400  1.0000
  O   O1        1.0  0.69400  0.30600  0.08230  1.0000
  O   O2        1.0  0.30600  0.69400  0.91800  1.0000
  Se  Se1       1.0  0.12700  0.87300  0.38200  1.0000
  Se  Se2       1.0  0.87300  0.12700  0.61800  1.0000
