data_image0
_chemical_formula_structural       Mg2O2S2Sr2
_chemical_formula_sum              "Mg2 O2 S2 Sr2"
_cell_length_a       3.95534
_cell_length_b       3.95547
_cell_length_c       11.9208
_cell_angle_alpha    90
_cell_angle_beta     90
_cell_angle_gamma    119.999

_space_group_name_H-M_alt    "P 1"
_space_group_IT_number       1

loop_
  _space_group_symop_operation_xyz
  'x, y, z'

loop_
  _atom_site_type_symbol
  _atom_site_label
  _atom_site_symmetry_multiplicity
  _atom_site_fract_x
  _atom_site_fract_y
  _atom_site_fract_z
  _atom_site_occupancy
  Mg  Mg1       1.0  0.00000  0.00000  0.49900  1.0000
  Mg  Mg2       1.0  0.00000  0.00000  0.99900  1.0000
  O   O1        1.0  0.00000  0.00000  0.33900  1.0000
  O   O2        1.0  0.00000  0.00000  0.83900  1.0000
  S   S1        1.0  0.66700  0.33300  0.08060  1.0000
  S   S2        1.0  0.33300  0.66700  0.58100  1.0000
  Sr  Sr1       1.0  0.33300  0.66700  0.26900  1.0000
  Sr  Sr2       1.0  0.66700  0.33300  0.76900  1.0000
