data_image0
_chemical_formula_structural       Gd8O8S8Zn8
_chemical_formula_sum              "Gd8 O8 S8 Zn8"
_cell_length_a       7.1685
_cell_length_b       10.7125
_cell_length_c       7.07042
_cell_angle_alpha    90
_cell_angle_beta     90
_cell_angle_gamma    90

_space_group_name_H-M_alt    "P 1"
_space_group_IT_number       1

loop_
  _space_group_symop_operation_xyz
  'x, y, z'

loop_
  _atom_site_type_symbol
  _atom_site_label
  _atom_site_symmetry_multiplicity
  _atom_site_fract_x
  _atom_site_fract_y
  _atom_site_fract_z
  _atom_site_occupancy
  Gd  Gd1       1.0  0.03760  0.29400  0.12000  1.0000
  Gd  Gd2       1.0  0.46200  0.79400  0.12000  1.0000
  Gd  Gd3       1.0  0.53800  0.29400  0.38000  1.0000
  Gd  Gd4       1.0  0.96200  0.79400  0.38000  1.0000
  Gd  Gd5       1.0  0.03760  0.20600  0.62000  1.0000
  Gd  Gd6       1.0  0.46200  0.70600  0.62000  1.0000
  Gd  Gd7       1.0  0.53800  0.20600  0.88000  1.0000
  Gd  Gd8       1.0  0.96200  0.70600  0.88000  1.0000
  O   O1        1.0  0.71200  0.30600  0.10800  1.0000
  O   O2        1.0  0.78800  0.80600  0.10800  1.0000
  O   O3        1.0  0.21200  0.30600  0.39200  1.0000
  O   O4        1.0  0.28800  0.80600  0.39200  1.0000
  O   O5        1.0  0.71200  0.19400  0.60800  1.0000
  O   O6        1.0  0.78800  0.69400  0.60800  1.0000
  O   O7        1.0  0.21200  0.19400  0.89200  1.0000
  O   O8        1.0  0.28800  0.69400  0.89200  1.0000
  S   S1        1.0  0.51000  0.05290  0.22900  1.0000
  S   S2        1.0  0.99000  0.55300  0.22900  1.0000
  S   S3        1.0  0.00967  0.05290  0.27100  1.0000
  S   S4        1.0  0.49000  0.55300  0.27100  1.0000
  S   S5        1.0  0.51000  0.44700  0.72900  1.0000
  S   S6        1.0  0.99000  0.94700  0.72900  1.0000
  S   S7        1.0  0.00967  0.44700  0.77100  1.0000
  S   S8        1.0  0.49000  0.94700  0.77100  1.0000
  Zn  Zn1       1.0  0.71000  0.49200  0.01740  1.0000
  Zn  Zn2       1.0  0.79000  0.99200  0.01740  1.0000
  Zn  Zn3       1.0  0.21000  0.49200  0.48300  1.0000
  Zn  Zn4       1.0  0.29000  0.99200  0.48300  1.0000
  Zn  Zn5       1.0  0.71000  0.00772  0.51700  1.0000
  Zn  Zn6       1.0  0.79000  0.50800  0.51700  1.0000
  Zn  Zn7       1.0  0.21000  0.00772  0.98300  1.0000
  Zn  Zn8       1.0  0.29000  0.50800  0.98300  1.0000
