data_image0
_chemical_formula_structural       Gd2O2Pb2S2
_chemical_formula_sum              "Gd2 O2 Pb2 S2"
_cell_length_a       4.83341
_cell_length_b       4.83341
_cell_length_c       10.939
_cell_angle_alpha    102.763
_cell_angle_beta     102.763
_cell_angle_gamma    60

_space_group_name_H-M_alt    "P 1"
_space_group_IT_number       1

loop_
  _space_group_symop_operation_xyz
  'x, y, z'

loop_
  _atom_site_type_symbol
  _atom_site_label
  _atom_site_symmetry_multiplicity
  _atom_site_fract_x
  _atom_site_fract_y
  _atom_site_fract_z
  _atom_site_occupancy
  Gd  Gd1       1.0  0.77600  0.77600  0.32900  1.0000
  Gd  Gd2       1.0  0.22400  0.22400  0.67100  1.0000
  O   O1        1.0  0.70600  0.70600  0.11900  1.0000
  O   O2        1.0  0.29400  0.29400  0.88100  1.0000
  Pb  Pb1       1.0  0.36700  0.36700  0.10200  1.0000
  Pb  Pb2       1.0  0.63300  0.63300  0.89800  1.0000
  S   S1        1.0  0.12300  0.12300  0.36900  1.0000
  S   S2        1.0  0.87700  0.87700  0.63100  1.0000
