data_image0
_chemical_formula_structural       As4Co4Rh4
_chemical_formula_sum              "As4 Co4 Rh4"
_cell_length_a       5.9499
_cell_length_b       3.78041
_cell_length_c       7.00979
_cell_angle_alpha    90
_cell_angle_beta     90
_cell_angle_gamma    90

_space_group_name_H-M_alt    "P 1"
_space_group_IT_number       1

loop_
  _space_group_symop_operation_xyz
  'x, y, z'

loop_
  _atom_site_type_symbol
  _atom_site_label
  _atom_site_symmetry_multiplicity
  _atom_site_fract_x
  _atom_site_fract_y
  _atom_site_fract_z
  _atom_site_occupancy
  As  As1       1.0  0.23700  0.25000  0.12600  1.0000
  As  As2       1.0  0.73700  0.25000  0.37400  1.0000
  As  As3       1.0  0.26300  0.75000  0.62600  1.0000
  As  As4       1.0  0.76300  0.75000  0.87400  1.0000
  Co  Co1       1.0  0.85700  0.25000  0.06220  1.0000
  Co  Co2       1.0  0.35700  0.25000  0.43800  1.0000
  Co  Co3       1.0  0.64300  0.75000  0.56200  1.0000
  Co  Co4       1.0  0.14300  0.75000  0.93800  1.0000
  Rh  Rh1       1.0  0.53500  0.75000  0.17000  1.0000
  Rh  Rh2       1.0  0.03480  0.75000  0.33000  1.0000
  Rh  Rh3       1.0  0.96500  0.25000  0.67000  1.0000
  Rh  Rh4       1.0  0.46500  0.25000  0.83000  1.0000
