data_image0
_chemical_formula_structural       Ba2Gd2O2Se2
_chemical_formula_sum              "Ba2 Gd2 O2 Se2"
_cell_length_a       4.94931
_cell_length_b       4.94931
_cell_length_c       10.4111
_cell_angle_alpha    76.2496
_cell_angle_beta     103.75
_cell_angle_gamma    120

_space_group_name_H-M_alt    "P 1"
_space_group_IT_number       1

loop_
  _space_group_symop_operation_xyz
  'x, y, z'

loop_
  _atom_site_type_symbol
  _atom_site_label
  _atom_site_symmetry_multiplicity
  _atom_site_fract_x
  _atom_site_fract_y
  _atom_site_fract_z
  _atom_site_occupancy
  Ba  Ba1       1.0  0.37500  0.62500  0.12500  1.0000
  Ba  Ba2       1.0  0.62500  0.37500  0.87500  1.0000
  Gd  Gd1       1.0  0.78600  0.21400  0.35700  1.0000
  Gd  Gd2       1.0  0.21400  0.78600  0.64300  1.0000
  O   O1        1.0  0.71400  0.28600  0.14200  1.0000
  O   O2        1.0  0.28600  0.71400  0.85800  1.0000
  Se  Se1       1.0  0.11400  0.88600  0.34200  1.0000
  Se  Se2       1.0  0.88600  0.11400  0.65800  1.0000
