data_image0
_chemical_formula_structural       As4V2
_chemical_formula_sum              "As4 V2"
_cell_length_a       3.27968
_cell_length_b       4.83642
_cell_length_c       6.74898
_cell_angle_alpha    91.8086
_cell_angle_beta     104.062
_cell_angle_gamma    109.82

_space_group_name_H-M_alt    "P 1"
_space_group_IT_number       1

loop_
  _space_group_symop_operation_xyz
  'x, y, z'

loop_
  _atom_site_type_symbol
  _atom_site_label
  _atom_site_symmetry_multiplicity
  _atom_site_fract_x
  _atom_site_fract_y
  _atom_site_fract_z
  _atom_site_occupancy
  As  As1       1.0  0.70200  0.29800  0.10600  1.0000
  As  As2       1.0  0.61300  0.76100  0.46500  1.0000
  As  As3       1.0  0.38700  0.23900  0.53500  1.0000
  As  As4       1.0  0.29800  0.70200  0.89400  1.0000
  V   V1        1.0  0.03980  0.88600  0.19400  1.0000
  V   V2        1.0  0.96000  0.11400  0.80600  1.0000
