data_image0
_chemical_formula_structural       Be2Gd2O2Se2
_chemical_formula_sum              "Be2 Gd2 O2 Se2"
_cell_length_a       4.07563
_cell_length_b       4.07563
_cell_length_c       12.1206
_cell_angle_alpha    80.321
_cell_angle_beta     99.679
_cell_angle_gamma    120

_space_group_name_H-M_alt    "P 1"
_space_group_IT_number       1

loop_
  _space_group_symop_operation_xyz
  'x, y, z'

loop_
  _atom_site_type_symbol
  _atom_site_label
  _atom_site_symmetry_multiplicity
  _atom_site_fract_x
  _atom_site_fract_y
  _atom_site_fract_z
  _atom_site_occupancy
  Be  Be1       1.0  0.35300  0.64700  0.05870  1.0000
  Be  Be2       1.0  0.64700  0.35300  0.94100  1.0000
  Gd  Gd1       1.0  0.75000  0.25000  0.25100  1.0000
  Gd  Gd2       1.0  0.25000  0.75000  0.74900  1.0000
  O   O1        1.0  0.68900  0.31100  0.06610  1.0000
  O   O2        1.0  0.31100  0.68900  0.93400  1.0000
  Se  Se1       1.0  0.12400  0.87600  0.37100  1.0000
  Se  Se2       1.0  0.87600  0.12400  0.62900  1.0000
