data_image0
_chemical_formula_structural       Mg5Na2O16P4
_chemical_formula_sum              "Mg5 Na2 O16 P4"
_cell_length_a       7.87688
_cell_length_b       8.06791
_cell_length_c       5.13206
_cell_angle_alpha    90.6638
_cell_angle_beta     101.812
_cell_angle_gamma    110.41

_space_group_name_H-M_alt    "P 1"
_space_group_IT_number       1

loop_
  _space_group_symop_operation_xyz
  'x, y, z'

loop_
  _atom_site_type_symbol
  _atom_site_label
  _atom_site_symmetry_multiplicity
  _atom_site_fract_x
  _atom_site_fract_y
  _atom_site_fract_z
  _atom_site_occupancy
  Mg  Mg1       1.0  0.00000  0.00000  0.00000  1.0000
  Mg  Mg2       1.0  0.25300  0.77900  0.09220  1.0000
  Mg  Mg3       1.0  0.59400  0.32900  0.36500  1.0000
  Mg  Mg4       1.0  0.40600  0.67100  0.63500  1.0000
  Mg  Mg5       1.0  0.74700  0.22100  0.90800  1.0000
  Na  Na1       1.0  0.96300  0.70500  0.43800  1.0000
  Na  Na2       1.0  0.03660  0.29500  0.56200  1.0000
  O   O1        1.0  0.02680  0.26500  0.06910  1.0000
  O   O2        1.0  0.75300  0.47000  0.11800  1.0000
  O   O3        1.0  0.67200  0.13400  0.24100  1.0000
  O   O4        1.0  0.83100  0.91300  0.25600  1.0000
  O   O5        1.0  0.36900  0.37600  0.27000  1.0000
  O   O6        1.0  0.21700  0.96900  0.31700  1.0000
  O   O7        1.0  0.18100  0.56300  0.32700  1.0000
  O   O8        1.0  0.50500  0.82200  0.34000  1.0000
  O   O9        1.0  0.49500  0.17800  0.66000  1.0000
  O   O10       1.0  0.81900  0.43700  0.67300  1.0000
  O   O11       1.0  0.78300  0.03070  0.68300  1.0000
  O   O12       1.0  0.63100  0.62400  0.73000  1.0000
  O   O13       1.0  0.16900  0.08700  0.74400  1.0000
  O   O14       1.0  0.32800  0.86600  0.75900  1.0000
  O   O15       1.0  0.24700  0.53000  0.88200  1.0000
  O   O16       1.0  0.97300  0.73500  0.93100  1.0000
  P   P1        1.0  0.21100  0.42900  0.13100  1.0000
  P   P2        1.0  0.69700  0.97000  0.38000  1.0000
  P   P3        1.0  0.30300  0.03020  0.62000  1.0000
  P   P4        1.0  0.78900  0.57100  0.86900  1.0000
