data_image0
_chemical_formula_structural       Gd2Mn2O2Se2
_chemical_formula_sum              "Gd2 Mn2 O2 Se2"
_cell_length_a       4.73061
_cell_length_b       4.73061
_cell_length_c       10.2267
_cell_angle_alpha    103.373
_cell_angle_beta     103.373
_cell_angle_gamma    60

_space_group_name_H-M_alt    "P 1"
_space_group_IT_number       1

loop_
  _space_group_symop_operation_xyz
  'x, y, z'

loop_
  _atom_site_type_symbol
  _atom_site_label
  _atom_site_symmetry_multiplicity
  _atom_site_fract_x
  _atom_site_fract_y
  _atom_site_fract_z
  _atom_site_occupancy
  Gd  Gd1       1.0  0.77200  0.77200  0.31500  1.0000
  Gd  Gd2       1.0  0.22800  0.22800  0.68500  1.0000
  Mn  Mn1       1.0  0.36700  0.36700  0.10100  1.0000
  Mn  Mn2       1.0  0.63300  0.63300  0.89900  1.0000
  O   O1        1.0  0.70000  0.70000  0.09890  1.0000
  O   O2        1.0  0.30000  0.30000  0.90100  1.0000
  Se  Se1       1.0  0.12200  0.12200  0.36700  1.0000
  Se  Se2       1.0  0.87800  0.87800  0.63300  1.0000
