data_image0
_chemical_formula_structural       Gd2Mn2O2S2
_chemical_formula_sum              "Gd2 Mn2 O2 S2"
_cell_length_a       4.44805
_cell_length_b       4.44805
_cell_length_c       10.422
_cell_angle_alpha    90
_cell_angle_beta     102.322
_cell_angle_gamma    120

_space_group_name_H-M_alt    "P 1"
_space_group_IT_number       1

loop_
  _space_group_symop_operation_xyz
  'x, y, z'

loop_
  _atom_site_type_symbol
  _atom_site_label
  _atom_site_symmetry_multiplicity
  _atom_site_fract_x
  _atom_site_fract_y
  _atom_site_fract_z
  _atom_site_occupancy
  Gd  Gd1       1.0  0.54600  0.77300  0.32000  1.0000
  Gd  Gd2       1.0  0.45400  0.22700  0.68000  1.0000
  Mn  Mn1       1.0  0.73100  0.36600  0.09660  1.0000
  Mn  Mn2       1.0  0.26900  0.63400  0.90300  1.0000
  O   O1        1.0  0.40100  0.70100  0.10200  1.0000
  O   O2        1.0  0.59900  0.29900  0.89800  1.0000
  S   S1        1.0  0.25400  0.12700  0.38200  1.0000
  S   S2        1.0  0.74600  0.87300  0.61800  1.0000
