data_image0
_chemical_formula_structural       As2La2Rh2
_chemical_formula_sum              "As2 La2 Rh2"
_cell_length_a       4.20474
_cell_length_b       4.20474
_cell_length_c       8.08218
_cell_angle_alpha    105.077
_cell_angle_beta     105.077
_cell_angle_gamma    90

_space_group_name_H-M_alt    "P 1"
_space_group_IT_number       1

loop_
  _space_group_symop_operation_xyz
  'x, y, z'

loop_
  _atom_site_type_symbol
  _atom_site_label
  _atom_site_symmetry_multiplicity
  _atom_site_fract_x
  _atom_site_fract_y
  _atom_site_fract_z
  _atom_site_occupancy
  As  As1       1.0  0.00007  0.00007  0.00015  1.0000
  As  As2       1.0  0.25000  0.75000  0.50000  1.0000
  La  La1       1.0  0.58100  0.58100  0.16200  1.0000
  La  La2       1.0  0.83100  0.33100  0.66200  1.0000
  Rh  Rh1       1.0  0.16500  0.16500  0.33000  1.0000
  Rh  Rh2       1.0  0.41500  0.91500  0.83000  1.0000
