data_image0
_chemical_formula_structural       Mg5Pd10Si16
_chemical_formula_sum              "Mg5 Pd10 Si16"
_cell_length_a       8.92311
_cell_length_b       8.92311
_cell_length_c       8.92311
_cell_angle_alpha    120
_cell_angle_beta     90
_cell_angle_gamma    120

_space_group_name_H-M_alt    "P 1"
_space_group_IT_number       1

loop_
  _space_group_symop_operation_xyz
  'x, y, z'

loop_
  _atom_site_type_symbol
  _atom_site_label
  _atom_site_symmetry_multiplicity
  _atom_site_fract_x
  _atom_site_fract_y
  _atom_site_fract_z
  _atom_site_occupancy
  Mg  Mg1       1.0  0.00000  0.00000  0.00000  1.0000
  Mg  Mg2       1.0  0.65300  0.30600  0.34700  1.0000
  Mg  Mg3       1.0  0.04170  0.69400  0.34700  1.0000
  Mg  Mg4       1.0  0.65300  0.69400  0.34700  1.0000
  Mg  Mg5       1.0  0.65300  0.30600  0.95800  1.0000
  Pd  Pd1       1.0  0.38400  0.25600  0.12800  1.0000
  Pd  Pd2       1.0  0.87200  0.25600  0.12800  1.0000
  Pd  Pd3       1.0  0.87200  0.74400  0.12800  1.0000
  Pd  Pd4       1.0  0.73700  0.00000  0.26300  1.0000
  Pd  Pd5       1.0  0.26300  0.00000  0.26300  1.0000
  Pd  Pd6       1.0  0.26300  0.52700  0.26300  1.0000
  Pd  Pd7       1.0  0.87200  0.74400  0.61600  1.0000
  Pd  Pd8       1.0  0.73700  0.00000  0.73700  1.0000
  Pd  Pd9       1.0  0.26300  0.00000  0.73700  1.0000
  Pd  Pd10      1.0  0.73700  0.47300  0.73700  1.0000
  Si  Si1       1.0  0.42700  0.85500  0.28200  1.0000
  Si  Si2       1.0  0.04540  0.09080  0.41400  1.0000
  Si  Si3       1.0  0.04540  0.36800  0.41400  1.0000
  Si  Si4       1.0  0.32300  0.36800  0.41400  1.0000
  Si  Si5       1.0  0.42700  0.85500  0.57300  1.0000
  Si  Si6       1.0  0.42700  0.14500  0.57300  1.0000
  Si  Si7       1.0  0.71800  0.14500  0.57300  1.0000
  Si  Si8       1.0  0.04540  0.09080  0.67700  1.0000
  Si  Si9       1.0  0.04540  0.63200  0.67700  1.0000
  Si  Si10      1.0  0.58600  0.63200  0.67700  1.0000
  Si  Si11      1.0  0.04540  0.36800  0.95500  1.0000
  Si  Si12      1.0  0.32300  0.36800  0.95500  1.0000
  Si  Si13      1.0  0.04540  0.63200  0.95500  1.0000
  Si  Si14      1.0  0.58600  0.63200  0.95500  1.0000
  Si  Si15      1.0  0.32300  0.90900  0.95500  1.0000
  Si  Si16      1.0  0.58600  0.90900  0.95500  1.0000
