data_image0
_chemical_formula_structural       Fe2Gd2O2Se2
_chemical_formula_sum              "Fe2 Gd2 O2 Se2"
_cell_length_a       4.37357
_cell_length_b       4.37357
_cell_length_c       10.4175
_cell_angle_alpha    102.117
_cell_angle_beta     77.8826
_cell_angle_gamma    120

_space_group_name_H-M_alt    "P 1"
_space_group_IT_number       1

loop_
  _space_group_symop_operation_xyz
  'x, y, z'

loop_
  _atom_site_type_symbol
  _atom_site_label
  _atom_site_symmetry_multiplicity
  _atom_site_fract_x
  _atom_site_fract_y
  _atom_site_fract_z
  _atom_site_occupancy
  Fe  Fe1       1.0  0.63300  0.36700  0.09980  1.0000
  Fe  Fe2       1.0  0.36700  0.63300  0.90000  1.0000
  Gd  Gd1       1.0  0.23400  0.76600  0.29900  1.0000
  Gd  Gd2       1.0  0.76600  0.23400  0.70100  1.0000
  O   O1        1.0  0.30400  0.69600  0.08840  1.0000
  O   O2        1.0  0.69600  0.30400  0.91200  1.0000
  Se  Se1       1.0  0.86900  0.13100  0.39200  1.0000
  Se  Se2       1.0  0.13100  0.86900  0.60800  1.0000
