data_image0
_chemical_formula_structural       Gd2Ni2O2Se2
_chemical_formula_sum              "Gd2 Ni2 O2 Se2"
_cell_length_a       4.28531
_cell_length_b       4.28531
_cell_length_c       11.9115
_cell_angle_alpha    100.363
_cell_angle_beta     100.363
_cell_angle_gamma    60

_space_group_name_H-M_alt    "P 1"
_space_group_IT_number       1

loop_
  _space_group_symop_operation_xyz
  'x, y, z'

loop_
  _atom_site_type_symbol
  _atom_site_label
  _atom_site_symmetry_multiplicity
  _atom_site_fract_x
  _atom_site_fract_y
  _atom_site_fract_z
  _atom_site_occupancy
  Gd  Gd1       1.0  0.75800  0.75800  0.27500  1.0000
  Gd  Gd2       1.0  0.24200  0.24200  0.72500  1.0000
  Ni  Ni1       1.0  0.35600  0.35600  0.06940  1.0000
  Ni  Ni2       1.0  0.64400  0.64400  0.93100  1.0000
  O   O1        1.0  0.70000  0.70000  0.09920  1.0000
  O   O2        1.0  0.30000  0.30000  0.90100  1.0000
  Se  Se1       1.0  0.12600  0.12600  0.37800  1.0000
  Se  Se2       1.0  0.87400  0.87400  0.62200  1.0000
