data_image0
_chemical_formula_structural       Cd2Gd2O2Se2
_chemical_formula_sum              "Cd2 Gd2 O2 Se2"
_cell_length_a       4.61841
_cell_length_b       4.61842
_cell_length_c       10.8707
_cell_angle_alpha    90
_cell_angle_beta     102.264
_cell_angle_gamma    120

_space_group_name_H-M_alt    "P 1"
_space_group_IT_number       1

loop_
  _space_group_symop_operation_xyz
  'x, y, z'

loop_
  _atom_site_type_symbol
  _atom_site_label
  _atom_site_symmetry_multiplicity
  _atom_site_fract_x
  _atom_site_fract_y
  _atom_site_fract_z
  _atom_site_occupancy
  Cd  Cd1       1.0  0.73600  0.36800  0.10300  1.0000
  Cd  Cd2       1.0  0.26400  0.63200  0.89700  1.0000
  Gd  Gd1       1.0  0.53900  0.76900  0.30800  1.0000
  Gd  Gd2       1.0  0.46100  0.23100  0.69200  1.0000
  O   O1        1.0  0.40500  0.70300  0.10800  1.0000
  O   O2        1.0  0.59500  0.29700  0.89200  1.0000
  Se  Se1       1.0  0.25600  0.12800  0.38400  1.0000
  Se  Se2       1.0  0.74400  0.87200  0.61600  1.0000
