data_image0
_chemical_formula_structural       Ir6Mg26
_chemical_formula_sum              "Ir6 Mg26"
_cell_length_a       8.44726
_cell_length_b       9.70226
_cell_length_c       9.70226
_cell_angle_alpha    111.942
_cell_angle_beta     106.871
_cell_angle_gamma    106.871

_space_group_name_H-M_alt    "P 1"
_space_group_IT_number       1

loop_
  _space_group_symop_operation_xyz
  'x, y, z'

loop_
  _atom_site_type_symbol
  _atom_site_label
  _atom_site_symmetry_multiplicity
  _atom_site_fract_x
  _atom_site_fract_y
  _atom_site_fract_z
  _atom_site_occupancy
  Ir  Ir1       1.0  0.42200  0.34400  0.17200  1.0000
  Ir  Ir2       1.0  0.25000  0.82800  0.17200  1.0000
  Ir  Ir3       1.0  0.92200  0.17200  0.34400  1.0000
  Ir  Ir4       1.0  0.07780  0.82800  0.65600  1.0000
  Ir  Ir5       1.0  0.75000  0.17200  0.82800  1.0000
  Ir  Ir6       1.0  0.57800  0.65600  0.82800  1.0000
  Mg  Mg1       1.0  0.00000  0.50000  0.00000  1.0000
  Mg  Mg2       1.0  0.50000  0.50000  0.00000  1.0000
  Mg  Mg3       1.0  0.25000  0.00000  0.00000  1.0000
  Mg  Mg4       1.0  0.75000  0.00000  0.00000  1.0000
  Mg  Mg5       1.0  0.72200  0.31900  0.11200  1.0000
  Mg  Mg6       1.0  0.89000  0.79300  0.11200  1.0000
  Mg  Mg7       1.0  0.61000  0.88800  0.20700  1.0000
  Mg  Mg8       1.0  0.09670  0.31900  0.20700  1.0000
  Mg  Mg9       1.0  0.38100  0.63100  0.26100  1.0000
  Mg  Mg10      1.0  0.22200  0.11200  0.31900  1.0000
  Mg  Mg11      1.0  0.59700  0.20700  0.31900  1.0000
  Mg  Mg12      1.0  0.75000  0.63100  0.36900  1.0000
  Mg  Mg13      1.0  0.11900  0.73900  0.36900  1.0000
  Mg  Mg14      1.0  0.00000  0.50000  0.50000  1.0000
  Mg  Mg15      1.0  0.50000  0.50000  0.50000  1.0000
  Mg  Mg16      1.0  0.00000  0.00000  0.50000  1.0000
  Mg  Mg17      1.0  0.50000  0.00000  0.50000  1.0000
  Mg  Mg18      1.0  0.88100  0.26100  0.63100  1.0000
  Mg  Mg19      1.0  0.25000  0.36900  0.63100  1.0000
  Mg  Mg20      1.0  0.40300  0.79300  0.68100  1.0000
  Mg  Mg21      1.0  0.77800  0.88800  0.68100  1.0000
  Mg  Mg22      1.0  0.61900  0.36900  0.73900  1.0000
  Mg  Mg23      1.0  0.90300  0.68100  0.79300  1.0000
  Mg  Mg24      1.0  0.39000  0.11200  0.79300  1.0000
  Mg  Mg25      1.0  0.11000  0.20700  0.88800  1.0000
  Mg  Mg26      1.0  0.27800  0.68100  0.88800  1.0000
