data_image0
_chemical_formula_structural       Gd2O2Pd2Se2
_chemical_formula_sum              "Gd2 O2 Pd2 Se2"
_cell_length_a       3.9695
_cell_length_b       3.9695
_cell_length_c       12.7582
_cell_angle_alpha    81.0504
_cell_angle_beta     98.9496
_cell_angle_gamma    120

_space_group_name_H-M_alt    "P 1"
_space_group_IT_number       1

loop_
  _space_group_symop_operation_xyz
  'x, y, z'

loop_
  _atom_site_type_symbol
  _atom_site_label
  _atom_site_symmetry_multiplicity
  _atom_site_fract_x
  _atom_site_fract_y
  _atom_site_fract_z
  _atom_site_occupancy
  Gd  Gd1       1.0  0.75800  0.24200  0.27300  1.0000
  Gd  Gd2       1.0  0.24200  0.75800  0.72700  1.0000
  O   O1        1.0  0.70000  0.30000  0.10100  1.0000
  O   O2        1.0  0.30000  0.70000  0.89900  1.0000
  Pd  Pd1       1.0  0.36700  0.63300  0.10200  1.0000
  Pd  Pd2       1.0  0.63300  0.36700  0.89800  1.0000
  Se  Se1       1.0  0.13100  0.86900  0.39300  1.0000
  Se  Se2       1.0  0.86900  0.13100  0.60700  1.0000
