data_image0
_chemical_formula_structural       Mg4O4Se4Zn4
_chemical_formula_sum              "Mg4 O4 Se4 Zn4"
_cell_length_a       5.59266
_cell_length_b       3.59487
_cell_length_c       13.0018
_cell_angle_alpha    90
_cell_angle_beta     90
_cell_angle_gamma    90

_space_group_name_H-M_alt    "P 1"
_space_group_IT_number       1

loop_
  _space_group_symop_operation_xyz
  'x, y, z'

loop_
  _atom_site_type_symbol
  _atom_site_label
  _atom_site_symmetry_multiplicity
  _atom_site_fract_x
  _atom_site_fract_y
  _atom_site_fract_z
  _atom_site_occupancy
  Mg  Mg1       1.0  0.24100  0.75000  0.09720  1.0000
  Mg  Mg2       1.0  0.74100  0.75000  0.40300  1.0000
  Mg  Mg3       1.0  0.25900  0.25000  0.59700  1.0000
  Mg  Mg4       1.0  0.75900  0.25000  0.90300  1.0000
  O   O1        1.0  0.27800  0.25000  0.17200  1.0000
  O   O2        1.0  0.77800  0.25000  0.32800  1.0000
  O   O3        1.0  0.22200  0.75000  0.67200  1.0000
  O   O4        1.0  0.72200  0.75000  0.82800  1.0000
  Se  Se1       1.0  0.76400  0.75000  0.07710  1.0000
  Se  Se2       1.0  0.26400  0.75000  0.42300  1.0000
  Se  Se3       1.0  0.73600  0.25000  0.57700  1.0000
  Se  Se4       1.0  0.23600  0.25000  0.92300  1.0000
  Zn  Zn1       1.0  0.63500  0.25000  0.19200  1.0000
  Zn  Zn2       1.0  0.13500  0.25000  0.30800  1.0000
  Zn  Zn3       1.0  0.86500  0.75000  0.69200  1.0000
  Zn  Zn4       1.0  0.36500  0.75000  0.80800  1.0000
