data_image0
_chemical_formula_structural       Gd2O2Se2Sn2
_chemical_formula_sum              "Gd2 O2 Se2 Sn2"
_cell_length_a       4.83615
_cell_length_b       4.83615
_cell_length_c       10.2646
_cell_angle_alpha    103.625
_cell_angle_beta     76.3745
_cell_angle_gamma    120

_space_group_name_H-M_alt    "P 1"
_space_group_IT_number       1

loop_
  _space_group_symop_operation_xyz
  'x, y, z'

loop_
  _atom_site_type_symbol
  _atom_site_label
  _atom_site_symmetry_multiplicity
  _atom_site_fract_x
  _atom_site_fract_y
  _atom_site_fract_z
  _atom_site_occupancy
  Gd  Gd1       1.0  0.22600  0.77400  0.32300  1.0000
  Gd  Gd2       1.0  0.77400  0.22600  0.67700  1.0000
  O   O1        1.0  0.30000  0.70000  0.10100  1.0000
  O   O2        1.0  0.70000  0.30000  0.89900  1.0000
  Se  Se1       1.0  0.87700  0.12300  0.36900  1.0000
  Se  Se2       1.0  0.12300  0.87700  0.63100  1.0000
  Sn  Sn1       1.0  0.62900  0.37100  0.11200  1.0000
  Sn  Sn2       1.0  0.37100  0.62900  0.88800  1.0000
