data_image0
_chemical_formula_structural       Ca4Fe3H22Mg4
_chemical_formula_sum              "Ca4 Fe3 H22 Mg4"
_cell_length_a       6.57864
_cell_length_b       6.57864
_cell_length_c       6.57864
_cell_angle_alpha    90
_cell_angle_beta     90
_cell_angle_gamma    90

_space_group_name_H-M_alt    "P 1"
_space_group_IT_number       1

loop_
  _space_group_symop_operation_xyz
  'x, y, z'

loop_
  _atom_site_type_symbol
  _atom_site_label
  _atom_site_symmetry_multiplicity
  _atom_site_fract_x
  _atom_site_fract_y
  _atom_site_fract_z
  _atom_site_occupancy
  Ca  Ca1       1.0  0.70800  0.29200  0.29200  1.0000
  Ca  Ca2       1.0  0.29200  0.70800  0.29200  1.0000
  Ca  Ca3       1.0  0.29200  0.29200  0.70800  1.0000
  Ca  Ca4       1.0  0.70800  0.70800  0.70800  1.0000
  Fe  Fe1       1.0  0.50000  0.00000  0.00000  1.0000
  Fe  Fe2       1.0  0.00000  0.50000  0.00000  1.0000
  Fe  Fe3       1.0  0.00000  0.00000  0.50000  1.0000
  H   H1        1.0  0.26000  0.00000  0.00000  1.0000
  H   H2        1.0  0.74000  0.00000  0.00000  1.0000
  H   H3        1.0  0.50000  0.24000  0.00000  1.0000
  H   H4        1.0  0.00000  0.26000  0.00000  1.0000
  H   H5        1.0  0.24000  0.50000  0.00000  1.0000
  H   H6        1.0  0.76000  0.50000  0.00000  1.0000
  H   H7        1.0  0.00000  0.74000  0.00000  1.0000
  H   H8        1.0  0.50000  0.76000  0.00000  1.0000
  H   H9        1.0  0.50000  0.00000  0.24000  1.0000
  H   H10       1.0  0.00000  0.50000  0.24000  1.0000
  H   H11       1.0  0.00000  0.00000  0.26000  1.0000
  H   H12       1.0  0.37400  0.37400  0.37400  1.0000
  H   H13       1.0  0.62600  0.62600  0.37400  1.0000
  H   H14       1.0  0.24000  0.00000  0.50000  1.0000
  H   H15       1.0  0.76000  0.00000  0.50000  1.0000
  H   H16       1.0  0.00000  0.24000  0.50000  1.0000
  H   H17       1.0  0.00000  0.76000  0.50000  1.0000
  H   H18       1.0  0.62600  0.37400  0.62600  1.0000
  H   H19       1.0  0.37400  0.62600  0.62600  1.0000
  H   H20       1.0  0.00000  0.00000  0.74000  1.0000
  H   H21       1.0  0.50000  0.00000  0.76000  1.0000
  H   H22       1.0  0.00000  0.50000  0.76000  1.0000
  Mg  Mg1       1.0  0.21300  0.21300  0.21300  1.0000
  Mg  Mg2       1.0  0.78700  0.78700  0.21300  1.0000
  Mg  Mg3       1.0  0.78700  0.21300  0.78700  1.0000
  Mg  Mg4       1.0  0.21300  0.78700  0.78700  1.0000
