data_image0
_chemical_formula_structural       Gd2O2Pt2Se2
_chemical_formula_sum              "Gd2 O2 Pt2 Se2"
_cell_length_a       4.1178
_cell_length_b       4.1178
_cell_length_c       10.4745
_cell_angle_alpha    78.6639
_cell_angle_beta     101.336
_cell_angle_gamma    120

_space_group_name_H-M_alt    "P 1"
_space_group_IT_number       1

loop_
  _space_group_symop_operation_xyz
  'x, y, z'

loop_
  _atom_site_type_symbol
  _atom_site_label
  _atom_site_symmetry_multiplicity
  _atom_site_fract_x
  _atom_site_fract_y
  _atom_site_fract_z
  _atom_site_occupancy
  Gd  Gd1       1.0  0.71200  0.28800  0.13600  1.0000
  Gd  Gd2       1.0  0.28800  0.71200  0.86400  1.0000
  O   O1        1.0  0.36000  0.64000  0.07930  1.0000
  O   O2        1.0  0.64000  0.36000  0.92100  1.0000
  Pt  Pt1       1.0  0.45600  0.54400  0.36700  1.0000
  Pt  Pt2       1.0  0.54400  0.45600  0.63300  1.0000
  Se  Se1       1.0  0.11100  0.88900  0.33400  1.0000
  Se  Se2       1.0  0.88900  0.11100  0.66600  1.0000
