data_image0
_chemical_formula_structural       Co2Gd2O2Se2
_chemical_formula_sum              "Co2 Gd2 O2 Se2"
_cell_length_a       3.98017
_cell_length_b       3.98017
_cell_length_c       12.554
_cell_angle_alpha    99.1211
_cell_angle_beta     80.8789
_cell_angle_gamma    120

_space_group_name_H-M_alt    "P 1"
_space_group_IT_number       1

loop_
  _space_group_symop_operation_xyz
  'x, y, z'

loop_
  _atom_site_type_symbol
  _atom_site_label
  _atom_site_symmetry_multiplicity
  _atom_site_fract_x
  _atom_site_fract_y
  _atom_site_fract_z
  _atom_site_occupancy
  Co  Co1       1.0  0.64200  0.35800  0.07370  1.0000
  Co  Co2       1.0  0.35800  0.64200  0.92600  1.0000
  Gd  Gd1       1.0  0.24400  0.75600  0.26700  1.0000
  Gd  Gd2       1.0  0.75600  0.24400  0.73300  1.0000
  O   O1        1.0  0.30300  0.69700  0.08980  1.0000
  O   O2        1.0  0.69700  0.30300  0.91000  1.0000
  Se  Se1       1.0  0.87100  0.12900  0.38600  1.0000
  Se  Se2       1.0  0.12900  0.87100  0.61400  1.0000
