data_image0
_chemical_formula_structural       Gd2Ge2O2Se2
_chemical_formula_sum              "Gd2 Ge2 O2 Se2"
_cell_length_a       4.77118
_cell_length_b       4.77118
_cell_length_c       9.89557
_cell_angle_alpha    103.95
_cell_angle_beta     76.0499
_cell_angle_gamma    120

_space_group_name_H-M_alt    "P 1"
_space_group_IT_number       1

loop_
  _space_group_symop_operation_xyz
  'x, y, z'

loop_
  _atom_site_type_symbol
  _atom_site_label
  _atom_site_symmetry_multiplicity
  _atom_site_fract_x
  _atom_site_fract_y
  _atom_site_fract_z
  _atom_site_occupancy
  Gd  Gd1       1.0  0.23200  0.76800  0.30400  1.0000
  Gd  Gd2       1.0  0.76800  0.23200  0.69600  1.0000
  Ge  Ge1       1.0  0.62900  0.37100  0.11300  1.0000
  Ge  Ge2       1.0  0.37100  0.62900  0.88700  1.0000
  O   O1        1.0  0.30800  0.69200  0.07540  1.0000
  O   O2        1.0  0.69200  0.30800  0.92500  1.0000
  Se  Se1       1.0  0.87600  0.12400  0.37100  1.0000
  Se  Se2       1.0  0.12400  0.87600  0.62900  1.0000
