data_image0
_chemical_formula_structural       Ca4In4Rh4
_chemical_formula_sum              "Ca4 In4 Rh4"
_cell_length_a       7.32982
_cell_length_b       4.35112
_cell_length_c       8.33357
_cell_angle_alpha    90
_cell_angle_beta     90
_cell_angle_gamma    90

_space_group_name_H-M_alt    "P 1"
_space_group_IT_number       1

loop_
  _space_group_symop_operation_xyz
  'x, y, z'

loop_
  _atom_site_type_symbol
  _atom_site_label
  _atom_site_symmetry_multiplicity
  _atom_site_fract_x
  _atom_site_fract_y
  _atom_site_fract_z
  _atom_site_occupancy
  Ca  Ca1       1.0  0.47500  0.75000  0.17600  1.0000
  Ca  Ca2       1.0  0.97500  0.75000  0.32400  1.0000
  Ca  Ca3       1.0  0.02460  0.25000  0.67600  1.0000
  Ca  Ca4       1.0  0.52500  0.25000  0.82400  1.0000
  In  In1       1.0  0.15100  0.25000  0.06620  1.0000
  In  In2       1.0  0.65100  0.25000  0.43400  1.0000
  In  In3       1.0  0.34900  0.75000  0.56600  1.0000
  In  In4       1.0  0.84900  0.75000  0.93400  1.0000
  Rh  Rh1       1.0  0.77700  0.25000  0.12400  1.0000
  Rh  Rh2       1.0  0.27700  0.25000  0.37600  1.0000
  Rh  Rh3       1.0  0.72300  0.75000  0.62400  1.0000
  Rh  Rh4       1.0  0.22300  0.75000  0.87600  1.0000
