data_image0
_chemical_formula_structural       O4Se4Sr4Zn4
_chemical_formula_sum              "O4 Se4 Sr4 Zn4"
_cell_length_a       6.14607
_cell_length_b       4.04305
_cell_length_c       13.6988
_cell_angle_alpha    90
_cell_angle_beta     90
_cell_angle_gamma    90

_space_group_name_H-M_alt    "P 1"
_space_group_IT_number       1

loop_
  _space_group_symop_operation_xyz
  'x, y, z'

loop_
  _atom_site_type_symbol
  _atom_site_label
  _atom_site_symmetry_multiplicity
  _atom_site_fract_x
  _atom_site_fract_y
  _atom_site_fract_z
  _atom_site_occupancy
  O   O1        1.0  0.33900  0.25000  0.19300  1.0000
  O   O2        1.0  0.83900  0.25000  0.30700  1.0000
  O   O3        1.0  0.16100  0.75000  0.69300  1.0000
  O   O4        1.0  0.66100  0.75000  0.80700  1.0000
  Se  Se1       1.0  0.76100  0.75000  0.08560  1.0000
  Se  Se2       1.0  0.26100  0.75000  0.41400  1.0000
  Se  Se3       1.0  0.73900  0.25000  0.58600  1.0000
  Se  Se4       1.0  0.23900  0.25000  0.91400  1.0000
  Sr  Sr1       1.0  0.26000  0.75000  0.10100  1.0000
  Sr  Sr2       1.0  0.76000  0.75000  0.39900  1.0000
  Sr  Sr3       1.0  0.24000  0.25000  0.60100  1.0000
  Sr  Sr4       1.0  0.74000  0.25000  0.89900  1.0000
  Zn  Zn1       1.0  0.66500  0.25000  0.18800  1.0000
  Zn  Zn2       1.0  0.16500  0.25000  0.31200  1.0000
  Zn  Zn3       1.0  0.83500  0.75000  0.68800  1.0000
  Zn  Zn4       1.0  0.33500  0.75000  0.81200  1.0000
