data_image0
_chemical_formula_structural       O2Se2Sn2Sr2
_chemical_formula_sum              "O2 Se2 Sn2 Sr2"
_cell_length_a       4.13096
_cell_length_b       4.13081
_cell_length_c       13.8895
_cell_angle_alpha    90
_cell_angle_beta     90
_cell_angle_gamma    120.001

_space_group_name_H-M_alt    "P 1"
_space_group_IT_number       1

loop_
  _space_group_symop_operation_xyz
  'x, y, z'

loop_
  _atom_site_type_symbol
  _atom_site_label
  _atom_site_symmetry_multiplicity
  _atom_site_fract_x
  _atom_site_fract_y
  _atom_site_fract_z
  _atom_site_occupancy
  O   O1        1.0  0.00000  0.00000  0.32900  1.0000
  O   O2        1.0  0.00000  0.00000  0.82900  1.0000
  Se  Se1       1.0  0.66700  0.33300  0.11000  1.0000
  Se  Se2       1.0  0.33300  0.66700  0.61000  1.0000
  Sn  Sn1       1.0  0.00000  0.00000  0.48500  1.0000
  Sn  Sn2       1.0  0.00000  0.00000  0.98500  1.0000
  Sr  Sr1       1.0  0.33300  0.66700  0.26300  1.0000
  Sr  Sr2       1.0  0.66700  0.33300  0.76300  1.0000
