data_image0
_chemical_formula_structural       Ge4Sc2
_chemical_formula_sum              "Ge4 Sc2"
_cell_length_a       3.82631
_cell_length_b       3.91763
_cell_length_c       7.66505
_cell_angle_alpha    75.1938
_cell_angle_beta     90
_cell_angle_gamma    90

_space_group_name_H-M_alt    "P 1"
_space_group_IT_number       1

loop_
  _space_group_symop_operation_xyz
  'x, y, z'

loop_
  _atom_site_type_symbol
  _atom_site_label
  _atom_site_symmetry_multiplicity
  _atom_site_fract_x
  _atom_site_fract_y
  _atom_site_fract_z
  _atom_site_occupancy
  Ge  Ge1       1.0  0.75000  0.44100  0.11900  1.0000
  Ge  Ge2       1.0  0.25000  0.25100  0.49900  1.0000
  Ge  Ge3       1.0  0.75000  0.74900  0.50100  1.0000
  Ge  Ge4       1.0  0.25000  0.55900  0.88100  1.0000
  Sc  Sc1       1.0  0.25000  0.90000  0.20100  1.0000
  Sc  Sc2       1.0  0.75000  0.10000  0.79900  1.0000
