data_image0
_chemical_formula_structural       Ba4Hg4O4Se4
_chemical_formula_sum              "Ba4 Hg4 O4 Se4"
_cell_length_a       6.59593
_cell_length_b       4.35901
_cell_length_c       15.0467
_cell_angle_alpha    90
_cell_angle_beta     90
_cell_angle_gamma    90

_space_group_name_H-M_alt    "P 1"
_space_group_IT_number       1

loop_
  _space_group_symop_operation_xyz
  'x, y, z'

loop_
  _atom_site_type_symbol
  _atom_site_label
  _atom_site_symmetry_multiplicity
  _atom_site_fract_x
  _atom_site_fract_y
  _atom_site_fract_z
  _atom_site_occupancy
  Ba  Ba1       1.0  0.25200  0.75000  0.10800  1.0000
  Ba  Ba2       1.0  0.75200  0.75000  0.39200  1.0000
  Ba  Ba3       1.0  0.24800  0.25000  0.60800  1.0000
  Ba  Ba4       1.0  0.74800  0.25000  0.89200  1.0000
  Hg  Hg1       1.0  0.69600  0.25000  0.17600  1.0000
  Hg  Hg2       1.0  0.19600  0.25000  0.32400  1.0000
  Hg  Hg3       1.0  0.80400  0.75000  0.67600  1.0000
  Hg  Hg4       1.0  0.30400  0.75000  0.82400  1.0000
  O   O1        1.0  0.32600  0.25000  0.18900  1.0000
  O   O2        1.0  0.82600  0.25000  0.31100  1.0000
  O   O3        1.0  0.17400  0.75000  0.68900  1.0000
  O   O4        1.0  0.67400  0.75000  0.81100  1.0000
  Se  Se1       1.0  0.75200  0.75000  0.07330  1.0000
  Se  Se2       1.0  0.25200  0.75000  0.42700  1.0000
  Se  Se3       1.0  0.74800  0.25000  0.57300  1.0000
  Se  Se4       1.0  0.24800  0.25000  0.92700  1.0000
