data_image0
_chemical_formula_structural       Ca4Cu4O4Se4
_chemical_formula_sum              "Ca4 Cu4 O4 Se4"
_cell_length_a       6.94173
_cell_length_b       3.30894
_cell_length_c       12.3201
_cell_angle_alpha    90
_cell_angle_beta     90
_cell_angle_gamma    90

_space_group_name_H-M_alt    "P 1"
_space_group_IT_number       1

loop_
  _space_group_symop_operation_xyz
  'x, y, z'

loop_
  _atom_site_type_symbol
  _atom_site_label
  _atom_site_symmetry_multiplicity
  _atom_site_fract_x
  _atom_site_fract_y
  _atom_site_fract_z
  _atom_site_occupancy
  Ca  Ca1       1.0  0.57200  0.25000  0.20700  1.0000
  Ca  Ca2       1.0  0.07230  0.25000  0.29300  1.0000
  Ca  Ca3       1.0  0.92800  0.75000  0.70700  1.0000
  Ca  Ca4       1.0  0.42800  0.75000  0.79300  1.0000
  Cu  Cu1       1.0  0.23100  0.75000  0.06510  1.0000
  Cu  Cu2       1.0  0.73100  0.75000  0.43500  1.0000
  Cu  Cu3       1.0  0.26900  0.25000  0.56500  1.0000
  Cu  Cu4       1.0  0.76900  0.25000  0.93500  1.0000
  O   O1        1.0  0.27300  0.25000  0.15700  1.0000
  O   O2        1.0  0.77300  0.25000  0.34300  1.0000
  O   O3        1.0  0.22700  0.75000  0.65700  1.0000
  O   O4        1.0  0.72700  0.75000  0.84300  1.0000
  Se  Se1       1.0  0.81400  0.75000  0.07650  1.0000
  Se  Se2       1.0  0.31400  0.75000  0.42300  1.0000
  Se  Se3       1.0  0.68600  0.25000  0.57700  1.0000
  Se  Se4       1.0  0.18600  0.25000  0.92300  1.0000
