data_image0
_chemical_formula_structural       Cd4Mn4O4Se4
_chemical_formula_sum              "Cd4 Mn4 O4 Se4"
_cell_length_a       5.94526
_cell_length_b       3.68307
_cell_length_c       13.8854
_cell_angle_alpha    90
_cell_angle_beta     90
_cell_angle_gamma    90

_space_group_name_H-M_alt    "P 1"
_space_group_IT_number       1

loop_
  _space_group_symop_operation_xyz
  'x, y, z'

loop_
  _atom_site_type_symbol
  _atom_site_label
  _atom_site_symmetry_multiplicity
  _atom_site_fract_x
  _atom_site_fract_y
  _atom_site_fract_z
  _atom_site_occupancy
  Cd  Cd1       1.0  0.63500  0.25000  0.19200  1.0000
  Cd  Cd2       1.0  0.13500  0.25000  0.30800  1.0000
  Cd  Cd3       1.0  0.86500  0.75000  0.69200  1.0000
  Cd  Cd4       1.0  0.36500  0.75000  0.80800  1.0000
  Mn  Mn1       1.0  0.22000  0.75000  0.08600  1.0000
  Mn  Mn2       1.0  0.72000  0.75000  0.41400  1.0000
  Mn  Mn3       1.0  0.28000  0.25000  0.58600  1.0000
  Mn  Mn4       1.0  0.78000  0.25000  0.91400  1.0000
  O   O1        1.0  0.26500  0.25000  0.16200  1.0000
  O   O2        1.0  0.76500  0.25000  0.33800  1.0000
  O   O3        1.0  0.23500  0.75000  0.66200  1.0000
  O   O4        1.0  0.73500  0.75000  0.83800  1.0000
  Se  Se1       1.0  0.77100  0.75000  0.06840  1.0000
  Se  Se2       1.0  0.27100  0.75000  0.43200  1.0000
  Se  Se3       1.0  0.72900  0.25000  0.56800  1.0000
  Se  Se4       1.0  0.22900  0.25000  0.93200  1.0000
