data_image0
_chemical_formula_structural       Cd4O4Se4Sr4
_chemical_formula_sum              "Cd4 O4 Se4 Sr4"
_cell_length_a       6.32861
_cell_length_b       4.14998
_cell_length_c       14.6017
_cell_angle_alpha    90
_cell_angle_beta     90
_cell_angle_gamma    90

_space_group_name_H-M_alt    "P 1"
_space_group_IT_number       1

loop_
  _space_group_symop_operation_xyz
  'x, y, z'

loop_
  _atom_site_type_symbol
  _atom_site_label
  _atom_site_symmetry_multiplicity
  _atom_site_fract_x
  _atom_site_fract_y
  _atom_site_fract_z
  _atom_site_occupancy
  Cd  Cd1       1.0  0.66300  0.25000  0.18700  1.0000
  Cd  Cd2       1.0  0.16300  0.25000  0.31300  1.0000
  Cd  Cd3       1.0  0.83700  0.75000  0.68700  1.0000
  Cd  Cd4       1.0  0.33700  0.75000  0.81300  1.0000
  O   O1        1.0  0.30600  0.25000  0.17900  1.0000
  O   O2        1.0  0.80600  0.25000  0.32100  1.0000
  O   O3        1.0  0.19400  0.75000  0.67900  1.0000
  O   O4        1.0  0.69400  0.75000  0.82100  1.0000
  Se  Se1       1.0  0.75900  0.75000  0.07740  1.0000
  Se  Se2       1.0  0.25900  0.75000  0.42300  1.0000
  Se  Se3       1.0  0.74100  0.25000  0.57700  1.0000
  Se  Se4       1.0  0.24100  0.25000  0.92300  1.0000
  Sr  Sr1       1.0  0.25300  0.75000  0.09510  1.0000
  Sr  Sr2       1.0  0.75300  0.75000  0.40500  1.0000
  Sr  Sr3       1.0  0.24700  0.25000  0.59500  1.0000
  Sr  Sr4       1.0  0.74700  0.25000  0.90500  1.0000
