data_image0
_chemical_formula_structural       Cu4Ge4O4Se4
_chemical_formula_sum              "Cu4 Ge4 O4 Se4"
_cell_length_a       5.43635
_cell_length_b       8.71857
_cell_length_c       5.37375
_cell_angle_alpha    90
_cell_angle_beta     90
_cell_angle_gamma    90

_space_group_name_H-M_alt    "P 1"
_space_group_IT_number       1

loop_
  _space_group_symop_operation_xyz
  'x, y, z'

loop_
  _atom_site_type_symbol
  _atom_site_label
  _atom_site_symmetry_multiplicity
  _atom_site_fract_x
  _atom_site_fract_y
  _atom_site_fract_z
  _atom_site_occupancy
  Cu  Cu1       1.0  0.24700  0.05240  0.37700  1.0000
  Cu  Cu2       1.0  0.74700  0.94800  0.37700  1.0000
  Cu  Cu3       1.0  0.25300  0.05240  0.87700  1.0000
  Cu  Cu4       1.0  0.75300  0.94800  0.87700  1.0000
  Ge  Ge1       1.0  0.97100  0.31100  0.12400  1.0000
  Ge  Ge2       1.0  0.47100  0.68900  0.12400  1.0000
  Ge  Ge3       1.0  0.52900  0.31100  0.62400  1.0000
  Ge  Ge4       1.0  0.02870  0.68900  0.62400  1.0000
  O   O1        1.0  0.99300  0.09490  0.12500  1.0000
  O   O2        1.0  0.49300  0.90500  0.12500  1.0000
  O   O3        1.0  0.50700  0.09490  0.62500  1.0000
  O   O4        1.0  0.00703  0.90500  0.62500  1.0000
  Se  Se1       1.0  0.49200  0.33700  0.12400  1.0000
  Se  Se2       1.0  0.99200  0.66300  0.12400  1.0000
  Se  Se3       1.0  0.00771  0.33700  0.62400  1.0000
  Se  Se4       1.0  0.50800  0.66300  0.62400  1.0000
