data_image0
_chemical_formula_structural       Be4O4Se4Sr4
_chemical_formula_sum              "Be4 O4 Se4 Sr4"
_cell_length_a       5.74084
_cell_length_b       8.51974
_cell_length_c       6.31152
_cell_angle_alpha    90
_cell_angle_beta     90
_cell_angle_gamma    90

_space_group_name_H-M_alt    "P 1"
_space_group_IT_number       1

loop_
  _space_group_symop_operation_xyz
  'x, y, z'

loop_
  _atom_site_type_symbol
  _atom_site_label
  _atom_site_symmetry_multiplicity
  _atom_site_fract_x
  _atom_site_fract_y
  _atom_site_fract_z
  _atom_site_occupancy
  Be  Be1       1.0  0.42700  0.06730  0.06300  1.0000
  Be  Be2       1.0  0.92700  0.93300  0.06300  1.0000
  Be  Be3       1.0  0.07330  0.06730  0.56300  1.0000
  Be  Be4       1.0  0.57300  0.93300  0.56300  1.0000
  O   O1        1.0  0.16300  0.02090  0.06340  1.0000
  O   O2        1.0  0.66300  0.97900  0.06340  1.0000
  O   O3        1.0  0.33700  0.02090  0.56300  1.0000
  O   O4        1.0  0.83700  0.97900  0.56300  1.0000
  Se  Se1       1.0  0.48500  0.33400  0.06180  1.0000
  Se  Se2       1.0  0.98500  0.66600  0.06180  1.0000
  Se  Se3       1.0  0.01460  0.33400  0.56200  1.0000
  Se  Se4       1.0  0.51500  0.66600  0.56200  1.0000
  Sr  Sr1       1.0  0.98600  0.29100  0.06190  1.0000
  Sr  Sr2       1.0  0.48600  0.70900  0.06190  1.0000
  Sr  Sr3       1.0  0.51400  0.29100  0.56200  1.0000
  Sr  Sr4       1.0  0.01350  0.70900  0.56200  1.0000
