data_image0
_chemical_formula_structural       Cd4Mg4O4Se4
_chemical_formula_sum              "Cd4 Mg4 O4 Se4"
_cell_length_a       5.99855
_cell_length_b       3.59321
_cell_length_c       13.8721
_cell_angle_alpha    90
_cell_angle_beta     90
_cell_angle_gamma    90

_space_group_name_H-M_alt    "P 1"
_space_group_IT_number       1

loop_
  _space_group_symop_operation_xyz
  'x, y, z'

loop_
  _atom_site_type_symbol
  _atom_site_label
  _atom_site_symmetry_multiplicity
  _atom_site_fract_x
  _atom_site_fract_y
  _atom_site_fract_z
  _atom_site_occupancy
  Cd  Cd1       1.0  0.62600  0.25000  0.19300  1.0000
  Cd  Cd2       1.0  0.12600  0.25000  0.30700  1.0000
  Cd  Cd3       1.0  0.87400  0.75000  0.69300  1.0000
  Cd  Cd4       1.0  0.37400  0.75000  0.80700  1.0000
  Mg  Mg1       1.0  0.21300  0.75000  0.09110  1.0000
  Mg  Mg2       1.0  0.71300  0.75000  0.40900  1.0000
  Mg  Mg3       1.0  0.28700  0.25000  0.59100  1.0000
  Mg  Mg4       1.0  0.78700  0.25000  0.90900  1.0000
  O   O1        1.0  0.25800  0.25000  0.16100  1.0000
  O   O2        1.0  0.75800  0.25000  0.33900  1.0000
  O   O3        1.0  0.24200  0.75000  0.66100  1.0000
  O   O4        1.0  0.74200  0.75000  0.83900  1.0000
  Se  Se1       1.0  0.77000  0.75000  0.06830  1.0000
  Se  Se2       1.0  0.27000  0.75000  0.43200  1.0000
  Se  Se3       1.0  0.73000  0.25000  0.56800  1.0000
  Se  Se4       1.0  0.23000  0.25000  0.93200  1.0000
