data_image0
_chemical_formula_structural       Mg4Ni4O4Se4
_chemical_formula_sum              "Mg4 Ni4 O4 Se4"
_cell_length_a       5.72319
_cell_length_b       3.50894
_cell_length_c       11.898
_cell_angle_alpha    90
_cell_angle_beta     90
_cell_angle_gamma    90

_space_group_name_H-M_alt    "P 1"
_space_group_IT_number       1

loop_
  _space_group_symop_operation_xyz
  'x, y, z'

loop_
  _atom_site_type_symbol
  _atom_site_label
  _atom_site_symmetry_multiplicity
  _atom_site_fract_x
  _atom_site_fract_y
  _atom_site_fract_z
  _atom_site_occupancy
  Mg  Mg1       1.0  0.25600  0.75000  0.06400  1.0000
  Mg  Mg2       1.0  0.75600  0.75000  0.43600  1.0000
  Mg  Mg3       1.0  0.24400  0.25000  0.56400  1.0000
  Mg  Mg4       1.0  0.74400  0.25000  0.93600  1.0000
  Ni  Ni1       1.0  0.55300  0.25000  0.24500  1.0000
  Ni  Ni2       1.0  0.05340  0.25000  0.25500  1.0000
  Ni  Ni3       1.0  0.94700  0.75000  0.74500  1.0000
  Ni  Ni4       1.0  0.44700  0.75000  0.75500  1.0000
  O   O1        1.0  0.29700  0.25000  0.13800  1.0000
  O   O2        1.0  0.79700  0.25000  0.36200  1.0000
  O   O3        1.0  0.20300  0.75000  0.63800  1.0000
  O   O4        1.0  0.70300  0.75000  0.86200  1.0000
  Se  Se1       1.0  0.79200  0.75000  0.12700  1.0000
  Se  Se2       1.0  0.29200  0.75000  0.37300  1.0000
  Se  Se3       1.0  0.70800  0.25000  0.62700  1.0000
  Se  Se4       1.0  0.20800  0.25000  0.87300  1.0000
