data_image0
_chemical_formula_structural       Cu4O4Pb4Se4
_chemical_formula_sum              "Cu4 O4 Pb4 Se4"
_cell_length_a       7.33803
_cell_length_b       3.29408
_cell_length_c       12.8833
_cell_angle_alpha    90
_cell_angle_beta     90
_cell_angle_gamma    90

_space_group_name_H-M_alt    "P 1"
_space_group_IT_number       1

loop_
  _space_group_symop_operation_xyz
  'x, y, z'

loop_
  _atom_site_type_symbol
  _atom_site_label
  _atom_site_symmetry_multiplicity
  _atom_site_fract_x
  _atom_site_fract_y
  _atom_site_fract_z
  _atom_site_occupancy
  Cu  Cu1       1.0  0.22900  0.75000  0.04090  1.0000
  Cu  Cu2       1.0  0.72900  0.75000  0.45900  1.0000
  Cu  Cu3       1.0  0.27100  0.25000  0.54100  1.0000
  Cu  Cu4       1.0  0.77100  0.25000  0.95900  1.0000
  O   O1        1.0  0.26100  0.25000  0.12500  1.0000
  O   O2        1.0  0.76100  0.25000  0.37500  1.0000
  O   O3        1.0  0.23900  0.75000  0.62500  1.0000
  O   O4        1.0  0.73900  0.75000  0.87500  1.0000
  Pb  Pb1       1.0  0.52200  0.25000  0.23500  1.0000
  Pb  Pb2       1.0  0.02240  0.25000  0.26500  1.0000
  Pb  Pb3       1.0  0.97800  0.75000  0.73500  1.0000
  Pb  Pb4       1.0  0.47800  0.75000  0.76500  1.0000
  Se  Se1       1.0  0.80000  0.75000  0.09380  1.0000
  Se  Se2       1.0  0.30000  0.75000  0.40600  1.0000
  Se  Se3       1.0  0.70000  0.25000  0.59400  1.0000
  Se  Se4       1.0  0.20000  0.25000  0.90600  1.0000
