data_image0
_chemical_formula_structural       Be8Ge8O8Se8
_chemical_formula_sum              "Be8 Ge8 O8 Se8"
_cell_length_a       7.115
_cell_length_b       14.3344
_cell_length_c       4.92099
_cell_angle_alpha    90
_cell_angle_beta     90
_cell_angle_gamma    90

_space_group_name_H-M_alt    "P 1"
_space_group_IT_number       1

loop_
  _space_group_symop_operation_xyz
  'x, y, z'

loop_
  _atom_site_type_symbol
  _atom_site_label
  _atom_site_symmetry_multiplicity
  _atom_site_fract_x
  _atom_site_fract_y
  _atom_site_fract_z
  _atom_site_occupancy
  Be  Be1       1.0  0.24100  0.20700  0.08400  1.0000
  Be  Be2       1.0  0.25900  0.70700  0.08400  1.0000
  Be  Be3       1.0  0.74100  0.20700  0.41600  1.0000
  Be  Be4       1.0  0.75900  0.70700  0.41600  1.0000
  Be  Be5       1.0  0.24100  0.29300  0.58400  1.0000
  Be  Be6       1.0  0.25900  0.79300  0.58400  1.0000
  Be  Be7       1.0  0.74100  0.29300  0.91600  1.0000
  Be  Be8       1.0  0.75900  0.79300  0.91600  1.0000
  Ge  Ge1       1.0  0.24600  0.42200  0.13000  1.0000
  Ge  Ge2       1.0  0.25400  0.92200  0.13000  1.0000
  Ge  Ge3       1.0  0.74600  0.42200  0.37000  1.0000
  Ge  Ge4       1.0  0.75400  0.92200  0.37000  1.0000
  Ge  Ge5       1.0  0.24600  0.07830  0.63000  1.0000
  Ge  Ge6       1.0  0.25400  0.57800  0.63000  1.0000
  Ge  Ge7       1.0  0.74600  0.07830  0.87000  1.0000
  Ge  Ge8       1.0  0.75400  0.57800  0.87000  1.0000
  O   O1        1.0  0.74300  0.29600  0.23600  1.0000
  O   O2        1.0  0.75700  0.79600  0.23600  1.0000
  O   O3        1.0  0.24300  0.29600  0.26400  1.0000
  O   O4        1.0  0.25700  0.79600  0.26400  1.0000
  O   O5        1.0  0.74300  0.20400  0.73600  1.0000
  O   O6        1.0  0.75700  0.70400  0.73600  1.0000
  O   O7        1.0  0.24300  0.20400  0.76400  1.0000
  O   O8        1.0  0.25700  0.70400  0.76400  1.0000
  Se  Se1       1.0  0.49500  0.11400  0.24800  1.0000
  Se  Se2       1.0  0.00516  0.61400  0.24800  1.0000
  Se  Se3       1.0  0.99500  0.11400  0.25200  1.0000
  Se  Se4       1.0  0.50500  0.61400  0.25200  1.0000
  Se  Se5       1.0  0.49500  0.38600  0.74800  1.0000
  Se  Se6       1.0  0.00516  0.88600  0.74800  1.0000
  Se  Se7       1.0  0.99500  0.38600  0.75200  1.0000
  Se  Se8       1.0  0.50500  0.88600  0.75200  1.0000
