data_image0
_chemical_formula_structural       Co4Mg4O4Se4
_chemical_formula_sum              "Co4 Mg4 O4 Se4"
_cell_length_a       5.6376
_cell_length_b       3.53747
_cell_length_c       12.9639
_cell_angle_alpha    90
_cell_angle_beta     90
_cell_angle_gamma    90

_space_group_name_H-M_alt    "P 1"
_space_group_IT_number       1

loop_
  _space_group_symop_operation_xyz
  'x, y, z'

loop_
  _atom_site_type_symbol
  _atom_site_label
  _atom_site_symmetry_multiplicity
  _atom_site_fract_x
  _atom_site_fract_y
  _atom_site_fract_z
  _atom_site_occupancy
  Co  Co1       1.0  0.62400  0.25000  0.19600  1.0000
  Co  Co2       1.0  0.12400  0.25000  0.30400  1.0000
  Co  Co3       1.0  0.87600  0.75000  0.69600  1.0000
  Co  Co4       1.0  0.37600  0.75000  0.80400  1.0000
  Mg  Mg1       1.0  0.24300  0.75000  0.09260  1.0000
  Mg  Mg2       1.0  0.74300  0.75000  0.40700  1.0000
  Mg  Mg3       1.0  0.25700  0.25000  0.59300  1.0000
  Mg  Mg4       1.0  0.75700  0.25000  0.90700  1.0000
  O   O1        1.0  0.27700  0.25000  0.17000  1.0000
  O   O2        1.0  0.77700  0.25000  0.33000  1.0000
  O   O3        1.0  0.22300  0.75000  0.67000  1.0000
  O   O4        1.0  0.72300  0.75000  0.83000  1.0000
  Se  Se1       1.0  0.76400  0.75000  0.08200  1.0000
  Se  Se2       1.0  0.26400  0.75000  0.41800  1.0000
  Se  Se3       1.0  0.73600  0.25000  0.58200  1.0000
  Se  Se4       1.0  0.23600  0.25000  0.91800  1.0000
