data_image0
_chemical_formula_structural       Mg23Sr6
_chemical_formula_sum              "Mg23 Sr6"
_cell_length_a       10.5319
_cell_length_b       10.5319
_cell_length_c       10.5319
_cell_angle_alpha    120
_cell_angle_beta     90
_cell_angle_gamma    120

_space_group_name_H-M_alt    "P 1"
_space_group_IT_number       1

loop_
  _space_group_symop_operation_xyz
  'x, y, z'

loop_
  _atom_site_type_symbol
  _atom_site_label
  _atom_site_symmetry_multiplicity
  _atom_site_fract_x
  _atom_site_fract_y
  _atom_site_fract_z
  _atom_site_occupancy
  Mg  Mg1       1.0  0.50000  0.00000  0.00000  1.0000
  Mg  Mg2       1.0  0.00000  0.50000  0.00000  1.0000
  Mg  Mg3       1.0  0.50000  0.50000  0.00000  1.0000
  Mg  Mg4       1.0  0.37800  0.75600  0.13400  1.0000
  Mg  Mg5       1.0  0.52400  0.34900  0.17500  1.0000
  Mg  Mg6       1.0  0.82500  0.34900  0.17500  1.0000
  Mg  Mg7       1.0  0.82500  0.65100  0.17500  1.0000
  Mg  Mg8       1.0  0.62200  0.24400  0.37800  1.0000
  Mg  Mg9       1.0  0.13400  0.75600  0.37800  1.0000
  Mg  Mg10      1.0  0.62200  0.75600  0.37800  1.0000
  Mg  Mg11      1.0  0.82500  0.65100  0.47600  1.0000
  Mg  Mg12      1.0  0.50000  0.00000  0.50000  1.0000
  Mg  Mg13      1.0  0.00000  0.00000  0.50000  1.0000
  Mg  Mg14      1.0  0.00000  0.50000  0.50000  1.0000
  Mg  Mg15      1.0  0.50000  0.50000  0.50000  1.0000
  Mg  Mg16      1.0  0.17500  0.34900  0.52400  1.0000
  Mg  Mg17      1.0  0.37800  0.24400  0.62200  1.0000
  Mg  Mg18      1.0  0.37800  0.75600  0.62200  1.0000
  Mg  Mg19      1.0  0.86600  0.24400  0.62200  1.0000
  Mg  Mg20      1.0  0.17500  0.34900  0.82500  1.0000
  Mg  Mg21      1.0  0.17500  0.65100  0.82500  1.0000
  Mg  Mg22      1.0  0.47600  0.65100  0.82500  1.0000
  Mg  Mg23      1.0  0.62200  0.24400  0.86600  1.0000
  Sr  Sr1       1.0  0.20700  0.00000  0.20700  1.0000
  Sr  Sr2       1.0  0.20700  0.41400  0.20700  1.0000
  Sr  Sr3       1.0  0.79300  0.00000  0.20700  1.0000
  Sr  Sr4       1.0  0.20700  0.00000  0.79300  1.0000
  Sr  Sr5       1.0  0.79300  0.00000  0.79300  1.0000
  Sr  Sr6       1.0  0.79300  0.58600  0.79300  1.0000
