data_image0
_chemical_formula_structural       Ag2Hg2O2Se2
_chemical_formula_sum              "Ag2 Hg2 O2 Se2"
_cell_length_a       3.42295
_cell_length_b       5.99025
_cell_length_c       7.2451
_cell_angle_alpha    90
_cell_angle_beta     76.3361
_cell_angle_gamma    90

_space_group_name_H-M_alt    "P 1"
_space_group_IT_number       1

loop_
  _space_group_symop_operation_xyz
  'x, y, z'

loop_
  _atom_site_type_symbol
  _atom_site_label
  _atom_site_symmetry_multiplicity
  _atom_site_fract_x
  _atom_site_fract_y
  _atom_site_fract_z
  _atom_site_occupancy
  Ag  Ag1       1.0  0.42900  0.75000  0.14100  1.0000
  Ag  Ag2       1.0  0.57100  0.25000  0.85900  1.0000
  Hg  Hg1       1.0  0.87200  0.25000  0.25500  1.0000
  Hg  Hg2       1.0  0.12800  0.75000  0.74500  1.0000
  O   O1        1.0  0.00000  0.00000  0.00000  1.0000
  O   O2        1.0  0.00000  0.50000  0.00000  1.0000
  Se  Se1       1.0  0.78700  0.75000  0.42600  1.0000
  Se  Se2       1.0  0.21300  0.25000  0.57400  1.0000
