data_image0
_chemical_formula_structural       Ca4O4Pd4Se4
_chemical_formula_sum              "Ca4 O4 Pd4 Se4"
_cell_length_a       7.68122
_cell_length_b       8.46579
_cell_length_c       4.7083
_cell_angle_alpha    90
_cell_angle_beta     90
_cell_angle_gamma    90

_space_group_name_H-M_alt    "P 1"
_space_group_IT_number       1

loop_
  _space_group_symop_operation_xyz
  'x, y, z'

loop_
  _atom_site_type_symbol
  _atom_site_label
  _atom_site_symmetry_multiplicity
  _atom_site_fract_x
  _atom_site_fract_y
  _atom_site_fract_z
  _atom_site_occupancy
  Ca  Ca1       1.0  0.39900  0.10400  0.06190  1.0000
  Ca  Ca2       1.0  0.89900  0.89600  0.06190  1.0000
  Ca  Ca3       1.0  0.10100  0.10400  0.56200  1.0000
  Ca  Ca4       1.0  0.60100  0.89600  0.56200  1.0000
  O   O1        1.0  0.10200  0.09980  0.06210  1.0000
  O   O2        1.0  0.60200  0.90000  0.06210  1.0000
  O   O3        1.0  0.39800  0.09980  0.56200  1.0000
  O   O4        1.0  0.89800  0.90000  0.56200  1.0000
  Pd  Pd1       1.0  0.90500  0.28500  0.06190  1.0000
  Pd  Pd2       1.0  0.40500  0.71500  0.06190  1.0000
  Pd  Pd3       1.0  0.59500  0.28500  0.56200  1.0000
  Pd  Pd4       1.0  0.09480  0.71500  0.56200  1.0000
  Se  Se1       1.0  0.61400  0.39500  0.06410  1.0000
  Se  Se2       1.0  0.11400  0.60500  0.06410  1.0000
  Se  Se3       1.0  0.88600  0.39500  0.56400  1.0000
  Se  Se4       1.0  0.38600  0.60500  0.56400  1.0000
