data_image0
_chemical_formula_structural       Pd2Sr2Tl4
_chemical_formula_sum              "Pd2 Sr2 Tl4"
_cell_length_a       4.55297
_cell_length_b       6.01136
_cell_length_c       8.26339
_cell_angle_alpha    90
_cell_angle_beta     90
_cell_angle_gamma    67.747

_space_group_name_H-M_alt    "P 1"
_space_group_IT_number       1

loop_
  _space_group_symop_operation_xyz
  'x, y, z'

loop_
  _atom_site_type_symbol
  _atom_site_label
  _atom_site_symmetry_multiplicity
  _atom_site_fract_x
  _atom_site_fract_y
  _atom_site_fract_z
  _atom_site_occupancy
  Pd  Pd1       1.0  0.71800  0.56300  0.25000  1.0000
  Pd  Pd2       1.0  0.28200  0.43700  0.75000  1.0000
  Sr  Sr1       1.0  0.43500  0.13000  0.25000  1.0000
  Sr  Sr2       1.0  0.56500  0.87000  0.75000  1.0000
  Tl  Tl1       1.0  0.14600  0.70700  0.05140  1.0000
  Tl  Tl2       1.0  0.14600  0.70700  0.44900  1.0000
  Tl  Tl3       1.0  0.85400  0.29300  0.55100  1.0000
  Tl  Tl4       1.0  0.85400  0.29300  0.94900  1.0000
