data_image0
_chemical_formula_structural       O4Pb4Se4Zn4
_chemical_formula_sum              "O4 Pb4 Se4 Zn4"
_cell_length_a       6.58237
_cell_length_b       3.51589
_cell_length_c       14.6319
_cell_angle_alpha    90
_cell_angle_beta     90
_cell_angle_gamma    90

_space_group_name_H-M_alt    "P 1"
_space_group_IT_number       1

loop_
  _space_group_symop_operation_xyz
  'x, y, z'

loop_
  _atom_site_type_symbol
  _atom_site_label
  _atom_site_symmetry_multiplicity
  _atom_site_fract_x
  _atom_site_fract_y
  _atom_site_fract_z
  _atom_site_occupancy
  O   O1        1.0  0.29400  0.25000  0.13000  1.0000
  O   O2        1.0  0.79400  0.25000  0.37000  1.0000
  O   O3        1.0  0.20600  0.75000  0.63000  1.0000
  O   O4        1.0  0.70600  0.75000  0.87000  1.0000
  Pb  Pb1       1.0  0.60900  0.25000  0.19700  1.0000
  Pb  Pb2       1.0  0.10900  0.25000  0.30300  1.0000
  Pb  Pb3       1.0  0.89100  0.75000  0.69700  1.0000
  Pb  Pb4       1.0  0.39100  0.75000  0.80300  1.0000
  Se  Se1       1.0  0.81500  0.75000  0.07610  1.0000
  Se  Se2       1.0  0.31500  0.75000  0.42400  1.0000
  Se  Se3       1.0  0.68500  0.25000  0.57600  1.0000
  Se  Se4       1.0  0.18500  0.25000  0.92400  1.0000
  Zn  Zn1       1.0  0.19700  0.75000  0.07940  1.0000
  Zn  Zn2       1.0  0.69700  0.75000  0.42100  1.0000
  Zn  Zn3       1.0  0.30300  0.25000  0.57900  1.0000
  Zn  Zn4       1.0  0.80300  0.25000  0.92100  1.0000
