data_image0
_chemical_formula_structural       Cd4Cu4O4Se4
_chemical_formula_sum              "Cd4 Cu4 O4 Se4"
_cell_length_a       6.75879
_cell_length_b       3.26857
_cell_length_c       12.1548
_cell_angle_alpha    90
_cell_angle_beta     90
_cell_angle_gamma    90

_space_group_name_H-M_alt    "P 1"
_space_group_IT_number       1

loop_
  _space_group_symop_operation_xyz
  'x, y, z'

loop_
  _atom_site_type_symbol
  _atom_site_label
  _atom_site_symmetry_multiplicity
  _atom_site_fract_x
  _atom_site_fract_y
  _atom_site_fract_z
  _atom_site_occupancy
  Cd  Cd1       1.0  0.52400  0.25000  0.24000  1.0000
  Cd  Cd2       1.0  0.02450  0.25000  0.26000  1.0000
  Cd  Cd3       1.0  0.97600  0.75000  0.74000  1.0000
  Cd  Cd4       1.0  0.47600  0.75000  0.76000  1.0000
  Cu  Cu1       1.0  0.23900  0.75000  0.04230  1.0000
  Cu  Cu2       1.0  0.73900  0.75000  0.45800  1.0000
  Cu  Cu3       1.0  0.26100  0.25000  0.54200  1.0000
  Cu  Cu4       1.0  0.76100  0.25000  0.95800  1.0000
  O   O1        1.0  0.26200  0.25000  0.13800  1.0000
  O   O2        1.0  0.76200  0.25000  0.36200  1.0000
  O   O3        1.0  0.23800  0.75000  0.63800  1.0000
  O   O4        1.0  0.73800  0.75000  0.86200  1.0000
  Se  Se1       1.0  0.78100  0.75000  0.10200  1.0000
  Se  Se2       1.0  0.28100  0.75000  0.39800  1.0000
  Se  Se3       1.0  0.71900  0.25000  0.60200  1.0000
  Se  Se4       1.0  0.21900  0.25000  0.89800  1.0000
