data_image0
_chemical_formula_structural       Ba2Co2O2Se2
_chemical_formula_sum              "Ba2 Co2 O2 Se2"
_cell_length_a       4.18344
_cell_length_b       4.18341
_cell_length_c       12.0588
_cell_angle_alpha    90
_cell_angle_beta     90
_cell_angle_gamma    120

_space_group_name_H-M_alt    "P 1"
_space_group_IT_number       1

loop_
  _space_group_symop_operation_xyz
  'x, y, z'

loop_
  _atom_site_type_symbol
  _atom_site_label
  _atom_site_symmetry_multiplicity
  _atom_site_fract_x
  _atom_site_fract_y
  _atom_site_fract_z
  _atom_site_occupancy
  Ba  Ba1       1.0  0.33300  0.66700  0.27300  1.0000
  Ba  Ba2       1.0  0.66700  0.33300  0.77300  1.0000
  Co  Co1       1.0  0.00000  0.00000  0.00049  1.0000
  Co  Co2       1.0  0.00000  0.00000  0.50000  1.0000
  O   O1        1.0  0.00000  0.00000  0.34600  1.0000
  O   O2        1.0  0.00000  0.00000  0.84600  1.0000
  Se  Se1       1.0  0.66700  0.33300  0.06770  1.0000
  Se  Se2       1.0  0.33300  0.66700  0.56800  1.0000
