data_image0
_chemical_formula_structural       Ni4O4Se4Zn4
_chemical_formula_sum              "Ni4 O4 Se4 Zn4"
_cell_length_a       5.54194
_cell_length_b       3.46584
_cell_length_c       12.7547
_cell_angle_alpha    90
_cell_angle_beta     90
_cell_angle_gamma    90

_space_group_name_H-M_alt    "P 1"
_space_group_IT_number       1

loop_
  _space_group_symop_operation_xyz
  'x, y, z'

loop_
  _atom_site_type_symbol
  _atom_site_label
  _atom_site_symmetry_multiplicity
  _atom_site_fract_x
  _atom_site_fract_y
  _atom_site_fract_z
  _atom_site_occupancy
  Ni  Ni1       1.0  0.23500  0.75000  0.08000  1.0000
  Ni  Ni2       1.0  0.73500  0.75000  0.42000  1.0000
  Ni  Ni3       1.0  0.26500  0.25000  0.58000  1.0000
  Ni  Ni4       1.0  0.76500  0.25000  0.92000  1.0000
  O   O1        1.0  0.27200  0.25000  0.17000  1.0000
  O   O2        1.0  0.77200  0.25000  0.33000  1.0000
  O   O3        1.0  0.22800  0.75000  0.67000  1.0000
  O   O4        1.0  0.72800  0.75000  0.83000  1.0000
  Se  Se1       1.0  0.77400  0.75000  0.07270  1.0000
  Se  Se2       1.0  0.27400  0.75000  0.42700  1.0000
  Se  Se3       1.0  0.72600  0.25000  0.57300  1.0000
  Se  Se4       1.0  0.22600  0.25000  0.92700  1.0000
  Zn  Zn1       1.0  0.62000  0.25000  0.19500  1.0000
  Zn  Zn2       1.0  0.12000  0.25000  0.30500  1.0000
  Zn  Zn3       1.0  0.88000  0.75000  0.69500  1.0000
  Zn  Zn4       1.0  0.38000  0.75000  0.80500  1.0000
