data_image0
_chemical_formula_structural       B4Ir4Li4
_chemical_formula_sum              "B4 Ir4 Li4"
_cell_length_a       5.54802
_cell_length_b       5.54802
_cell_length_c       6.09163
_cell_angle_alpha    106.405
_cell_angle_beta     106.405
_cell_angle_gamma    112.322

_space_group_name_H-M_alt    "P 1"
_space_group_IT_number       1

loop_
  _space_group_symop_operation_xyz
  'x, y, z'

loop_
  _atom_site_type_symbol
  _atom_site_label
  _atom_site_symmetry_multiplicity
  _atom_site_fract_x
  _atom_site_fract_y
  _atom_site_fract_z
  _atom_site_occupancy
  B   B1        1.0  0.94800  0.05150  0.25000  1.0000
  B   B2        1.0  0.30200  0.69800  0.25000  1.0000
  B   B3        1.0  0.69800  0.30200  0.75000  1.0000
  B   B4        1.0  0.05150  0.94800  0.75000  1.0000
  Ir  Ir1       1.0  0.00819  0.25800  0.01640  1.0000
  Ir  Ir2       1.0  0.74200  0.99200  0.48400  1.0000
  Ir  Ir3       1.0  0.25800  0.00819  0.51600  1.0000
  Ir  Ir4       1.0  0.99200  0.74200  0.98400  1.0000
  Li  Li1       1.0  0.50000  0.00000  0.00000  1.0000
  Li  Li2       1.0  0.50000  0.50000  0.00000  1.0000
  Li  Li3       1.0  0.50000  0.50000  0.50000  1.0000
  Li  Li4       1.0  0.00000  0.50000  0.50000  1.0000
