data_image0
_chemical_formula_structural       Fe4Mn4O4Se4
_chemical_formula_sum              "Fe4 Mn4 O4 Se4"
_cell_length_a       5.89382
_cell_length_b       3.62182
_cell_length_c       12.2059
_cell_angle_alpha    90
_cell_angle_beta     90
_cell_angle_gamma    90

_space_group_name_H-M_alt    "P 1"
_space_group_IT_number       1

loop_
  _space_group_symop_operation_xyz
  'x, y, z'

loop_
  _atom_site_type_symbol
  _atom_site_label
  _atom_site_symmetry_multiplicity
  _atom_site_fract_x
  _atom_site_fract_y
  _atom_site_fract_z
  _atom_site_occupancy
  Fe  Fe1       1.0  0.53100  0.25000  0.24600  1.0000
  Fe  Fe2       1.0  0.03070  0.25000  0.25400  1.0000
  Fe  Fe3       1.0  0.96900  0.75000  0.74600  1.0000
  Fe  Fe4       1.0  0.46900  0.75000  0.75400  1.0000
  Mn  Mn1       1.0  0.24600  0.75000  0.05340  1.0000
  Mn  Mn2       1.0  0.74600  0.75000  0.44700  1.0000
  Mn  Mn3       1.0  0.25400  0.25000  0.55300  1.0000
  Mn  Mn4       1.0  0.75400  0.25000  0.94700  1.0000
  O   O1        1.0  0.27500  0.25000  0.14300  1.0000
  O   O2        1.0  0.77500  0.25000  0.35700  1.0000
  O   O3        1.0  0.22500  0.75000  0.64300  1.0000
  O   O4        1.0  0.72500  0.75000  0.85700  1.0000
  Se  Se1       1.0  0.77600  0.75000  0.12000  1.0000
  Se  Se2       1.0  0.27600  0.75000  0.38000  1.0000
  Se  Se3       1.0  0.72400  0.25000  0.62000  1.0000
  Se  Se4       1.0  0.22400  0.25000  0.88000  1.0000
