data_image0
_chemical_formula_structural       Cu8O8Pd8Se8
_chemical_formula_sum              "Cu8 O8 Pd8 Se8"
_cell_length_a       6.3376
_cell_length_b       11.5715
_cell_length_c       6.64875
_cell_angle_alpha    90
_cell_angle_beta     90
_cell_angle_gamma    90

_space_group_name_H-M_alt    "P 1"
_space_group_IT_number       1

loop_
  _space_group_symop_operation_xyz
  'x, y, z'

loop_
  _atom_site_type_symbol
  _atom_site_label
  _atom_site_symmetry_multiplicity
  _atom_site_fract_x
  _atom_site_fract_y
  _atom_site_fract_z
  _atom_site_occupancy
  Cu  Cu1       1.0  0.51000  0.25700  0.24100  1.0000
  Cu  Cu2       1.0  0.99000  0.75700  0.24100  1.0000
  Cu  Cu3       1.0  0.00992  0.25700  0.25900  1.0000
  Cu  Cu4       1.0  0.49000  0.75700  0.25900  1.0000
  Cu  Cu5       1.0  0.51000  0.24300  0.74100  1.0000
  Cu  Cu6       1.0  0.99000  0.74300  0.74100  1.0000
  Cu  Cu7       1.0  0.00992  0.24300  0.75900  1.0000
  Cu  Cu8       1.0  0.49000  0.74300  0.75900  1.0000
  O   O1        1.0  0.76600  0.25800  0.11000  1.0000
  O   O2        1.0  0.73400  0.75800  0.11000  1.0000
  O   O3        1.0  0.26600  0.25800  0.39000  1.0000
  O   O4        1.0  0.23400  0.75800  0.39000  1.0000
  O   O5        1.0  0.76600  0.24200  0.61000  1.0000
  O   O6        1.0  0.73400  0.74200  0.61000  1.0000
  O   O7        1.0  0.26600  0.24200  0.89000  1.0000
  O   O8        1.0  0.23400  0.74200  0.89000  1.0000
  Pd  Pd1       1.0  0.23600  0.40500  0.04640  1.0000
  Pd  Pd2       1.0  0.26400  0.90500  0.04640  1.0000
  Pd  Pd3       1.0  0.73600  0.40500  0.45400  1.0000
  Pd  Pd4       1.0  0.76400  0.90500  0.45400  1.0000
  Pd  Pd5       1.0  0.23600  0.09540  0.54600  1.0000
  Pd  Pd6       1.0  0.26400  0.59500  0.54600  1.0000
  Pd  Pd7       1.0  0.73600  0.09540  0.95400  1.0000
  Pd  Pd8       1.0  0.76400  0.59500  0.95400  1.0000
  Se  Se1       1.0  0.99900  0.02680  0.24400  1.0000
  Se  Se2       1.0  0.50100  0.52700  0.24400  1.0000
  Se  Se3       1.0  0.49900  0.02680  0.25600  1.0000
  Se  Se4       1.0  0.00071  0.52700  0.25600  1.0000
  Se  Se5       1.0  0.99900  0.47300  0.74400  1.0000
  Se  Se6       1.0  0.50100  0.97300  0.74400  1.0000
  Se  Se7       1.0  0.49900  0.47300  0.75600  1.0000
  Se  Se8       1.0  0.00071  0.97300  0.75600  1.0000
