data_image0
_chemical_formula_structural       Fe4Ni4O4Se4
_chemical_formula_sum              "Fe4 Ni4 O4 Se4"
_cell_length_a       6.02586
_cell_length_b       3.43893
_cell_length_c       11.9629
_cell_angle_alpha    90
_cell_angle_beta     90
_cell_angle_gamma    90

_space_group_name_H-M_alt    "P 1"
_space_group_IT_number       1

loop_
  _space_group_symop_operation_xyz
  'x, y, z'

loop_
  _atom_site_type_symbol
  _atom_site_label
  _atom_site_symmetry_multiplicity
  _atom_site_fract_x
  _atom_site_fract_y
  _atom_site_fract_z
  _atom_site_occupancy
  Fe  Fe1       1.0  0.55000  0.25000  0.24000  1.0000
  Fe  Fe2       1.0  0.04960  0.25000  0.26000  1.0000
  Fe  Fe3       1.0  0.95000  0.75000  0.74000  1.0000
  Fe  Fe4       1.0  0.45000  0.75000  0.76000  1.0000
  Ni  Ni1       1.0  0.22900  0.75000  0.05220  1.0000
  Ni  Ni2       1.0  0.72900  0.75000  0.44800  1.0000
  Ni  Ni3       1.0  0.27100  0.25000  0.55200  1.0000
  Ni  Ni4       1.0  0.77100  0.25000  0.94800  1.0000
  O   O1        1.0  0.28500  0.25000  0.14700  1.0000
  O   O2        1.0  0.78500  0.25000  0.35300  1.0000
  O   O3        1.0  0.21500  0.75000  0.64700  1.0000
  O   O4        1.0  0.71500  0.75000  0.85300  1.0000
  Se  Se1       1.0  0.79700  0.75000  0.10400  1.0000
  Se  Se2       1.0  0.29700  0.75000  0.39600  1.0000
  Se  Se3       1.0  0.70300  0.25000  0.60400  1.0000
  Se  Se4       1.0  0.20300  0.25000  0.89600  1.0000
