data_image0
_chemical_formula_structural       Be8Mg8O8Se8
_chemical_formula_sum              "Be8 Mg8 O8 Se8"
_cell_length_a       7.00191
_cell_length_b       12.153
_cell_length_c       5.15105
_cell_angle_alpha    90
_cell_angle_beta     90
_cell_angle_gamma    90

_space_group_name_H-M_alt    "P 1"
_space_group_IT_number       1

loop_
  _space_group_symop_operation_xyz
  'x, y, z'

loop_
  _atom_site_type_symbol
  _atom_site_label
  _atom_site_symmetry_multiplicity
  _atom_site_fract_x
  _atom_site_fract_y
  _atom_site_fract_z
  _atom_site_occupancy
  Be  Be1       1.0  0.13000  0.19900  0.12200  1.0000
  Be  Be2       1.0  0.37000  0.69900  0.12200  1.0000
  Be  Be3       1.0  0.63000  0.19900  0.37800  1.0000
  Be  Be4       1.0  0.87000  0.69900  0.37800  1.0000
  Be  Be5       1.0  0.13000  0.30100  0.62200  1.0000
  Be  Be6       1.0  0.37000  0.80100  0.62200  1.0000
  Be  Be7       1.0  0.63000  0.30100  0.87800  1.0000
  Be  Be8       1.0  0.87000  0.80100  0.87800  1.0000
  Mg  Mg1       1.0  0.88200  0.39700  0.24300  1.0000
  Mg  Mg2       1.0  0.61800  0.89700  0.24300  1.0000
  Mg  Mg3       1.0  0.38200  0.39700  0.25700  1.0000
  Mg  Mg4       1.0  0.11800  0.89700  0.25700  1.0000
  Mg  Mg5       1.0  0.88200  0.10300  0.74300  1.0000
  Mg  Mg6       1.0  0.61800  0.60300  0.74300  1.0000
  Mg  Mg7       1.0  0.38200  0.10300  0.75700  1.0000
  Mg  Mg8       1.0  0.11800  0.60300  0.75700  1.0000
  O   O1        1.0  0.63100  0.30400  0.19400  1.0000
  O   O2        1.0  0.86900  0.80400  0.19400  1.0000
  O   O3        1.0  0.13100  0.30400  0.30600  1.0000
  O   O4        1.0  0.36900  0.80400  0.30600  1.0000
  O   O5        1.0  0.63100  0.19600  0.69400  1.0000
  O   O6        1.0  0.86900  0.69600  0.69400  1.0000
  O   O7        1.0  0.13100  0.19600  0.80600  1.0000
  O   O8        1.0  0.36900  0.69600  0.80600  1.0000
  Se  Se1       1.0  0.87700  0.08480  0.24300  1.0000
  Se  Se2       1.0  0.62300  0.58500  0.24300  1.0000
  Se  Se3       1.0  0.37700  0.08480  0.25700  1.0000
  Se  Se4       1.0  0.12300  0.58500  0.25700  1.0000
  Se  Se5       1.0  0.87700  0.41500  0.74300  1.0000
  Se  Se6       1.0  0.62300  0.91500  0.74300  1.0000
  Se  Se7       1.0  0.37700  0.41500  0.75700  1.0000
  Se  Se8       1.0  0.12300  0.91500  0.75700  1.0000
