data_image0
_chemical_formula_structural       O8Pt8Se8Zn8
_chemical_formula_sum              "O8 Pt8 Se8 Zn8"
_cell_length_a       6.20464
_cell_length_b       13.3353
_cell_length_c       6.70976
_cell_angle_alpha    90
_cell_angle_beta     90
_cell_angle_gamma    90

_space_group_name_H-M_alt    "P 1"
_space_group_IT_number       1

loop_
  _space_group_symop_operation_xyz
  'x, y, z'

loop_
  _atom_site_type_symbol
  _atom_site_label
  _atom_site_symmetry_multiplicity
  _atom_site_fract_x
  _atom_site_fract_y
  _atom_site_fract_z
  _atom_site_occupancy
  O   O1        1.0  0.72100  0.25200  0.12200  1.0000
  O   O2        1.0  0.77900  0.75200  0.12200  1.0000
  O   O3        1.0  0.22100  0.25200  0.37800  1.0000
  O   O4        1.0  0.27900  0.75200  0.37800  1.0000
  O   O5        1.0  0.72100  0.24800  0.62200  1.0000
  O   O6        1.0  0.77900  0.74800  0.62200  1.0000
  O   O7        1.0  0.22100  0.24800  0.87800  1.0000
  O   O8        1.0  0.27900  0.74800  0.87800  1.0000
  Pt  Pt1       1.0  0.25200  0.43000  0.01660  1.0000
  Pt  Pt2       1.0  0.24800  0.93000  0.01660  1.0000
  Pt  Pt3       1.0  0.75200  0.43000  0.48300  1.0000
  Pt  Pt4       1.0  0.74800  0.93000  0.48300  1.0000
  Pt  Pt5       1.0  0.25200  0.07000  0.51700  1.0000
  Pt  Pt6       1.0  0.24800  0.57000  0.51700  1.0000
  Pt  Pt7       1.0  0.75200  0.07000  0.98300  1.0000
  Pt  Pt8       1.0  0.74800  0.57000  0.98300  1.0000
  Se  Se1       1.0  0.50100  0.00958  0.24900  1.0000
  Se  Se2       1.0  0.99900  0.51000  0.24900  1.0000
  Se  Se3       1.0  0.00112  0.00958  0.25100  1.0000
  Se  Se4       1.0  0.49900  0.51000  0.25100  1.0000
  Se  Se5       1.0  0.50100  0.49000  0.74900  1.0000
  Se  Se6       1.0  0.99900  0.99000  0.74900  1.0000
  Se  Se7       1.0  0.00112  0.49000  0.75100  1.0000
  Se  Se8       1.0  0.49900  0.99000  0.75100  1.0000
  Zn  Zn1       1.0  0.04290  0.25600  0.13100  1.0000
  Zn  Zn2       1.0  0.45700  0.75600  0.13100  1.0000
  Zn  Zn3       1.0  0.54300  0.25600  0.36900  1.0000
  Zn  Zn4       1.0  0.95700  0.75600  0.36900  1.0000
  Zn  Zn5       1.0  0.04290  0.24400  0.63100  1.0000
  Zn  Zn6       1.0  0.45700  0.74400  0.63100  1.0000
  Zn  Zn7       1.0  0.54300  0.24400  0.86900  1.0000
  Zn  Zn8       1.0  0.95700  0.74400  0.86900  1.0000
