data_image0
_chemical_formula_structural       Cu4Mg4O4Se4
_chemical_formula_sum              "Cu4 Mg4 O4 Se4"
_cell_length_a       5.71928
_cell_length_b       3.27914
_cell_length_c       13.165
_cell_angle_alpha    90
_cell_angle_beta     90
_cell_angle_gamma    90

_space_group_name_H-M_alt    "P 1"
_space_group_IT_number       1

loop_
  _space_group_symop_operation_xyz
  'x, y, z'

loop_
  _atom_site_type_symbol
  _atom_site_label
  _atom_site_symmetry_multiplicity
  _atom_site_fract_x
  _atom_site_fract_y
  _atom_site_fract_z
  _atom_site_occupancy
  Cu  Cu1       1.0  0.60500  0.25000  0.21500  1.0000
  Cu  Cu2       1.0  0.10500  0.25000  0.28500  1.0000
  Cu  Cu3       1.0  0.89500  0.75000  0.71500  1.0000
  Cu  Cu4       1.0  0.39500  0.75000  0.78500  1.0000
  Mg  Mg1       1.0  0.25200  0.75000  0.08710  1.0000
  Mg  Mg2       1.0  0.75200  0.75000  0.41300  1.0000
  Mg  Mg3       1.0  0.24800  0.25000  0.58700  1.0000
  Mg  Mg4       1.0  0.74800  0.25000  0.91300  1.0000
  O   O1        1.0  0.29000  0.25000  0.16600  1.0000
  O   O2        1.0  0.79000  0.25000  0.33400  1.0000
  O   O3        1.0  0.21000  0.75000  0.66600  1.0000
  O   O4        1.0  0.71000  0.75000  0.83400  1.0000
  Se  Se1       1.0  0.77100  0.75000  0.08770  1.0000
  Se  Se2       1.0  0.27100  0.75000  0.41200  1.0000
  Se  Se3       1.0  0.72900  0.25000  0.58800  1.0000
  Se  Se4       1.0  0.22900  0.25000  0.91200  1.0000
