data_image0
_chemical_formula_structural       Be4Ca4O4Se4
_chemical_formula_sum              "Be4 Ca4 O4 Se4"
_cell_length_a       5.5748
_cell_length_b       8.39779
_cell_length_c       5.92011
_cell_angle_alpha    90
_cell_angle_beta     90
_cell_angle_gamma    90

_space_group_name_H-M_alt    "P 1"
_space_group_IT_number       1

loop_
  _space_group_symop_operation_xyz
  'x, y, z'

loop_
  _atom_site_type_symbol
  _atom_site_label
  _atom_site_symmetry_multiplicity
  _atom_site_fract_x
  _atom_site_fract_y
  _atom_site_fract_z
  _atom_site_occupancy
  Be  Be1       1.0  0.39200  0.06010  0.06300  1.0000
  Be  Be2       1.0  0.89200  0.94000  0.06300  1.0000
  Be  Be3       1.0  0.10800  0.06010  0.56300  1.0000
  Be  Be4       1.0  0.60800  0.94000  0.56300  1.0000
  Ca  Ca1       1.0  0.00103  0.31100  0.06210  1.0000
  Ca  Ca2       1.0  0.50100  0.68900  0.06210  1.0000
  Ca  Ca3       1.0  0.49900  0.31100  0.56200  1.0000
  Ca  Ca4       1.0  0.99900  0.68900  0.56200  1.0000
  O   O1        1.0  0.11500  0.04670  0.06280  1.0000
  O   O2        1.0  0.61500  0.95300  0.06280  1.0000
  O   O3        1.0  0.38500  0.04670  0.56300  1.0000
  O   O4        1.0  0.88500  0.95300  0.56300  1.0000
  Se  Se1       1.0  0.50000  0.32900  0.06220  1.0000
  Se  Se2       1.0  0.00047  0.67100  0.06220  1.0000
  Se  Se3       1.0  0.00000  0.32900  0.56200  1.0000
  Se  Se4       1.0  0.50000  0.67100  0.56200  1.0000
