data_image0
_chemical_formula_structural       Ag4Ca4O4Se4
_chemical_formula_sum              "Ag4 Ca4 O4 Se4"
_cell_length_a       6.15586
_cell_length_b       3.7665
_cell_length_c       14.351
_cell_angle_alpha    90
_cell_angle_beta     90
_cell_angle_gamma    90

_space_group_name_H-M_alt    "P 1"
_space_group_IT_number       1

loop_
  _space_group_symop_operation_xyz
  'x, y, z'

loop_
  _atom_site_type_symbol
  _atom_site_label
  _atom_site_symmetry_multiplicity
  _atom_site_fract_x
  _atom_site_fract_y
  _atom_site_fract_z
  _atom_site_occupancy
  Ag  Ag1       1.0  0.62300  0.25000  0.20700  1.0000
  Ag  Ag2       1.0  0.12300  0.25000  0.29300  1.0000
  Ag  Ag3       1.0  0.87700  0.75000  0.70700  1.0000
  Ag  Ag4       1.0  0.37700  0.75000  0.79300  1.0000
  Ca  Ca1       1.0  0.25800  0.75000  0.08290  1.0000
  Ca  Ca2       1.0  0.75800  0.75000  0.41700  1.0000
  Ca  Ca3       1.0  0.24200  0.25000  0.58300  1.0000
  Ca  Ca4       1.0  0.74200  0.25000  0.91700  1.0000
  O   O1        1.0  0.28300  0.25000  0.16000  1.0000
  O   O2        1.0  0.78300  0.25000  0.34000  1.0000
  O   O3        1.0  0.21700  0.75000  0.66000  1.0000
  O   O4        1.0  0.71700  0.75000  0.84000  1.0000
  Se  Se1       1.0  0.76500  0.75000  0.08900  1.0000
  Se  Se2       1.0  0.26500  0.75000  0.41100  1.0000
  Se  Se3       1.0  0.73500  0.25000  0.58900  1.0000
  Se  Se4       1.0  0.23500  0.25000  0.91100  1.0000
