data_image0
_chemical_formula_structural       O4Pd4Se4Sn4
_chemical_formula_sum              "O4 Pd4 Se4 Sn4"
_cell_length_a       6.77066
_cell_length_b       7.82892
_cell_length_c       5.74593
_cell_angle_alpha    90
_cell_angle_beta     90
_cell_angle_gamma    90

_space_group_name_H-M_alt    "P 1"
_space_group_IT_number       1

loop_
  _space_group_symop_operation_xyz
  'x, y, z'

loop_
  _atom_site_type_symbol
  _atom_site_label
  _atom_site_symmetry_multiplicity
  _atom_site_fract_x
  _atom_site_fract_y
  _atom_site_fract_z
  _atom_site_occupancy
  O   O1        1.0  0.11800  0.06320  0.22200  1.0000
  O   O2        1.0  0.61800  0.93700  0.22200  1.0000
  O   O3        1.0  0.38200  0.06320  0.72200  1.0000
  O   O4        1.0  0.88200  0.93700  0.72200  1.0000
  Pd  Pd1       1.0  0.40700  0.16000  0.09050  1.0000
  Pd  Pd2       1.0  0.90700  0.84000  0.09050  1.0000
  Pd  Pd3       1.0  0.09310  0.16000  0.59000  1.0000
  Pd  Pd4       1.0  0.59300  0.84000  0.59000  1.0000
  Se  Se1       1.0  0.87900  0.37000  0.42600  1.0000
  Se  Se2       1.0  0.37900  0.63000  0.42600  1.0000
  Se  Se3       1.0  0.62100  0.37000  0.92600  1.0000
  Se  Se4       1.0  0.12100  0.63000  0.92600  1.0000
  Sn  Sn1       1.0  0.03170  0.27300  0.01080  1.0000
  Sn  Sn2       1.0  0.53200  0.72700  0.01080  1.0000
  Sn  Sn3       1.0  0.46800  0.27300  0.51100  1.0000
  Sn  Sn4       1.0  0.96800  0.72700  0.51100  1.0000
