data_image0
_chemical_formula_structural       Cd4Ge4O4Se4
_chemical_formula_sum              "Cd4 Ge4 O4 Se4"
_cell_length_a       6.06308
_cell_length_b       9.40659
_cell_length_c       5.96176
_cell_angle_alpha    90
_cell_angle_beta     90
_cell_angle_gamma    90

_space_group_name_H-M_alt    "P 1"
_space_group_IT_number       1

loop_
  _space_group_symop_operation_xyz
  'x, y, z'

loop_
  _atom_site_type_symbol
  _atom_site_label
  _atom_site_symmetry_multiplicity
  _atom_site_fract_x
  _atom_site_fract_y
  _atom_site_fract_z
  _atom_site_occupancy
  Cd  Cd1       1.0  0.09300  0.09540  0.47100  1.0000
  Cd  Cd2       1.0  0.59300  0.90500  0.47100  1.0000
  Cd  Cd3       1.0  0.40700  0.09540  0.97100  1.0000
  Cd  Cd4       1.0  0.90700  0.90500  0.97100  1.0000
  Ge  Ge1       1.0  0.98200  0.31400  0.06080  1.0000
  Ge  Ge2       1.0  0.48200  0.68600  0.06080  1.0000
  Ge  Ge3       1.0  0.51800  0.31400  0.56100  1.0000
  Ge  Ge4       1.0  0.01790  0.68600  0.56100  1.0000
  O   O1        1.0  0.04710  0.10800  0.09000  1.0000
  O   O2        1.0  0.54700  0.89200  0.09000  1.0000
  O   O3        1.0  0.45300  0.10800  0.59000  1.0000
  O   O4        1.0  0.95300  0.89200  0.59000  1.0000
  Se  Se1       1.0  0.55900  0.33300  0.12900  1.0000
  Se  Se2       1.0  0.05910  0.66700  0.12900  1.0000
  Se  Se3       1.0  0.94100  0.33300  0.62900  1.0000
  Se  Se4       1.0  0.44100  0.66700  0.62900  1.0000
