data_image0
_chemical_formula_structural       F2O2Sm2
_chemical_formula_sum              "F2 O2 Sm2"
_cell_length_a       3.88404
_cell_length_b       3.88404
_cell_length_c       6.81744
_cell_angle_alpha    106.55
_cell_angle_beta     73.4495
_cell_angle_gamma    120

_space_group_name_H-M_alt    "P 1"
_space_group_IT_number       1

loop_
  _space_group_symop_operation_xyz
  'x, y, z'

loop_
  _atom_site_type_symbol
  _atom_site_label
  _atom_site_symmetry_multiplicity
  _atom_site_fract_x
  _atom_site_fract_y
  _atom_site_fract_z
  _atom_site_occupancy
  F   F1        1.0  0.63000  0.37000  0.10900  1.0000
  F   F2        1.0  0.37000  0.63000  0.89100  1.0000
  O   O1        1.0  0.87900  0.12100  0.36400  1.0000
  O   O2        1.0  0.12100  0.87900  0.63600  1.0000
  Sm  Sm1       1.0  0.24200  0.75800  0.27500  1.0000
  Sm  Sm2       1.0  0.75800  0.24200  0.72500  1.0000
