data_image0
_chemical_formula_structural       Mg8O8Pt8Se8
_chemical_formula_sum              "Mg8 O8 Pt8 Se8"
_cell_length_a       6.21608
_cell_length_b       13.4805
_cell_length_c       6.7033
_cell_angle_alpha    90
_cell_angle_beta     90
_cell_angle_gamma    90

_space_group_name_H-M_alt    "P 1"
_space_group_IT_number       1

loop_
  _space_group_symop_operation_xyz
  'x, y, z'

loop_
  _atom_site_type_symbol
  _atom_site_label
  _atom_site_symmetry_multiplicity
  _atom_site_fract_x
  _atom_site_fract_y
  _atom_site_fract_z
  _atom_site_occupancy
  Mg  Mg1       1.0  0.99600  0.25000  0.13400  1.0000
  Mg  Mg2       1.0  0.50400  0.75000  0.13400  1.0000
  Mg  Mg3       1.0  0.49600  0.25000  0.36600  1.0000
  Mg  Mg4       1.0  0.00381  0.75000  0.36600  1.0000
  Mg  Mg5       1.0  0.99600  0.25000  0.63400  1.0000
  Mg  Mg6       1.0  0.50400  0.75000  0.63400  1.0000
  Mg  Mg7       1.0  0.49600  0.25000  0.86600  1.0000
  Mg  Mg8       1.0  0.00381  0.75000  0.86600  1.0000
  O   O1        1.0  0.67200  0.24400  0.11600  1.0000
  O   O2        1.0  0.82800  0.74400  0.11600  1.0000
  O   O3        1.0  0.17200  0.24400  0.38400  1.0000
  O   O4        1.0  0.32800  0.74400  0.38400  1.0000
  O   O5        1.0  0.67200  0.25600  0.61600  1.0000
  O   O6        1.0  0.82800  0.75600  0.61600  1.0000
  O   O7        1.0  0.17200  0.25600  0.88400  1.0000
  O   O8        1.0  0.32800  0.75600  0.88400  1.0000
  Pt  Pt1       1.0  0.74800  0.07100  0.00213  1.0000
  Pt  Pt2       1.0  0.75200  0.57100  0.00213  1.0000
  Pt  Pt3       1.0  0.24800  0.07100  0.49800  1.0000
  Pt  Pt4       1.0  0.25200  0.57100  0.49800  1.0000
  Pt  Pt5       1.0  0.74800  0.42900  0.50200  1.0000
  Pt  Pt6       1.0  0.75200  0.92900  0.50200  1.0000
  Pt  Pt7       1.0  0.24800  0.42900  0.99800  1.0000
  Pt  Pt8       1.0  0.25200  0.92900  0.99800  1.0000
  Se  Se1       1.0  0.49700  0.49600  0.24500  1.0000
  Se  Se2       1.0  0.00320  0.99600  0.24500  1.0000
  Se  Se3       1.0  0.99700  0.49600  0.25500  1.0000
  Se  Se4       1.0  0.50300  0.99600  0.25500  1.0000
  Se  Se5       1.0  0.49700  0.00389  0.74500  1.0000
  Se  Se6       1.0  0.00320  0.50400  0.74500  1.0000
  Se  Se7       1.0  0.99700  0.00389  0.75500  1.0000
  Se  Se8       1.0  0.50300  0.50400  0.75500  1.0000
