data_image0
_chemical_formula_structural       Cl4Mg8O16P4
_chemical_formula_sum              "Cl4 Mg8 O16 P4"
_cell_length_a       10.8963
_cell_length_b       7.88744
_cell_length_c       4.79767
_cell_angle_alpha    90
_cell_angle_beta     90
_cell_angle_gamma    90

_space_group_name_H-M_alt    "P 1"
_space_group_IT_number       1

loop_
  _space_group_symop_operation_xyz
  'x, y, z'

loop_
  _atom_site_type_symbol
  _atom_site_label
  _atom_site_symmetry_multiplicity
  _atom_site_fract_x
  _atom_site_fract_y
  _atom_site_fract_z
  _atom_site_occupancy
  Cl  Cl1       1.0  0.56300  0.12100  0.24200  1.0000
  Cl  Cl2       1.0  0.06300  0.37900  0.24200  1.0000
  Cl  Cl3       1.0  0.93700  0.62100  0.74200  1.0000
  Cl  Cl4       1.0  0.43700  0.87900  0.74200  1.0000
  Mg  Mg1       1.0  0.37900  0.59800  0.99800  1.0000
  Mg  Mg2       1.0  0.87900  0.90200  0.99800  1.0000
  Mg  Mg3       1.0  0.12600  0.66300  0.49100  1.0000
  Mg  Mg4       1.0  0.62600  0.83700  0.49100  1.0000
  Mg  Mg5       1.0  0.12100  0.09830  0.49800  1.0000
  Mg  Mg6       1.0  0.62100  0.40200  0.49800  1.0000
  Mg  Mg7       1.0  0.37400  0.16300  0.99100  1.0000
  Mg  Mg8       1.0  0.87400  0.33700  0.99100  1.0000
  O   O1        1.0  0.23400  0.72000  0.15400  1.0000
  O   O2        1.0  0.73400  0.78000  0.15400  1.0000
  O   O3        1.0  0.23000  0.04170  0.15400  1.0000
  O   O4        1.0  0.73000  0.45800  0.15400  1.0000
  O   O5        1.0  0.54100  0.62400  0.20600  1.0000
  O   O6        1.0  0.04070  0.87600  0.20600  1.0000
  O   O7        1.0  0.84800  0.12000  0.22800  1.0000
  O   O8        1.0  0.34800  0.38000  0.22800  1.0000
  O   O9        1.0  0.26600  0.22000  0.65400  1.0000
  O   O10       1.0  0.76600  0.28000  0.65400  1.0000
  O   O11       1.0  0.27000  0.54200  0.65400  1.0000
  O   O12       1.0  0.77000  0.95800  0.65400  1.0000
  O   O13       1.0  0.95900  0.12400  0.70600  1.0000
  O   O14       1.0  0.45900  0.37600  0.70600  1.0000
  O   O15       1.0  0.65200  0.62000  0.72800  1.0000
  O   O16       1.0  0.15200  0.88000  0.72800  1.0000
  P   P1        1.0  0.66700  0.62100  0.04710  1.0000
  P   P2        1.0  0.16700  0.87900  0.04710  1.0000
  P   P3        1.0  0.83300  0.12100  0.54700  1.0000
  P   P4        1.0  0.33300  0.37900  0.54700  1.0000
