data_image0
_chemical_formula_structural       Fe4O4Pd4Se4
_chemical_formula_sum              "Fe4 O4 Pd4 Se4"
_cell_length_a       5.31759
_cell_length_b       8.33896
_cell_length_c       5.80764
_cell_angle_alpha    90
_cell_angle_beta     90
_cell_angle_gamma    90

_space_group_name_H-M_alt    "P 1"
_space_group_IT_number       1

loop_
  _space_group_symop_operation_xyz
  'x, y, z'

loop_
  _atom_site_type_symbol
  _atom_site_label
  _atom_site_symmetry_multiplicity
  _atom_site_fract_x
  _atom_site_fract_y
  _atom_site_fract_z
  _atom_site_occupancy
  Fe  Fe1       1.0  0.56100  0.08990  0.07030  1.0000
  Fe  Fe2       1.0  0.06080  0.91000  0.07030  1.0000
  Fe  Fe3       1.0  0.93900  0.08990  0.57000  1.0000
  Fe  Fe4       1.0  0.43900  0.91000  0.57000  1.0000
  O   O1        1.0  0.60000  0.08560  0.40400  1.0000
  O   O2        1.0  0.09960  0.91400  0.40400  1.0000
  O   O3        1.0  0.90000  0.08560  0.90400  1.0000
  O   O4        1.0  0.40000  0.91400  0.90400  1.0000
  Pd  Pd1       1.0  0.56200  0.34700  0.42100  1.0000
  Pd  Pd2       1.0  0.06180  0.65300  0.42100  1.0000
  Pd  Pd3       1.0  0.93800  0.34700  0.92100  1.0000
  Pd  Pd4       1.0  0.43800  0.65300  0.92100  1.0000
  Se  Se1       1.0  0.06070  0.36000  0.35400  1.0000
  Se  Se2       1.0  0.56100  0.64000  0.35400  1.0000
  Se  Se3       1.0  0.43900  0.36000  0.85400  1.0000
  Se  Se4       1.0  0.93900  0.64000  0.85400  1.0000
