data_image0
_chemical_formula_structural       Mn4O4Se4Sr4
_chemical_formula_sum              "Mn4 O4 Se4 Sr4"
_cell_length_a       6.23886
_cell_length_b       4.0972
_cell_length_c       13.9989
_cell_angle_alpha    90
_cell_angle_beta     90
_cell_angle_gamma    90

_space_group_name_H-M_alt    "P 1"
_space_group_IT_number       1

loop_
  _space_group_symop_operation_xyz
  'x, y, z'

loop_
  _atom_site_type_symbol
  _atom_site_label
  _atom_site_symmetry_multiplicity
  _atom_site_fract_x
  _atom_site_fract_y
  _atom_site_fract_z
  _atom_site_occupancy
  Mn  Mn1       1.0  0.64000  0.25000  0.19500  1.0000
  Mn  Mn2       1.0  0.14000  0.25000  0.30500  1.0000
  Mn  Mn3       1.0  0.86000  0.75000  0.69500  1.0000
  Mn  Mn4       1.0  0.36000  0.75000  0.80500  1.0000
  O   O1        1.0  0.31200  0.25000  0.18400  1.0000
  O   O2        1.0  0.81200  0.25000  0.31600  1.0000
  O   O3        1.0  0.18800  0.75000  0.68400  1.0000
  O   O4        1.0  0.68800  0.75000  0.81600  1.0000
  Se  Se1       1.0  0.75400  0.75000  0.08760  1.0000
  Se  Se2       1.0  0.25400  0.75000  0.41200  1.0000
  Se  Se3       1.0  0.74600  0.25000  0.58800  1.0000
  Se  Se4       1.0  0.24600  0.25000  0.91200  1.0000
  Sr  Sr1       1.0  0.24900  0.75000  0.09050  1.0000
  Sr  Sr2       1.0  0.74900  0.75000  0.40900  1.0000
  Sr  Sr3       1.0  0.25100  0.25000  0.59100  1.0000
  Sr  Sr4       1.0  0.75100  0.25000  0.90900  1.0000
