data_image0
_chemical_formula_structural       Ba8O8Pd8Se8
_chemical_formula_sum              "Ba8 O8 Pd8 Se8"
_cell_length_a       7.05037
_cell_length_b       14.7061
_cell_length_c       6.51416
_cell_angle_alpha    90
_cell_angle_beta     90
_cell_angle_gamma    90

_space_group_name_H-M_alt    "P 1"
_space_group_IT_number       1

loop_
  _space_group_symop_operation_xyz
  'x, y, z'

loop_
  _atom_site_type_symbol
  _atom_site_label
  _atom_site_symmetry_multiplicity
  _atom_site_fract_x
  _atom_site_fract_y
  _atom_site_fract_z
  _atom_site_occupancy
  Ba  Ba1       1.0  0.54900  0.19100  0.24800  1.0000
  Ba  Ba2       1.0  0.95100  0.69100  0.24800  1.0000
  Ba  Ba3       1.0  0.04920  0.19100  0.25200  1.0000
  Ba  Ba4       1.0  0.45100  0.69100  0.25200  1.0000
  Ba  Ba5       1.0  0.54900  0.30900  0.74800  1.0000
  Ba  Ba6       1.0  0.95100  0.80900  0.74800  1.0000
  Ba  Ba7       1.0  0.04920  0.30900  0.75200  1.0000
  Ba  Ba8       1.0  0.45100  0.80900  0.75200  1.0000
  O   O1        1.0  0.80200  0.27900  0.04350  1.0000
  O   O2        1.0  0.69800  0.77900  0.04350  1.0000
  O   O3        1.0  0.30200  0.27900  0.45700  1.0000
  O   O4        1.0  0.19800  0.77900  0.45700  1.0000
  O   O5        1.0  0.80200  0.22100  0.54400  1.0000
  O   O6        1.0  0.69800  0.72100  0.54400  1.0000
  O   O7        1.0  0.30200  0.22100  0.95700  1.0000
  O   O8        1.0  0.19800  0.72100  0.95700  1.0000
  Pd  Pd1       1.0  0.27100  0.00068  0.00340  1.0000
  Pd  Pd2       1.0  0.22900  0.50100  0.00340  1.0000
  Pd  Pd3       1.0  0.77100  0.00068  0.49700  1.0000
  Pd  Pd4       1.0  0.72900  0.50100  0.49700  1.0000
  Pd  Pd5       1.0  0.27100  0.49900  0.50300  1.0000
  Pd  Pd6       1.0  0.22900  0.99900  0.50300  1.0000
  Pd  Pd7       1.0  0.77100  0.49900  0.99700  1.0000
  Pd  Pd8       1.0  0.72900  0.99900  0.99700  1.0000
  Se  Se1       1.0  0.49800  0.43700  0.22200  1.0000
  Se  Se2       1.0  0.00244  0.93700  0.22200  1.0000
  Se  Se3       1.0  0.99800  0.43700  0.27800  1.0000
  Se  Se4       1.0  0.50200  0.93700  0.27800  1.0000
  Se  Se5       1.0  0.49800  0.06340  0.72200  1.0000
  Se  Se6       1.0  0.00244  0.56300  0.72200  1.0000
  Se  Se7       1.0  0.99800  0.06340  0.77800  1.0000
  Se  Se8       1.0  0.50200  0.56300  0.77800  1.0000
