data_image0
_chemical_formula_structural       Ba4Fe4O4Se4
_chemical_formula_sum              "Ba4 Fe4 O4 Se4"
_cell_length_a       6.48719
_cell_length_b       4.29932
_cell_length_c       13.821
_cell_angle_alpha    90
_cell_angle_beta     90
_cell_angle_gamma    90

_space_group_name_H-M_alt    "P 1"
_space_group_IT_number       1

loop_
  _space_group_symop_operation_xyz
  'x, y, z'

loop_
  _atom_site_type_symbol
  _atom_site_label
  _atom_site_symmetry_multiplicity
  _atom_site_fract_x
  _atom_site_fract_y
  _atom_site_fract_z
  _atom_site_occupancy
  Ba  Ba1       1.0  0.25400  0.75000  0.09620  1.0000
  Ba  Ba2       1.0  0.75400  0.75000  0.40400  1.0000
  Ba  Ba3       1.0  0.24600  0.25000  0.59600  1.0000
  Ba  Ba4       1.0  0.74600  0.25000  0.90400  1.0000
  Fe  Fe1       1.0  0.66100  0.25000  0.19600  1.0000
  Fe  Fe2       1.0  0.16100  0.25000  0.30400  1.0000
  Fe  Fe3       1.0  0.83900  0.75000  0.69600  1.0000
  Fe  Fe4       1.0  0.33900  0.75000  0.80400  1.0000
  O   O1        1.0  0.35600  0.25000  0.19600  1.0000
  O   O2        1.0  0.85600  0.25000  0.30400  1.0000
  O   O3        1.0  0.14400  0.75000  0.69600  1.0000
  O   O4        1.0  0.64400  0.75000  0.80400  1.0000
  Se  Se1       1.0  0.75400  0.75000  0.09430  1.0000
  Se  Se2       1.0  0.25400  0.75000  0.40600  1.0000
  Se  Se3       1.0  0.74600  0.25000  0.59400  1.0000
  Se  Se4       1.0  0.24600  0.25000  0.90600  1.0000
