data_image0
_chemical_formula_structural       Mg4Mn4O4Se4
_chemical_formula_sum              "Mg4 Mn4 O4 Se4"
_cell_length_a       5.80792
_cell_length_b       3.65792
_cell_length_c       12.9247
_cell_angle_alpha    90
_cell_angle_beta     90
_cell_angle_gamma    90

_space_group_name_H-M_alt    "P 1"
_space_group_IT_number       1

loop_
  _space_group_symop_operation_xyz
  'x, y, z'

loop_
  _atom_site_type_symbol
  _atom_site_label
  _atom_site_symmetry_multiplicity
  _atom_site_fract_x
  _atom_site_fract_y
  _atom_site_fract_z
  _atom_site_occupancy
  Mg  Mg1       1.0  0.60900  0.25000  0.20100  1.0000
  Mg  Mg2       1.0  0.10900  0.25000  0.29900  1.0000
  Mg  Mg3       1.0  0.89100  0.75000  0.70100  1.0000
  Mg  Mg4       1.0  0.39100  0.75000  0.79900  1.0000
  Mn  Mn1       1.0  0.23700  0.75000  0.08220  1.0000
  Mn  Mn2       1.0  0.73700  0.75000  0.41800  1.0000
  Mn  Mn3       1.0  0.26300  0.25000  0.58200  1.0000
  Mn  Mn4       1.0  0.76300  0.25000  0.91800  1.0000
  O   O1        1.0  0.28100  0.25000  0.17100  1.0000
  O   O2        1.0  0.78100  0.25000  0.32900  1.0000
  O   O3        1.0  0.21900  0.75000  0.67100  1.0000
  O   O4        1.0  0.71900  0.75000  0.82900  1.0000
  Se  Se1       1.0  0.76900  0.75000  0.08190  1.0000
  Se  Se2       1.0  0.26900  0.75000  0.41800  1.0000
  Se  Se3       1.0  0.73100  0.25000  0.58200  1.0000
  Se  Se4       1.0  0.23100  0.25000  0.91800  1.0000
