data_image0
_chemical_formula_structural       Cd4O4Se4Zn4
_chemical_formula_sum              "Cd4 O4 Se4 Zn4"
_cell_length_a       6.15318
_cell_length_b       3.52824
_cell_length_c       13.6556
_cell_angle_alpha    90
_cell_angle_beta     90
_cell_angle_gamma    90

_space_group_name_H-M_alt    "P 1"
_space_group_IT_number       1

loop_
  _space_group_symop_operation_xyz
  'x, y, z'

loop_
  _atom_site_type_symbol
  _atom_site_label
  _atom_site_symmetry_multiplicity
  _atom_site_fract_x
  _atom_site_fract_y
  _atom_site_fract_z
  _atom_site_occupancy
  Cd  Cd1       1.0  0.59200  0.25000  0.17900  1.0000
  Cd  Cd2       1.0  0.09170  0.25000  0.32100  1.0000
  Cd  Cd3       1.0  0.90800  0.75000  0.67900  1.0000
  Cd  Cd4       1.0  0.40800  0.75000  0.82100  1.0000
  O   O1        1.0  0.22900  0.25000  0.17100  1.0000
  O   O2        1.0  0.72900  0.25000  0.32900  1.0000
  O   O3        1.0  0.27100  0.75000  0.67100  1.0000
  O   O4        1.0  0.77100  0.75000  0.82900  1.0000
  Se  Se1       1.0  0.76200  0.75000  0.05640  1.0000
  Se  Se2       1.0  0.26200  0.75000  0.44400  1.0000
  Se  Se3       1.0  0.73800  0.25000  0.55600  1.0000
  Se  Se4       1.0  0.23800  0.25000  0.94400  1.0000
  Zn  Zn1       1.0  0.14700  0.75000  0.10200  1.0000
  Zn  Zn2       1.0  0.64700  0.75000  0.39800  1.0000
  Zn  Zn3       1.0  0.35300  0.25000  0.60200  1.0000
  Zn  Zn4       1.0  0.85300  0.25000  0.89800  1.0000
