data_image0
_chemical_formula_structural       Co4O4Pt4Se4
_chemical_formula_sum              "Co4 O4 Pt4 Se4"
_cell_length_a       5.54717
_cell_length_b       7.67696
_cell_length_c       5.47544
_cell_angle_alpha    90
_cell_angle_beta     90
_cell_angle_gamma    90

_space_group_name_H-M_alt    "P 1"
_space_group_IT_number       1

loop_
  _space_group_symop_operation_xyz
  'x, y, z'

loop_
  _atom_site_type_symbol
  _atom_site_label
  _atom_site_symmetry_multiplicity
  _atom_site_fract_x
  _atom_site_fract_y
  _atom_site_fract_z
  _atom_site_occupancy
  Co  Co1       1.0  0.25000  0.08130  0.37400  1.0000
  Co  Co2       1.0  0.75000  0.91900  0.37400  1.0000
  Co  Co3       1.0  0.25000  0.08130  0.87400  1.0000
  Co  Co4       1.0  0.75000  0.91900  0.87400  1.0000
  O   O1        1.0  0.97100  0.05120  0.12400  1.0000
  O   O2        1.0  0.47100  0.94900  0.12400  1.0000
  O   O3        1.0  0.52900  0.05120  0.62400  1.0000
  O   O4        1.0  0.02930  0.94900  0.62400  1.0000
  Pt  Pt1       1.0  0.97800  0.33000  0.12600  1.0000
  Pt  Pt2       1.0  0.47800  0.67000  0.12600  1.0000
  Pt  Pt3       1.0  0.52200  0.33000  0.62600  1.0000
  Pt  Pt4       1.0  0.02240  0.67000  0.62600  1.0000
  Se  Se1       1.0  0.50800  0.35300  0.12700  1.0000
  Se  Se2       1.0  0.00787  0.64700  0.12700  1.0000
  Se  Se3       1.0  0.99200  0.35300  0.62700  1.0000
  Se  Se4       1.0  0.49200  0.64700  0.62700  1.0000
