data_image0
_chemical_formula_structural       CN3Ta2
_chemical_formula_sum              "C1 N3 Ta2"
_cell_length_a       5.36492
_cell_length_b       5.36491
_cell_length_c       2.81231
_cell_angle_alpha    90
_cell_angle_beta     90
_cell_angle_gamma    120.002

_space_group_name_H-M_alt    "P 1"
_space_group_IT_number       1

loop_
  _space_group_symop_operation_xyz
  'x, y, z'

loop_
  _atom_site_type_symbol
  _atom_site_label
  _atom_site_symmetry_multiplicity
  _atom_site_fract_x
  _atom_site_fract_y
  _atom_site_fract_z
  _atom_site_occupancy
  C   C1        1.0  0.00000  0.00000  0.00000  1.0000
  N   N1        1.0  0.50000  0.00003  0.00000  1.0000
  N   N2        1.0  0.50000  0.50000  0.00000  1.0000
  N   N3        1.0  0.00002  0.50000  0.00000  1.0000
  Ta  Ta1       1.0  0.66700  0.33300  0.50000  1.0000
  Ta  Ta2       1.0  0.33300  0.66700  0.50000  1.0000
