data_image0
_chemical_formula_structural       Ge4Ni4O4Se4
_chemical_formula_sum              "Ge4 Ni4 O4 Se4"
_cell_length_a       5.7906
_cell_length_b       8.21297
_cell_length_c       5.73389
_cell_angle_alpha    90
_cell_angle_beta     90
_cell_angle_gamma    90

_space_group_name_H-M_alt    "P 1"
_space_group_IT_number       1

loop_
  _space_group_symop_operation_xyz
  'x, y, z'

loop_
  _atom_site_type_symbol
  _atom_site_label
  _atom_site_symmetry_multiplicity
  _atom_site_fract_x
  _atom_site_fract_y
  _atom_site_fract_z
  _atom_site_occupancy
  Ge  Ge1       1.0  0.57600  0.26500  0.40600  1.0000
  Ge  Ge2       1.0  0.07560  0.73500  0.40600  1.0000
  Ge  Ge3       1.0  0.92400  0.26500  0.90600  1.0000
  Ge  Ge4       1.0  0.42400  0.73500  0.90600  1.0000
  Ni  Ni1       1.0  0.33600  0.08320  0.07890  1.0000
  Ni  Ni2       1.0  0.83600  0.91700  0.07890  1.0000
  Ni  Ni3       1.0  0.16400  0.08320  0.57900  1.0000
  Ni  Ni4       1.0  0.66400  0.91700  0.57900  1.0000
  O   O1        1.0  0.62400  0.04070  0.28100  1.0000
  O   O2        1.0  0.12400  0.95900  0.28100  1.0000
  O   O3        1.0  0.87600  0.04070  0.78100  1.0000
  O   O4        1.0  0.37600  0.95900  0.78100  1.0000
  Se  Se1       1.0  0.98600  0.35200  0.48400  1.0000
  Se  Se2       1.0  0.48600  0.64800  0.48400  1.0000
  Se  Se3       1.0  0.51400  0.35200  0.98400  1.0000
  Se  Se4       1.0  0.01360  0.64800  0.98400  1.0000
