data_image0
_chemical_formula_structural       Ge4O4Pd4Se4
_chemical_formula_sum              "Ge4 O4 Pd4 Se4"
_cell_length_a       6.81633
_cell_length_b       7.27421
_cell_length_c       5.41504
_cell_angle_alpha    90
_cell_angle_beta     90
_cell_angle_gamma    90

_space_group_name_H-M_alt    "P 1"
_space_group_IT_number       1

loop_
  _space_group_symop_operation_xyz
  'x, y, z'

loop_
  _atom_site_type_symbol
  _atom_site_label
  _atom_site_symmetry_multiplicity
  _atom_site_fract_x
  _atom_site_fract_y
  _atom_site_fract_z
  _atom_site_occupancy
  Ge  Ge1       1.0  0.46300  0.15800  0.03090  1.0000
  Ge  Ge2       1.0  0.96300  0.84200  0.03090  1.0000
  Ge  Ge3       1.0  0.03700  0.15800  0.53100  1.0000
  Ge  Ge4       1.0  0.53700  0.84200  0.53100  1.0000
  O   O1        1.0  0.03820  0.04750  0.21100  1.0000
  O   O2        1.0  0.53800  0.95300  0.21100  1.0000
  O   O3        1.0  0.46200  0.04750  0.71100  1.0000
  O   O4        1.0  0.96200  0.95300  0.71100  1.0000
  Pd  Pd1       1.0  0.13900  0.30700  0.02900  1.0000
  Pd  Pd2       1.0  0.63900  0.69300  0.02900  1.0000
  Pd  Pd3       1.0  0.36100  0.30700  0.52900  1.0000
  Pd  Pd4       1.0  0.86100  0.69300  0.52900  1.0000
  Se  Se1       1.0  0.73500  0.37700  0.47900  1.0000
  Se  Se2       1.0  0.23500  0.62300  0.47900  1.0000
  Se  Se3       1.0  0.76500  0.37700  0.97900  1.0000
  Se  Se4       1.0  0.26500  0.62300  0.97900  1.0000
