data_image0
_chemical_formula_structural       O4Pd4Se4Sr4
_chemical_formula_sum              "O4 Pd4 Se4 Sr4"
_cell_length_a       7.06156
_cell_length_b       7.70065
_cell_length_c       6.08281
_cell_angle_alpha    90
_cell_angle_beta     90
_cell_angle_gamma    90

_space_group_name_H-M_alt    "P 1"
_space_group_IT_number       1

loop_
  _space_group_symop_operation_xyz
  'x, y, z'

loop_
  _atom_site_type_symbol
  _atom_site_label
  _atom_site_symmetry_multiplicity
  _atom_site_fract_x
  _atom_site_fract_y
  _atom_site_fract_z
  _atom_site_occupancy
  O   O1        1.0  0.09140  0.09590  0.09010  1.0000
  O   O2        1.0  0.59100  0.90400  0.09010  1.0000
  O   O3        1.0  0.40900  0.09590  0.59000  1.0000
  O   O4        1.0  0.90900  0.90400  0.59000  1.0000
  Pd  Pd1       1.0  0.92200  0.30900  0.00264  1.0000
  Pd  Pd2       1.0  0.42200  0.69100  0.00264  1.0000
  Pd  Pd3       1.0  0.57800  0.30900  0.50300  1.0000
  Pd  Pd4       1.0  0.07820  0.69100  0.50300  1.0000
  Se  Se1       1.0  0.66600  0.47700  0.17200  1.0000
  Se  Se2       1.0  0.16600  0.52300  0.17200  1.0000
  Se  Se3       1.0  0.83400  0.47700  0.67200  1.0000
  Se  Se4       1.0  0.33400  0.52300  0.67200  1.0000
  Sr  Sr1       1.0  0.08530  0.15500  0.48500  1.0000
  Sr  Sr2       1.0  0.58500  0.84500  0.48500  1.0000
  Sr  Sr3       1.0  0.41500  0.15500  0.98500  1.0000
  Sr  Sr4       1.0  0.91500  0.84500  0.98500  1.0000
