data_image0
_chemical_formula_structural       Ge4O4Pt4Se4
_chemical_formula_sum              "Ge4 O4 Pt4 Se4"
_cell_length_a       6.43794
_cell_length_b       8.33484
_cell_length_c       5.4341
_cell_angle_alpha    90
_cell_angle_beta     90
_cell_angle_gamma    90

_space_group_name_H-M_alt    "P 1"
_space_group_IT_number       1

loop_
  _space_group_symop_operation_xyz
  'x, y, z'

loop_
  _atom_site_type_symbol
  _atom_site_label
  _atom_site_symmetry_multiplicity
  _atom_site_fract_x
  _atom_site_fract_y
  _atom_site_fract_z
  _atom_site_occupancy
  Ge  Ge1       1.0  0.93100  0.28500  0.05870  1.0000
  Ge  Ge2       1.0  0.43100  0.71500  0.05870  1.0000
  Ge  Ge3       1.0  0.56900  0.28500  0.55900  1.0000
  Ge  Ge4       1.0  0.06890  0.71500  0.55900  1.0000
  O   O1        1.0  0.94600  0.06720  0.05980  1.0000
  O   O2        1.0  0.44600  0.93300  0.05980  1.0000
  O   O3        1.0  0.55400  0.06720  0.56000  1.0000
  O   O4        1.0  0.05360  0.93300  0.56000  1.0000
  Pt  Pt1       1.0  0.26600  0.15000  0.06400  1.0000
  Pt  Pt2       1.0  0.76600  0.85000  0.06400  1.0000
  Pt  Pt3       1.0  0.23400  0.15000  0.56400  1.0000
  Pt  Pt4       1.0  0.73400  0.85000  0.56400  1.0000
  Se  Se1       1.0  0.53500  0.34900  0.06760  1.0000
  Se  Se2       1.0  0.03540  0.65100  0.06760  1.0000
  Se  Se3       1.0  0.96500  0.34900  0.56800  1.0000
  Se  Se4       1.0  0.46500  0.65100  0.56800  1.0000
