data_image0
_chemical_formula_structural       Co4Hg4O4Se4
_chemical_formula_sum              "Co4 Hg4 O4 Se4"
_cell_length_a       6.36296
_cell_length_b       3.38346
_cell_length_c       13.9797
_cell_angle_alpha    90
_cell_angle_beta     90
_cell_angle_gamma    90

_space_group_name_H-M_alt    "P 1"
_space_group_IT_number       1

loop_
  _space_group_symop_operation_xyz
  'x, y, z'

loop_
  _atom_site_type_symbol
  _atom_site_label
  _atom_site_symmetry_multiplicity
  _atom_site_fract_x
  _atom_site_fract_y
  _atom_site_fract_z
  _atom_site_occupancy
  Co  Co1       1.0  0.17900  0.75000  0.09080  1.0000
  Co  Co2       1.0  0.67900  0.75000  0.40900  1.0000
  Co  Co3       1.0  0.32100  0.25000  0.59100  1.0000
  Co  Co4       1.0  0.82100  0.25000  0.90900  1.0000
  Hg  Hg1       1.0  0.60800  0.25000  0.18700  1.0000
  Hg  Hg2       1.0  0.10800  0.25000  0.31300  1.0000
  Hg  Hg3       1.0  0.89200  0.75000  0.68700  1.0000
  Hg  Hg4       1.0  0.39200  0.75000  0.81300  1.0000
  O   O1        1.0  0.24700  0.25000  0.16200  1.0000
  O   O2        1.0  0.74700  0.25000  0.33800  1.0000
  O   O3        1.0  0.25300  0.75000  0.66200  1.0000
  O   O4        1.0  0.75300  0.75000  0.83800  1.0000
  Se  Se1       1.0  0.79700  0.75000  0.05690  1.0000
  Se  Se2       1.0  0.29700  0.75000  0.44300  1.0000
  Se  Se3       1.0  0.70300  0.25000  0.55700  1.0000
  Se  Se4       1.0  0.20300  0.25000  0.94300  1.0000
