data_image0
_chemical_formula_structural       Ag4Co4O4Se4
_chemical_formula_sum              "Ag4 Co4 O4 Se4"
_cell_length_a       6.35337
_cell_length_b       3.17975
_cell_length_c       12.7472
_cell_angle_alpha    90
_cell_angle_beta     90
_cell_angle_gamma    90

_space_group_name_H-M_alt    "P 1"
_space_group_IT_number       1

loop_
  _space_group_symop_operation_xyz
  'x, y, z'

loop_
  _atom_site_type_symbol
  _atom_site_label
  _atom_site_symmetry_multiplicity
  _atom_site_fract_x
  _atom_site_fract_y
  _atom_site_fract_z
  _atom_site_occupancy
  Ag  Ag1       1.0  0.57900  0.25000  0.24100  1.0000
  Ag  Ag2       1.0  0.07860  0.25000  0.25900  1.0000
  Ag  Ag3       1.0  0.92100  0.75000  0.74100  1.0000
  Ag  Ag4       1.0  0.42100  0.75000  0.75900  1.0000
  Co  Co1       1.0  0.22400  0.75000  0.05550  1.0000
  Co  Co2       1.0  0.72400  0.75000  0.44400  1.0000
  Co  Co3       1.0  0.27600  0.25000  0.55600  1.0000
  Co  Co4       1.0  0.77600  0.25000  0.94400  1.0000
  O   O1        1.0  0.31700  0.25000  0.13100  1.0000
  O   O2        1.0  0.81700  0.25000  0.36900  1.0000
  O   O3        1.0  0.18300  0.75000  0.63100  1.0000
  O   O4        1.0  0.68300  0.75000  0.86900  1.0000
  Se  Se1       1.0  0.82900  0.75000  0.09610  1.0000
  Se  Se2       1.0  0.32900  0.75000  0.40400  1.0000
  Se  Se3       1.0  0.67100  0.25000  0.59600  1.0000
  Se  Se4       1.0  0.17100  0.25000  0.90400  1.0000
