data_image0
_chemical_formula_structural       Ag4O4Pd4Se4
_chemical_formula_sum              "Ag4 O4 Pd4 Se4"
_cell_length_a       6.07695
_cell_length_b       7.26895
_cell_length_c       5.93683
_cell_angle_alpha    90
_cell_angle_beta     90
_cell_angle_gamma    90

_space_group_name_H-M_alt    "P 1"
_space_group_IT_number       1

loop_
  _space_group_symop_operation_xyz
  'x, y, z'

loop_
  _atom_site_type_symbol
  _atom_site_label
  _atom_site_symmetry_multiplicity
  _atom_site_fract_x
  _atom_site_fract_y
  _atom_site_fract_z
  _atom_site_occupancy
  Ag  Ag1       1.0  0.31200  0.15400  0.12300  1.0000
  Ag  Ag2       1.0  0.81200  0.84600  0.12300  1.0000
  Ag  Ag3       1.0  0.18800  0.15400  0.62300  1.0000
  Ag  Ag4       1.0  0.68800  0.84600  0.62300  1.0000
  O   O1        1.0  0.68800  0.11500  0.22300  1.0000
  O   O2        1.0  0.18800  0.88500  0.22300  1.0000
  O   O3        1.0  0.81200  0.11500  0.72300  1.0000
  O   O4        1.0  0.31200  0.88500  0.72300  1.0000
  Pd  Pd1       1.0  0.88300  0.28700  0.01720  1.0000
  Pd  Pd2       1.0  0.38300  0.71300  0.01720  1.0000
  Pd  Pd3       1.0  0.61700  0.28700  0.51700  1.0000
  Pd  Pd4       1.0  0.11700  0.71300  0.51700  1.0000
  Se  Se1       1.0  0.99200  0.40700  0.38700  1.0000
  Se  Se2       1.0  0.49200  0.59300  0.38700  1.0000
  Se  Se3       1.0  0.50800  0.40700  0.88700  1.0000
  Se  Se4       1.0  0.00814  0.59300  0.88700  1.0000
