data_image0
_chemical_formula_structural       Mg8O8Pd8Se8
_chemical_formula_sum              "Mg8 O8 Pd8 Se8"
_cell_length_a       6.12918
_cell_length_b       13.3155
_cell_length_c       6.65904
_cell_angle_alpha    90
_cell_angle_beta     90
_cell_angle_gamma    90

_space_group_name_H-M_alt    "P 1"
_space_group_IT_number       1

loop_
  _space_group_symop_operation_xyz
  'x, y, z'

loop_
  _atom_site_type_symbol
  _atom_site_label
  _atom_site_symmetry_multiplicity
  _atom_site_fract_x
  _atom_site_fract_y
  _atom_site_fract_z
  _atom_site_occupancy
  Mg  Mg1       1.0  0.03080  0.24400  0.13900  1.0000
  Mg  Mg2       1.0  0.46900  0.74400  0.13900  1.0000
  Mg  Mg3       1.0  0.53100  0.24400  0.36100  1.0000
  Mg  Mg4       1.0  0.96900  0.74400  0.36100  1.0000
  Mg  Mg5       1.0  0.03080  0.25600  0.63900  1.0000
  Mg  Mg6       1.0  0.46900  0.75600  0.63900  1.0000
  Mg  Mg7       1.0  0.53100  0.25600  0.86100  1.0000
  Mg  Mg8       1.0  0.96900  0.75600  0.86100  1.0000
  O   O1        1.0  0.70600  0.24500  0.11200  1.0000
  O   O2        1.0  0.79400  0.74500  0.11200  1.0000
  O   O3        1.0  0.20600  0.24500  0.38800  1.0000
  O   O4        1.0  0.29400  0.74500  0.38800  1.0000
  O   O5        1.0  0.70600  0.25500  0.61200  1.0000
  O   O6        1.0  0.79400  0.75500  0.61200  1.0000
  O   O7        1.0  0.20600  0.25500  0.88800  1.0000
  O   O8        1.0  0.29400  0.75500  0.88800  1.0000
  Pd  Pd1       1.0  0.25500  0.42400  0.01460  1.0000
  Pd  Pd2       1.0  0.24500  0.92400  0.01460  1.0000
  Pd  Pd3       1.0  0.75500  0.42400  0.48500  1.0000
  Pd  Pd4       1.0  0.74500  0.92400  0.48500  1.0000
  Pd  Pd5       1.0  0.25500  0.07600  0.51500  1.0000
  Pd  Pd6       1.0  0.24500  0.57600  0.51500  1.0000
  Pd  Pd7       1.0  0.75500  0.07600  0.98500  1.0000
  Pd  Pd8       1.0  0.74500  0.57600  0.98500  1.0000
  Se  Se1       1.0  0.50200  0.00641  0.24900  1.0000
  Se  Se2       1.0  0.99800  0.50600  0.24900  1.0000
  Se  Se3       1.0  0.00186  0.00641  0.25100  1.0000
  Se  Se4       1.0  0.49800  0.50600  0.25100  1.0000
  Se  Se5       1.0  0.50200  0.49400  0.74900  1.0000
  Se  Se6       1.0  0.99800  0.99400  0.74900  1.0000
  Se  Se7       1.0  0.00186  0.49400  0.75100  1.0000
  Se  Se8       1.0  0.49800  0.99400  0.75100  1.0000
