data_image0
_chemical_formula_structural       Be4O4Pb4Se4
_chemical_formula_sum              "Be4 O4 Pb4 Se4"
_cell_length_a       5.33535
_cell_length_b       12.085
_cell_length_c       4.87393
_cell_angle_alpha    90
_cell_angle_beta     90
_cell_angle_gamma    90

_space_group_name_H-M_alt    "P 1"
_space_group_IT_number       1

loop_
  _space_group_symop_operation_xyz
  'x, y, z'

loop_
  _atom_site_type_symbol
  _atom_site_label
  _atom_site_symmetry_multiplicity
  _atom_site_fract_x
  _atom_site_fract_y
  _atom_site_fract_z
  _atom_site_occupancy
  Be  Be1       1.0  0.87500  0.00129  0.02930  1.0000
  Be  Be2       1.0  0.37500  0.99900  0.02930  1.0000
  Be  Be3       1.0  0.62500  0.00129  0.52900  1.0000
  Be  Be4       1.0  0.12500  0.99900  0.52900  1.0000
  O   O1        1.0  0.62600  0.00117  0.20100  1.0000
  O   O2        1.0  0.12600  0.99900  0.20100  1.0000
  O   O3        1.0  0.87400  0.00117  0.70100  1.0000
  O   O4        1.0  0.37400  0.99900  0.70100  1.0000
  Pb  Pb1       1.0  0.99700  0.27400  0.01010  1.0000
  Pb  Pb2       1.0  0.49700  0.72600  0.01010  1.0000
  Pb  Pb3       1.0  0.50300  0.27400  0.51000  1.0000
  Pb  Pb4       1.0  0.00286  0.72600  0.51000  1.0000
  Se  Se1       1.0  0.49700  0.39000  0.00977  1.0000
  Se  Se2       1.0  0.99700  0.61000  0.00977  1.0000
  Se  Se3       1.0  0.00321  0.39000  0.51000  1.0000
  Se  Se4       1.0  0.50300  0.61000  0.51000  1.0000
