data_image0
_chemical_formula_structural       Ni4O4Pd4Se4
_chemical_formula_sum              "Ni4 O4 Pd4 Se4"
_cell_length_a       5.54878
_cell_length_b       7.26043
_cell_length_c       5.8028
_cell_angle_alpha    90
_cell_angle_beta     90
_cell_angle_gamma    90

_space_group_name_H-M_alt    "P 1"
_space_group_IT_number       1

loop_
  _space_group_symop_operation_xyz
  'x, y, z'

loop_
  _atom_site_type_symbol
  _atom_site_label
  _atom_site_symmetry_multiplicity
  _atom_site_fract_x
  _atom_site_fract_y
  _atom_site_fract_z
  _atom_site_occupancy
  Ni  Ni1       1.0  0.50200  0.00320  0.46000  1.0000
  Ni  Ni2       1.0  0.00185  0.99700  0.46000  1.0000
  Ni  Ni3       1.0  0.99800  0.00320  0.96000  1.0000
  Ni  Ni4       1.0  0.49800  0.99700  0.96000  1.0000
  O   O1        1.0  0.74900  0.05500  0.20900  1.0000
  O   O2        1.0  0.24900  0.94500  0.20900  1.0000
  O   O3        1.0  0.75100  0.05500  0.70900  1.0000
  O   O4        1.0  0.25100  0.94500  0.70900  1.0000
  Pd  Pd1       1.0  0.77800  0.35700  0.14800  1.0000
  Pd  Pd2       1.0  0.27800  0.64300  0.14800  1.0000
  Pd  Pd3       1.0  0.72200  0.35700  0.64800  1.0000
  Pd  Pd4       1.0  0.22200  0.64300  0.64800  1.0000
  Se  Se1       1.0  0.11300  0.35200  0.43300  1.0000
  Se  Se2       1.0  0.61300  0.64800  0.43300  1.0000
  Se  Se3       1.0  0.38700  0.35200  0.93300  1.0000
  Se  Se4       1.0  0.88700  0.64800  0.93300  1.0000
