data_image0
_chemical_formula_structural       Hg4O4Se4Sn4
_chemical_formula_sum              "Hg4 O4 Se4 Sn4"
_cell_length_a       6.01394
_cell_length_b       4.2585
_cell_length_c       16.4312
_cell_angle_alpha    90
_cell_angle_beta     90
_cell_angle_gamma    90

_space_group_name_H-M_alt    "P 1"
_space_group_IT_number       1

loop_
  _space_group_symop_operation_xyz
  'x, y, z'

loop_
  _atom_site_type_symbol
  _atom_site_label
  _atom_site_symmetry_multiplicity
  _atom_site_fract_x
  _atom_site_fract_y
  _atom_site_fract_z
  _atom_site_occupancy
  Hg  Hg1       1.0  0.17400  0.75000  0.02780  1.0000
  Hg  Hg2       1.0  0.67400  0.75000  0.47200  1.0000
  Hg  Hg3       1.0  0.32600  0.25000  0.52800  1.0000
  Hg  Hg4       1.0  0.82600  0.25000  0.97200  1.0000
  O   O1        1.0  0.22600  0.25000  0.20700  1.0000
  O   O2        1.0  0.72600  0.25000  0.29300  1.0000
  O   O3        1.0  0.27400  0.75000  0.70700  1.0000
  O   O4        1.0  0.77400  0.75000  0.79300  1.0000
  Se  Se1       1.0  0.67300  0.75000  0.10600  1.0000
  Se  Se2       1.0  0.17300  0.75000  0.39400  1.0000
  Se  Se3       1.0  0.82700  0.25000  0.60600  1.0000
  Se  Se4       1.0  0.32700  0.25000  0.89400  1.0000
  Sn  Sn1       1.0  0.55500  0.25000  0.18900  1.0000
  Sn  Sn2       1.0  0.05510  0.25000  0.31100  1.0000
  Sn  Sn3       1.0  0.94500  0.75000  0.68900  1.0000
  Sn  Sn4       1.0  0.44500  0.75000  0.81100  1.0000
