data_image0
_chemical_formula_structural       Hg4O4Pd4Se4
_chemical_formula_sum              "Hg4 O4 Pd4 Se4"
_cell_length_a       6.55042
_cell_length_b       9.1573
_cell_length_c       4.82268
_cell_angle_alpha    90
_cell_angle_beta     90
_cell_angle_gamma    90

_space_group_name_H-M_alt    "P 1"
_space_group_IT_number       1

loop_
  _space_group_symop_operation_xyz
  'x, y, z'

loop_
  _atom_site_type_symbol
  _atom_site_label
  _atom_site_symmetry_multiplicity
  _atom_site_fract_x
  _atom_site_fract_y
  _atom_site_fract_z
  _atom_site_occupancy
  Hg  Hg1       1.0  0.38400  0.09440  0.06300  1.0000
  Hg  Hg2       1.0  0.88400  0.90600  0.06300  1.0000
  Hg  Hg3       1.0  0.11600  0.09440  0.56300  1.0000
  Hg  Hg4       1.0  0.61600  0.90600  0.56300  1.0000
  O   O1        1.0  0.99900  0.13400  0.06260  1.0000
  O   O2        1.0  0.49900  0.86600  0.06260  1.0000
  O   O3        1.0  0.50100  0.13400  0.56300  1.0000
  O   O4        1.0  0.00139  0.86600  0.56300  1.0000
  Pd  Pd1       1.0  0.88600  0.35500  0.06230  1.0000
  Pd  Pd2       1.0  0.38600  0.64500  0.06230  1.0000
  Pd  Pd3       1.0  0.61400  0.35500  0.56200  1.0000
  Pd  Pd4       1.0  0.11400  0.64500  0.56200  1.0000
  Se  Se1       1.0  0.49200  0.37800  0.06220  1.0000
  Se  Se2       1.0  0.99200  0.62200  0.06220  1.0000
  Se  Se3       1.0  0.00770  0.37800  0.56200  1.0000
  Se  Se4       1.0  0.50800  0.62200  0.56200  1.0000
