data_image0
_chemical_formula_structural       Ge8Mg8O8Se8
_chemical_formula_sum              "Ge8 Mg8 O8 Se8"
_cell_length_a       6.24767
_cell_length_b       15.0925
_cell_length_c       6.36484
_cell_angle_alpha    90
_cell_angle_beta     90
_cell_angle_gamma    90

_space_group_name_H-M_alt    "P 1"
_space_group_IT_number       1

loop_
  _space_group_symop_operation_xyz
  'x, y, z'

loop_
  _atom_site_type_symbol
  _atom_site_label
  _atom_site_symmetry_multiplicity
  _atom_site_fract_x
  _atom_site_fract_y
  _atom_site_fract_z
  _atom_site_occupancy
  Ge  Ge1       1.0  0.26100  0.43100  0.10300  1.0000
  Ge  Ge2       1.0  0.23900  0.93100  0.10300  1.0000
  Ge  Ge3       1.0  0.76100  0.43100  0.39700  1.0000
  Ge  Ge4       1.0  0.73900  0.93100  0.39700  1.0000
  Ge  Ge5       1.0  0.26100  0.06880  0.60300  1.0000
  Ge  Ge6       1.0  0.23900  0.56900  0.60300  1.0000
  Ge  Ge7       1.0  0.76100  0.06880  0.89700  1.0000
  Ge  Ge8       1.0  0.73900  0.56900  0.89700  1.0000
  Mg  Mg1       1.0  0.07210  0.24200  0.13300  1.0000
  Mg  Mg2       1.0  0.42800  0.74200  0.13300  1.0000
  Mg  Mg3       1.0  0.57200  0.24200  0.36700  1.0000
  Mg  Mg4       1.0  0.92800  0.74200  0.36700  1.0000
  Mg  Mg5       1.0  0.07210  0.25800  0.63300  1.0000
  Mg  Mg6       1.0  0.42800  0.75800  0.63300  1.0000
  Mg  Mg7       1.0  0.57200  0.25800  0.86700  1.0000
  Mg  Mg8       1.0  0.92800  0.75800  0.86700  1.0000
  O   O1        1.0  0.75500  0.25800  0.11900  1.0000
  O   O2        1.0  0.74500  0.75800  0.11900  1.0000
  O   O3        1.0  0.25500  0.25800  0.38100  1.0000
  O   O4        1.0  0.24500  0.75800  0.38100  1.0000
  O   O5        1.0  0.75500  0.24200  0.61900  1.0000
  O   O6        1.0  0.74500  0.74200  0.61900  1.0000
  O   O7        1.0  0.25500  0.24200  0.88100  1.0000
  O   O8        1.0  0.24500  0.74200  0.88100  1.0000
  Se  Se1       1.0  0.49600  0.05310  0.24800  1.0000
  Se  Se2       1.0  0.00433  0.55300  0.24800  1.0000
  Se  Se3       1.0  0.99600  0.05310  0.25200  1.0000
  Se  Se4       1.0  0.50400  0.55300  0.25200  1.0000
  Se  Se5       1.0  0.49600  0.44700  0.74800  1.0000
  Se  Se6       1.0  0.00433  0.94700  0.74800  1.0000
  Se  Se7       1.0  0.99600  0.44700  0.75200  1.0000
  Se  Se8       1.0  0.50400  0.94700  0.75200  1.0000
