data_image0
_chemical_formula_structural       Hg4O4Pb4Se4
_chemical_formula_sum              "Hg4 O4 Pb4 Se4"
_cell_length_a       6.43869
_cell_length_b       3.9186
_cell_length_c       15.305
_cell_angle_alpha    90
_cell_angle_beta     90
_cell_angle_gamma    90

_space_group_name_H-M_alt    "P 1"
_space_group_IT_number       1

loop_
  _space_group_symop_operation_xyz
  'x, y, z'

loop_
  _atom_site_type_symbol
  _atom_site_label
  _atom_site_symmetry_multiplicity
  _atom_site_fract_x
  _atom_site_fract_y
  _atom_site_fract_z
  _atom_site_occupancy
  Hg  Hg1       1.0  0.16300  0.75000  0.09150  1.0000
  Hg  Hg2       1.0  0.66300  0.75000  0.40900  1.0000
  Hg  Hg3       1.0  0.33700  0.25000  0.59100  1.0000
  Hg  Hg4       1.0  0.83700  0.25000  0.90900  1.0000
  O   O1        1.0  0.26000  0.25000  0.17300  1.0000
  O   O2        1.0  0.76000  0.25000  0.32700  1.0000
  O   O3        1.0  0.24000  0.75000  0.67300  1.0000
  O   O4        1.0  0.74000  0.75000  0.82700  1.0000
  Pb  Pb1       1.0  0.61900  0.25000  0.17900  1.0000
  Pb  Pb2       1.0  0.11900  0.25000  0.32100  1.0000
  Pb  Pb3       1.0  0.88100  0.75000  0.67900  1.0000
  Pb  Pb4       1.0  0.38100  0.75000  0.82100  1.0000
  Se  Se1       1.0  0.75400  0.75000  0.04850  1.0000
  Se  Se2       1.0  0.25400  0.75000  0.45200  1.0000
  Se  Se3       1.0  0.74600  0.25000  0.54800  1.0000
  Se  Se4       1.0  0.24600  0.25000  0.95200  1.0000
