data_image0
_chemical_formula_structural       Mg4O4Se4Sn4
_chemical_formula_sum              "Mg4 O4 Se4 Sn4"
_cell_length_a       6.05857
_cell_length_b       3.62326
_cell_length_c       15.3161
_cell_angle_alpha    90
_cell_angle_beta     90
_cell_angle_gamma    90

_space_group_name_H-M_alt    "P 1"
_space_group_IT_number       1

loop_
  _space_group_symop_operation_xyz
  'x, y, z'

loop_
  _atom_site_type_symbol
  _atom_site_label
  _atom_site_symmetry_multiplicity
  _atom_site_fract_x
  _atom_site_fract_y
  _atom_site_fract_z
  _atom_site_occupancy
  Mg  Mg1       1.0  0.32900  0.75000  0.03280  1.0000
  Mg  Mg2       1.0  0.82900  0.75000  0.46700  1.0000
  Mg  Mg3       1.0  0.17100  0.25000  0.53300  1.0000
  Mg  Mg4       1.0  0.67100  0.25000  0.96700  1.0000
  O   O1        1.0  0.45400  0.25000  0.07120  1.0000
  O   O2        1.0  0.95400  0.25000  0.42900  1.0000
  O   O3        1.0  0.04630  0.75000  0.57100  1.0000
  O   O4        1.0  0.54600  0.75000  0.92900  1.0000
  Se  Se1       1.0  0.91900  0.75000  0.09890  1.0000
  Se  Se2       1.0  0.41900  0.75000  0.40100  1.0000
  Se  Se3       1.0  0.58100  0.25000  0.59900  1.0000
  Se  Se4       1.0  0.08070  0.25000  0.90100  1.0000
  Sn  Sn1       1.0  0.66800  0.25000  0.18300  1.0000
  Sn  Sn2       1.0  0.16800  0.25000  0.31700  1.0000
  Sn  Sn3       1.0  0.83200  0.75000  0.68300  1.0000
  Sn  Sn4       1.0  0.33200  0.75000  0.81700  1.0000
