data_image0
_chemical_formula_structural       Mg4O4Se4Sr4
_chemical_formula_sum              "Mg4 O4 Se4 Sr4"
_cell_length_a       7.21531
_cell_length_b       3.58991
_cell_length_c       12.928
_cell_angle_alpha    90
_cell_angle_beta     90
_cell_angle_gamma    90

_space_group_name_H-M_alt    "P 1"
_space_group_IT_number       1

loop_
  _space_group_symop_operation_xyz
  'x, y, z'

loop_
  _atom_site_type_symbol
  _atom_site_label
  _atom_site_symmetry_multiplicity
  _atom_site_fract_x
  _atom_site_fract_y
  _atom_site_fract_z
  _atom_site_occupancy
  Mg  Mg1       1.0  0.20000  0.75000  0.05500  1.0000
  Mg  Mg2       1.0  0.70000  0.75000  0.44500  1.0000
  Mg  Mg3       1.0  0.30000  0.25000  0.55500  1.0000
  Mg  Mg4       1.0  0.80000  0.25000  0.94500  1.0000
  O   O1        1.0  0.26900  0.25000  0.12400  1.0000
  O   O2        1.0  0.76900  0.25000  0.37600  1.0000
  O   O3        1.0  0.23100  0.75000  0.62400  1.0000
  O   O4        1.0  0.73100  0.75000  0.87600  1.0000
  Se  Se1       1.0  0.83300  0.75000  0.11400  1.0000
  Se  Se2       1.0  0.33300  0.75000  0.38600  1.0000
  Se  Se3       1.0  0.66700  0.25000  0.61400  1.0000
  Se  Se4       1.0  0.16700  0.25000  0.88600  1.0000
  Sr  Sr1       1.0  0.54800  0.25000  0.22600  1.0000
  Sr  Sr2       1.0  0.04810  0.25000  0.27400  1.0000
  Sr  Sr3       1.0  0.95200  0.75000  0.72600  1.0000
  Sr  Sr4       1.0  0.45200  0.75000  0.77400  1.0000
