data_image0
_chemical_formula_structural       Be8O8Se8Zn8
_chemical_formula_sum              "Be8 O8 Se8 Zn8"
_cell_length_a       7.74892
_cell_length_b       12.7008
_cell_length_c       5.30776
_cell_angle_alpha    90
_cell_angle_beta     90
_cell_angle_gamma    90

_space_group_name_H-M_alt    "P 1"
_space_group_IT_number       1

loop_
  _space_group_symop_operation_xyz
  'x, y, z'

loop_
  _atom_site_type_symbol
  _atom_site_label
  _atom_site_symmetry_multiplicity
  _atom_site_fract_x
  _atom_site_fract_y
  _atom_site_fract_z
  _atom_site_occupancy
  Be  Be1       1.0  0.70700  0.21300  0.09030  1.0000
  Be  Be2       1.0  0.79300  0.71300  0.09030  1.0000
  Be  Be3       1.0  0.20700  0.21300  0.41000  1.0000
  Be  Be4       1.0  0.29300  0.71300  0.41000  1.0000
  Be  Be5       1.0  0.70700  0.28700  0.59000  1.0000
  Be  Be6       1.0  0.79300  0.78700  0.59000  1.0000
  Be  Be7       1.0  0.20700  0.28700  0.91000  1.0000
  Be  Be8       1.0  0.29300  0.78700  0.91000  1.0000
  O   O1        1.0  0.23000  0.29300  0.19600  1.0000
  O   O2        1.0  0.27000  0.79300  0.19600  1.0000
  O   O3        1.0  0.73000  0.29300  0.30400  1.0000
  O   O4        1.0  0.77000  0.79300  0.30400  1.0000
  O   O5        1.0  0.23000  0.20700  0.69600  1.0000
  O   O6        1.0  0.27000  0.70700  0.69600  1.0000
  O   O7        1.0  0.73000  0.20700  0.80400  1.0000
  O   O8        1.0  0.77000  0.70700  0.80400  1.0000
  Se  Se1       1.0  0.08360  0.06720  0.24700  1.0000
  Se  Se2       1.0  0.41600  0.56700  0.24700  1.0000
  Se  Se3       1.0  0.58400  0.06720  0.25300  1.0000
  Se  Se4       1.0  0.91600  0.56700  0.25300  1.0000
  Se  Se5       1.0  0.08360  0.43300  0.74700  1.0000
  Se  Se6       1.0  0.41600  0.93300  0.74700  1.0000
  Se  Se7       1.0  0.58400  0.43300  0.75300  1.0000
  Se  Se8       1.0  0.91600  0.93300  0.75300  1.0000
  Zn  Zn1       1.0  0.68400  0.44000  0.19000  1.0000
  Zn  Zn2       1.0  0.81600  0.94000  0.19000  1.0000
  Zn  Zn3       1.0  0.18400  0.44000  0.31000  1.0000
  Zn  Zn4       1.0  0.31600  0.94000  0.31000  1.0000
  Zn  Zn5       1.0  0.68400  0.06000  0.69000  1.0000
  Zn  Zn6       1.0  0.81600  0.56000  0.69000  1.0000
  Zn  Zn7       1.0  0.18400  0.06000  0.81000  1.0000
  Zn  Zn8       1.0  0.31600  0.56000  0.81000  1.0000
