data_image0
_chemical_formula_structural       Ge4O4Se4Zn4
_chemical_formula_sum              "Ge4 O4 Se4 Zn4"
_cell_length_a       5.77123
_cell_length_b       8.89681
_cell_length_c       5.64457
_cell_angle_alpha    90
_cell_angle_beta     90
_cell_angle_gamma    90

_space_group_name_H-M_alt    "P 1"
_space_group_IT_number       1

loop_
  _space_group_symop_operation_xyz
  'x, y, z'

loop_
  _atom_site_type_symbol
  _atom_site_label
  _atom_site_symmetry_multiplicity
  _atom_site_fract_x
  _atom_site_fract_y
  _atom_site_fract_z
  _atom_site_occupancy
  Ge  Ge1       1.0  0.99500  0.31700  0.07050  1.0000
  Ge  Ge2       1.0  0.49500  0.68300  0.07050  1.0000
  Ge  Ge3       1.0  0.50500  0.31700  0.57000  1.0000
  Ge  Ge4       1.0  0.00457  0.68300  0.57000  1.0000
  O   O1        1.0  0.07130  0.08930  0.10600  1.0000
  O   O2        1.0  0.57100  0.91100  0.10600  1.0000
  O   O3        1.0  0.42900  0.08930  0.60600  1.0000
  O   O4        1.0  0.92900  0.91100  0.60600  1.0000
  Se  Se1       1.0  0.53000  0.32500  0.10700  1.0000
  Se  Se2       1.0  0.02960  0.67500  0.10700  1.0000
  Se  Se3       1.0  0.97000  0.32500  0.60700  1.0000
  Se  Se4       1.0  0.47000  0.67500  0.60700  1.0000
  Zn  Zn1       1.0  0.10300  0.08010  0.46600  1.0000
  Zn  Zn2       1.0  0.60300  0.92000  0.46600  1.0000
  Zn  Zn3       1.0  0.39700  0.08010  0.96600  1.0000
  Zn  Zn4       1.0  0.89700  0.92000  0.96600  1.0000
