data_image0
_chemical_formula_structural       Hg4O4Se4Sr4
_chemical_formula_sum              "Hg4 O4 Se4 Sr4"
_cell_length_a       6.25273
_cell_length_b       4.16894
_cell_length_c       14.9528
_cell_angle_alpha    90
_cell_angle_beta     90
_cell_angle_gamma    90

_space_group_name_H-M_alt    "P 1"
_space_group_IT_number       1

loop_
  _space_group_symop_operation_xyz
  'x, y, z'

loop_
  _atom_site_type_symbol
  _atom_site_label
  _atom_site_symmetry_multiplicity
  _atom_site_fract_x
  _atom_site_fract_y
  _atom_site_fract_z
  _atom_site_occupancy
  Hg  Hg1       1.0  0.70100  0.25000  0.18100  1.0000
  Hg  Hg2       1.0  0.20100  0.25000  0.31900  1.0000
  Hg  Hg3       1.0  0.79900  0.75000  0.68100  1.0000
  Hg  Hg4       1.0  0.29900  0.75000  0.81900  1.0000
  O   O1        1.0  0.29900  0.25000  0.18000  1.0000
  O   O2        1.0  0.79900  0.25000  0.32000  1.0000
  O   O3        1.0  0.20100  0.75000  0.68000  1.0000
  O   O4        1.0  0.70100  0.75000  0.82000  1.0000
  Se  Se1       1.0  0.75700  0.75000  0.06980  1.0000
  Se  Se2       1.0  0.25700  0.75000  0.43000  1.0000
  Se  Se3       1.0  0.74300  0.25000  0.57000  1.0000
  Se  Se4       1.0  0.24300  0.25000  0.93000  1.0000
  Sr  Sr1       1.0  0.25500  0.75000  0.10200  1.0000
  Sr  Sr2       1.0  0.75500  0.75000  0.39800  1.0000
  Sr  Sr3       1.0  0.24500  0.25000  0.60200  1.0000
  Sr  Sr4       1.0  0.74500  0.25000  0.89800  1.0000
