data_image0
_chemical_formula_structural       Ba4O4Pt4Se4
_chemical_formula_sum              "Ba4 O4 Pt4 Se4"
_cell_length_a       7.40754
_cell_length_b       8.21845
_cell_length_c       5.84159
_cell_angle_alpha    90
_cell_angle_beta     90
_cell_angle_gamma    90

_space_group_name_H-M_alt    "P 1"
_space_group_IT_number       1

loop_
  _space_group_symop_operation_xyz
  'x, y, z'

loop_
  _atom_site_type_symbol
  _atom_site_label
  _atom_site_symmetry_multiplicity
  _atom_site_fract_x
  _atom_site_fract_y
  _atom_site_fract_z
  _atom_site_occupancy
  Ba  Ba1       1.0  0.42500  0.16200  0.02350  1.0000
  Ba  Ba2       1.0  0.92500  0.83800  0.02350  1.0000
  Ba  Ba3       1.0  0.07450  0.16200  0.52400  1.0000
  Ba  Ba4       1.0  0.57500  0.83800  0.52400  1.0000
  O   O1        1.0  0.06870  0.12500  0.02340  1.0000
  O   O2        1.0  0.56900  0.87500  0.02340  1.0000
  O   O3        1.0  0.43100  0.12500  0.52300  1.0000
  O   O4        1.0  0.93100  0.87500  0.52300  1.0000
  Pt  Pt1       1.0  0.88700  0.31200  0.01550  1.0000
  Pt  Pt2       1.0  0.38700  0.68800  0.01550  1.0000
  Pt  Pt3       1.0  0.61300  0.31200  0.51600  1.0000
  Pt  Pt4       1.0  0.11300  0.68800  0.51600  1.0000
  Se  Se1       1.0  0.66300  0.49200  0.18800  1.0000
  Se  Se2       1.0  0.16300  0.50800  0.18800  1.0000
  Se  Se3       1.0  0.83700  0.49200  0.68800  1.0000
  Se  Se4       1.0  0.33700  0.50800  0.68800  1.0000
