data_image0
_chemical_formula_structural       Co4O4Se4Zn4
_chemical_formula_sum              "Co4 O4 Se4 Zn4"
_cell_length_a       5.66374
_cell_length_b       3.50981
_cell_length_c       12.6953
_cell_angle_alpha    90
_cell_angle_beta     90
_cell_angle_gamma    90

_space_group_name_H-M_alt    "P 1"
_space_group_IT_number       1

loop_
  _space_group_symop_operation_xyz
  'x, y, z'

loop_
  _atom_site_type_symbol
  _atom_site_label
  _atom_site_symmetry_multiplicity
  _atom_site_fract_x
  _atom_site_fract_y
  _atom_site_fract_z
  _atom_site_occupancy
  Co  Co1       1.0  0.22200  0.75000  0.09050  1.0000
  Co  Co2       1.0  0.72200  0.75000  0.41000  1.0000
  Co  Co3       1.0  0.27800  0.25000  0.59000  1.0000
  Co  Co4       1.0  0.77800  0.25000  0.91000  1.0000
  O   O1        1.0  0.28100  0.25000  0.17300  1.0000
  O   O2        1.0  0.78100  0.25000  0.32700  1.0000
  O   O3        1.0  0.21900  0.75000  0.67300  1.0000
  O   O4        1.0  0.71900  0.75000  0.82700  1.0000
  Se  Se1       1.0  0.77800  0.75000  0.07150  1.0000
  Se  Se2       1.0  0.27800  0.75000  0.42900  1.0000
  Se  Se3       1.0  0.72200  0.25000  0.57100  1.0000
  Se  Se4       1.0  0.22200  0.25000  0.92900  1.0000
  Zn  Zn1       1.0  0.62700  0.25000  0.18900  1.0000
  Zn  Zn2       1.0  0.12700  0.25000  0.31100  1.0000
  Zn  Zn3       1.0  0.87300  0.75000  0.68900  1.0000
  Zn  Zn4       1.0  0.37300  0.75000  0.81100  1.0000
