data_image0
_chemical_formula_structural       Hg4Mn4O4Se4
_chemical_formula_sum              "Hg4 Mn4 O4 Se4"
_cell_length_a       5.65382
_cell_length_b       3.72485
_cell_length_c       14.5755
_cell_angle_alpha    90
_cell_angle_beta     90
_cell_angle_gamma    90

_space_group_name_H-M_alt    "P 1"
_space_group_IT_number       1

loop_
  _space_group_symop_operation_xyz
  'x, y, z'

loop_
  _atom_site_type_symbol
  _atom_site_label
  _atom_site_symmetry_multiplicity
  _atom_site_fract_x
  _atom_site_fract_y
  _atom_site_fract_z
  _atom_site_occupancy
  Hg  Hg1       1.0  0.72600  0.25000  0.19200  1.0000
  Hg  Hg2       1.0  0.22600  0.25000  0.30800  1.0000
  Hg  Hg3       1.0  0.77400  0.75000  0.69200  1.0000
  Hg  Hg4       1.0  0.27400  0.75000  0.80800  1.0000
  Mn  Mn1       1.0  0.24100  0.75000  0.09330  1.0000
  Mn  Mn2       1.0  0.74100  0.75000  0.40700  1.0000
  Mn  Mn3       1.0  0.25900  0.25000  0.59300  1.0000
  Mn  Mn4       1.0  0.75900  0.25000  0.90700  1.0000
  O   O1        1.0  0.25200  0.25000  0.15900  1.0000
  O   O2        1.0  0.75200  0.25000  0.34100  1.0000
  O   O3        1.0  0.24800  0.75000  0.65900  1.0000
  O   O4        1.0  0.74800  0.75000  0.84100  1.0000
  Se  Se1       1.0  0.75100  0.75000  0.06240  1.0000
  Se  Se2       1.0  0.25100  0.75000  0.43800  1.0000
  Se  Se3       1.0  0.74900  0.25000  0.56200  1.0000
  Se  Se4       1.0  0.24900  0.25000  0.93800  1.0000
