data_image0
_chemical_formula_structural       Cu4O4Se4Zn4
_chemical_formula_sum              "Cu4 O4 Se4 Zn4"
_cell_length_a       6.08488
_cell_length_b       3.21417
_cell_length_c       12.4413
_cell_angle_alpha    90
_cell_angle_beta     90
_cell_angle_gamma    90

_space_group_name_H-M_alt    "P 1"
_space_group_IT_number       1

loop_
  _space_group_symop_operation_xyz
  'x, y, z'

loop_
  _atom_site_type_symbol
  _atom_site_label
  _atom_site_symmetry_multiplicity
  _atom_site_fract_x
  _atom_site_fract_y
  _atom_site_fract_z
  _atom_site_occupancy
  Cu  Cu1       1.0  0.23500  0.75000  0.07080  1.0000
  Cu  Cu2       1.0  0.73500  0.75000  0.42900  1.0000
  Cu  Cu3       1.0  0.26500  0.25000  0.57100  1.0000
  Cu  Cu4       1.0  0.76500  0.25000  0.92900  1.0000
  O   O1        1.0  0.28100  0.25000  0.17200  1.0000
  O   O2        1.0  0.78100  0.25000  0.32800  1.0000
  O   O3        1.0  0.21900  0.75000  0.67200  1.0000
  O   O4        1.0  0.71900  0.75000  0.82800  1.0000
  Se  Se1       1.0  0.79000  0.75000  0.07630  1.0000
  Se  Se2       1.0  0.29000  0.75000  0.42400  1.0000
  Se  Se3       1.0  0.71000  0.25000  0.57600  1.0000
  Se  Se4       1.0  0.21000  0.25000  0.92400  1.0000
  Zn  Zn1       1.0  0.58800  0.25000  0.20600  1.0000
  Zn  Zn2       1.0  0.08800  0.25000  0.29400  1.0000
  Zn  Zn3       1.0  0.91200  0.75000  0.70600  1.0000
  Zn  Zn4       1.0  0.41200  0.75000  0.79400  1.0000
