data_image0
_chemical_formula_structural       Be4Co4O4Se4
_chemical_formula_sum              "Be4 Co4 O4 Se4"
_cell_length_a       5.93075
_cell_length_b       6.61898
_cell_length_c       5.71653
_cell_angle_alpha    90
_cell_angle_beta     90
_cell_angle_gamma    90

_space_group_name_H-M_alt    "P 1"
_space_group_IT_number       1

loop_
  _space_group_symop_operation_xyz
  'x, y, z'

loop_
  _atom_site_type_symbol
  _atom_site_label
  _atom_site_symmetry_multiplicity
  _atom_site_fract_x
  _atom_site_fract_y
  _atom_site_fract_z
  _atom_site_occupancy
  Be  Be1       1.0  0.94900  0.33000  0.03720  1.0000
  Be  Be2       1.0  0.44900  0.67000  0.03720  1.0000
  Be  Be3       1.0  0.55100  0.33000  0.53700  1.0000
  Be  Be4       1.0  0.05060  0.67000  0.53700  1.0000
  Co  Co1       1.0  0.11600  0.09860  0.45800  1.0000
  Co  Co2       1.0  0.61600  0.90100  0.45800  1.0000
  Co  Co3       1.0  0.38400  0.09860  0.95800  1.0000
  Co  Co4       1.0  0.88400  0.90100  0.95800  1.0000
  O   O1        1.0  0.07230  0.12600  0.10400  1.0000
  O   O2        1.0  0.57200  0.87400  0.10400  1.0000
  O   O3        1.0  0.42800  0.12600  0.60400  1.0000
  O   O4        1.0  0.92800  0.87400  0.60400  1.0000
  Se  Se1       1.0  0.59000  0.36800  0.15100  1.0000
  Se  Se2       1.0  0.08970  0.63200  0.15100  1.0000
  Se  Se3       1.0  0.91000  0.36800  0.65100  1.0000
  Se  Se4       1.0  0.41000  0.63200  0.65100  1.0000
