data_image0
_chemical_formula_structural       Cu4Ho2
_chemical_formula_sum              "Cu4 Ho2"
_cell_length_a       4.25616
_cell_length_b       5.39805
_cell_length_c       5.39805
_cell_angle_alpha    95.2607
_cell_angle_beta     113.218
_cell_angle_gamma    66.782

_space_group_name_H-M_alt    "P 1"
_space_group_IT_number       1

loop_
  _space_group_symop_operation_xyz
  'x, y, z'

loop_
  _atom_site_type_symbol
  _atom_site_label
  _atom_site_symmetry_multiplicity
  _atom_site_fract_x
  _atom_site_fract_y
  _atom_site_fract_z
  _atom_site_occupancy
  Cu  Cu1       1.0  0.05320  0.11200  0.21800  1.0000
  Cu  Cu2       1.0  0.55300  0.28200  0.38800  1.0000
  Cu  Cu3       1.0  0.44700  0.71800  0.61200  1.0000
  Cu  Cu4       1.0  0.94700  0.88800  0.78200  1.0000
  Ho  Ho1       1.0  0.75000  0.70300  0.20300  1.0000
  Ho  Ho2       1.0  0.25000  0.29700  0.79700  1.0000
