data_image0
_chemical_formula_structural       Mn4Ni4O4Se4
_chemical_formula_sum              "Mn4 Ni4 O4 Se4"
_cell_length_a       5.77857
_cell_length_b       3.59334
_cell_length_c       11.779
_cell_angle_alpha    90
_cell_angle_beta     90
_cell_angle_gamma    90

_space_group_name_H-M_alt    "P 1"
_space_group_IT_number       1

loop_
  _space_group_symop_operation_xyz
  'x, y, z'

loop_
  _atom_site_type_symbol
  _atom_site_label
  _atom_site_symmetry_multiplicity
  _atom_site_fract_x
  _atom_site_fract_y
  _atom_site_fract_z
  _atom_site_occupancy
  Mn  Mn1       1.0  0.26200  0.75000  0.05250  1.0000
  Mn  Mn2       1.0  0.76200  0.75000  0.44700  1.0000
  Mn  Mn3       1.0  0.23800  0.25000  0.55300  1.0000
  Mn  Mn4       1.0  0.73800  0.25000  0.94700  1.0000
  Ni  Ni1       1.0  0.56800  0.25000  0.24800  1.0000
  Ni  Ni2       1.0  0.06770  0.25000  0.25200  1.0000
  Ni  Ni3       1.0  0.93200  0.75000  0.74800  1.0000
  Ni  Ni4       1.0  0.43200  0.75000  0.75200  1.0000
  O   O1        1.0  0.31800  0.25000  0.13400  1.0000
  O   O2        1.0  0.81800  0.25000  0.36600  1.0000
  O   O3        1.0  0.18200  0.75000  0.63400  1.0000
  O   O4        1.0  0.68200  0.75000  0.86600  1.0000
  Se  Se1       1.0  0.81200  0.75000  0.13300  1.0000
  Se  Se2       1.0  0.31200  0.75000  0.36700  1.0000
  Se  Se3       1.0  0.68800  0.25000  0.63300  1.0000
  Se  Se4       1.0  0.18800  0.25000  0.86700  1.0000
