data_image0
_chemical_formula_structural       Ge4O4Se4Sn4
_chemical_formula_sum              "Ge4 O4 Se4 Sn4"
_cell_length_a       5.85083
_cell_length_b       10.2762
_cell_length_c       5.83804
_cell_angle_alpha    90
_cell_angle_beta     90
_cell_angle_gamma    90

_space_group_name_H-M_alt    "P 1"
_space_group_IT_number       1

loop_
  _space_group_symop_operation_xyz
  'x, y, z'

loop_
  _atom_site_type_symbol
  _atom_site_label
  _atom_site_symmetry_multiplicity
  _atom_site_fract_x
  _atom_site_fract_y
  _atom_site_fract_z
  _atom_site_occupancy
  Ge  Ge1       1.0  0.12900  0.08720  0.42400  1.0000
  Ge  Ge2       1.0  0.62900  0.91300  0.42400  1.0000
  Ge  Ge3       1.0  0.37100  0.08720  0.92400  1.0000
  Ge  Ge4       1.0  0.87100  0.91300  0.92400  1.0000
  O   O1        1.0  0.62600  0.01320  0.07760  1.0000
  O   O2        1.0  0.12600  0.98700  0.07760  1.0000
  O   O3        1.0  0.87400  0.01320  0.57800  1.0000
  O   O4        1.0  0.37400  0.98700  0.57800  1.0000
  Se  Se1       1.0  0.49300  0.38100  0.13100  1.0000
  Se  Se2       1.0  0.99300  0.61900  0.13100  1.0000
  Se  Se3       1.0  0.00750  0.38100  0.63100  1.0000
  Se  Se4       1.0  0.50800  0.61900  0.63100  1.0000
  Sn  Sn1       1.0  0.99400  0.35000  0.11700  1.0000
  Sn  Sn2       1.0  0.49400  0.65000  0.11700  1.0000
  Sn  Sn3       1.0  0.50600  0.35000  0.61700  1.0000
  Sn  Sn4       1.0  0.00598  0.65000  0.61700  1.0000
