data_image0
_chemical_formula_structural       Ge4Hg4O4Se4
_chemical_formula_sum              "Ge4 Hg4 O4 Se4"
_cell_length_a       6.06538
_cell_length_b       9.55076
_cell_length_c       5.97516
_cell_angle_alpha    90
_cell_angle_beta     90
_cell_angle_gamma    90

_space_group_name_H-M_alt    "P 1"
_space_group_IT_number       1

loop_
  _space_group_symop_operation_xyz
  'x, y, z'

loop_
  _atom_site_type_symbol
  _atom_site_label
  _atom_site_symmetry_multiplicity
  _atom_site_fract_x
  _atom_site_fract_y
  _atom_site_fract_z
  _atom_site_occupancy
  Ge  Ge1       1.0  0.95800  0.31900  0.04640  1.0000
  Ge  Ge2       1.0  0.45800  0.68100  0.04640  1.0000
  Ge  Ge3       1.0  0.54200  0.31900  0.54600  1.0000
  Ge  Ge4       1.0  0.04220  0.68100  0.54600  1.0000
  Hg  Hg1       1.0  0.44600  0.09130  0.04100  1.0000
  Hg  Hg2       1.0  0.94600  0.90900  0.04100  1.0000
  Hg  Hg3       1.0  0.05410  0.09130  0.54100  1.0000
  Hg  Hg4       1.0  0.55400  0.90900  0.54100  1.0000
  O   O1        1.0  0.99900  0.12800  0.07330  1.0000
  O   O2        1.0  0.49900  0.87200  0.07330  1.0000
  O   O3        1.0  0.50100  0.12800  0.57300  1.0000
  O   O4        1.0  0.00050  0.87200  0.57300  1.0000
  Se  Se1       1.0  0.52400  0.34700  0.08920  1.0000
  Se  Se2       1.0  0.02440  0.65300  0.08920  1.0000
  Se  Se3       1.0  0.97600  0.34700  0.58900  1.0000
  Se  Se4       1.0  0.47600  0.65300  0.58900  1.0000
