data_image0
_chemical_formula_structural       Ni4O4Se4Sn4
_chemical_formula_sum              "Ni4 O4 Se4 Sn4"
_cell_length_a       5.78038
_cell_length_b       3.52065
_cell_length_c       15.5088
_cell_angle_alpha    90
_cell_angle_beta     90
_cell_angle_gamma    90

_space_group_name_H-M_alt    "P 1"
_space_group_IT_number       1

loop_
  _space_group_symop_operation_xyz
  'x, y, z'

loop_
  _atom_site_type_symbol
  _atom_site_label
  _atom_site_symmetry_multiplicity
  _atom_site_fract_x
  _atom_site_fract_y
  _atom_site_fract_z
  _atom_site_occupancy
  Ni  Ni1       1.0  0.29700  0.75000  0.01470  1.0000
  Ni  Ni2       1.0  0.79700  0.75000  0.48500  1.0000
  Ni  Ni3       1.0  0.20300  0.25000  0.51500  1.0000
  Ni  Ni4       1.0  0.70300  0.25000  0.98500  1.0000
  O   O1        1.0  0.42700  0.25000  0.06590  1.0000
  O   O2        1.0  0.92700  0.25000  0.43400  1.0000
  O   O3        1.0  0.07340  0.75000  0.56600  1.0000
  O   O4        1.0  0.57300  0.75000  0.93400  1.0000
  Se  Se1       1.0  0.91300  0.75000  0.09990  1.0000
  Se  Se2       1.0  0.41300  0.75000  0.40000  1.0000
  Se  Se3       1.0  0.58700  0.25000  0.60000  1.0000
  Se  Se4       1.0  0.08670  0.25000  0.90000  1.0000
  Sn  Sn1       1.0  0.62200  0.25000  0.18000  1.0000
  Sn  Sn2       1.0  0.12200  0.25000  0.32000  1.0000
  Sn  Sn3       1.0  0.87800  0.75000  0.68000  1.0000
  Sn  Sn4       1.0  0.37800  0.75000  0.82000  1.0000
