data_image0
_chemical_formula_structural       Cu4O4Se4Sn4
_chemical_formula_sum              "Cu4 O4 Se4 Sn4"
_cell_length_a       6.14184
_cell_length_b       3.70884
_cell_length_c       13.1164
_cell_angle_alpha    90
_cell_angle_beta     90
_cell_angle_gamma    90

_space_group_name_H-M_alt    "P 1"
_space_group_IT_number       1

loop_
  _space_group_symop_operation_xyz
  'x, y, z'

loop_
  _atom_site_type_symbol
  _atom_site_label
  _atom_site_symmetry_multiplicity
  _atom_site_fract_x
  _atom_site_fract_y
  _atom_site_fract_z
  _atom_site_occupancy
  Cu  Cu1       1.0  0.15000  0.75000  0.11400  1.0000
  Cu  Cu2       1.0  0.65000  0.75000  0.38600  1.0000
  Cu  Cu3       1.0  0.35000  0.25000  0.61400  1.0000
  Cu  Cu4       1.0  0.85000  0.25000  0.88600  1.0000
  O   O1        1.0  0.23600  0.25000  0.19400  1.0000
  O   O2        1.0  0.73600  0.25000  0.30600  1.0000
  O   O3        1.0  0.26400  0.75000  0.69400  1.0000
  O   O4        1.0  0.76400  0.75000  0.80600  1.0000
  Se  Se1       1.0  0.78800  0.75000  0.04610  1.0000
  Se  Se2       1.0  0.28800  0.75000  0.45400  1.0000
  Se  Se3       1.0  0.71200  0.25000  0.54600  1.0000
  Se  Se4       1.0  0.21200  0.25000  0.95400  1.0000
  Sn  Sn1       1.0  0.58200  0.25000  0.16300  1.0000
  Sn  Sn2       1.0  0.08190  0.25000  0.33700  1.0000
  Sn  Sn3       1.0  0.91800  0.75000  0.66300  1.0000
  Sn  Sn4       1.0  0.41800  0.75000  0.83700  1.0000
