data_image0
_chemical_formula_structural       Ir4Mg4Nd16
_chemical_formula_sum              "Ir4 Mg4 Nd16"
_cell_length_a       10.0123
_cell_length_b       10.0123
_cell_length_c       10.0123
_cell_angle_alpha    120
_cell_angle_beta     90
_cell_angle_gamma    120

_space_group_name_H-M_alt    "P 1"
_space_group_IT_number       1

loop_
  _space_group_symop_operation_xyz
  'x, y, z'

loop_
  _atom_site_type_symbol
  _atom_site_label
  _atom_site_symmetry_multiplicity
  _atom_site_fract_x
  _atom_site_fract_y
  _atom_site_fract_z
  _atom_site_occupancy
  Ir  Ir1       1.0  0.42400  0.28300  0.14100  1.0000
  Ir  Ir2       1.0  0.85900  0.28300  0.14100  1.0000
  Ir  Ir3       1.0  0.85900  0.71700  0.14100  1.0000
  Ir  Ir4       1.0  0.85900  0.71700  0.57600  1.0000
  Mg  Mg1       1.0  0.42100  0.84300  0.26400  1.0000
  Mg  Mg2       1.0  0.73600  0.15700  0.57900  1.0000
  Mg  Mg3       1.0  0.42100  0.15700  0.57900  1.0000
  Mg  Mg4       1.0  0.42100  0.84300  0.57900  1.0000
  Nd  Nd1       1.0  0.81200  0.00000  0.18800  1.0000
  Nd  Nd2       1.0  0.18800  0.00000  0.18800  1.0000
  Nd  Nd3       1.0  0.18800  0.37700  0.18800  1.0000
  Nd  Nd4       1.0  0.65400  0.30700  0.34600  1.0000
  Nd  Nd5       1.0  0.03880  0.69300  0.34600  1.0000
  Nd  Nd6       1.0  0.65400  0.69300  0.34600  1.0000
  Nd  Nd7       1.0  0.06210  0.12400  0.56200  1.0000
  Nd  Nd8       1.0  0.06210  0.50000  0.56200  1.0000
  Nd  Nd9       1.0  0.43800  0.50000  0.56200  1.0000
  Nd  Nd10      1.0  0.18800  0.00000  0.81200  1.0000
  Nd  Nd11      1.0  0.81200  0.00000  0.81200  1.0000
  Nd  Nd12      1.0  0.81200  0.62300  0.81200  1.0000
  Nd  Nd13      1.0  0.06210  0.50000  0.93800  1.0000
  Nd  Nd14      1.0  0.43800  0.50000  0.93800  1.0000
  Nd  Nd15      1.0  0.43800  0.87600  0.93800  1.0000
  Nd  Nd16      1.0  0.65400  0.30700  0.96100  1.0000
