data_image0
_chemical_formula_structural       H24Ir4Li4Mg4
_chemical_formula_sum              "H24 Ir4 Li4 Mg4"
_cell_length_a       6.54827
_cell_length_b       6.54827
_cell_length_c       6.54827
_cell_angle_alpha    90
_cell_angle_beta     90
_cell_angle_gamma    90

_space_group_name_H-M_alt    "P 1"
_space_group_IT_number       1

loop_
  _space_group_symop_operation_xyz
  'x, y, z'

loop_
  _atom_site_type_symbol
  _atom_site_label
  _atom_site_symmetry_multiplicity
  _atom_site_fract_x
  _atom_site_fract_y
  _atom_site_fract_z
  _atom_site_occupancy
  H   H1        1.0  0.25200  0.25200  0.01060  1.0000
  H   H2        1.0  0.74800  0.74800  0.01060  1.0000
  H   H3        1.0  0.50200  0.25000  0.25000  1.0000
  H   H4        1.0  0.75000  0.49800  0.25000  1.0000
  H   H5        1.0  0.25000  0.50200  0.25000  1.0000
  H   H6        1.0  0.49800  0.75000  0.25000  1.0000
  H   H7        1.0  0.25200  0.01060  0.25200  1.0000
  H   H8        1.0  0.01060  0.25200  0.25200  1.0000
  H   H9        1.0  0.98900  0.74800  0.25200  1.0000
  H   H10       1.0  0.74800  0.98900  0.25200  1.0000
  H   H11       1.0  0.75000  0.25000  0.49800  1.0000
  H   H12       1.0  0.25000  0.75000  0.49800  1.0000
  H   H13       1.0  0.25000  0.25000  0.50200  1.0000
  H   H14       1.0  0.75000  0.75000  0.50200  1.0000
  H   H15       1.0  0.74800  0.01060  0.74800  1.0000
  H   H16       1.0  0.98900  0.25200  0.74800  1.0000
  H   H17       1.0  0.01060  0.74800  0.74800  1.0000
  H   H18       1.0  0.25200  0.98900  0.74800  1.0000
  H   H19       1.0  0.49800  0.25000  0.75000  1.0000
  H   H20       1.0  0.25000  0.49800  0.75000  1.0000
  H   H21       1.0  0.75000  0.50200  0.75000  1.0000
  H   H22       1.0  0.50200  0.75000  0.75000  1.0000
  H   H23       1.0  0.74800  0.25200  0.98900  1.0000
  H   H24       1.0  0.25200  0.74800  0.98900  1.0000
  Ir  Ir1       1.0  0.75600  0.24400  0.24400  1.0000
  Ir  Ir2       1.0  0.24400  0.75600  0.24400  1.0000
  Ir  Ir3       1.0  0.24400  0.24400  0.75600  1.0000
  Ir  Ir4       1.0  0.75600  0.75600  0.75600  1.0000
  Li  Li1       1.0  0.50000  0.50000  0.00000  1.0000
  Li  Li2       1.0  0.50000  0.00000  0.50000  1.0000
  Li  Li3       1.0  0.00000  0.50000  0.50000  1.0000
  Li  Li4       1.0  0.50000  0.50000  0.50000  1.0000
  Mg  Mg1       1.0  0.00000  0.00000  0.00000  1.0000
  Mg  Mg2       1.0  0.50000  0.00000  0.00000  1.0000
  Mg  Mg3       1.0  0.00000  0.50000  0.00000  1.0000
  Mg  Mg4       1.0  0.00000  0.00000  0.50000  1.0000
