data_image0
_chemical_formula_structural       Be4O4Pd4Te4
_chemical_formula_sum              "Be4 O4 Pd4 Te4"
_cell_length_a       4.75738
_cell_length_b       8.48283
_cell_length_c       6.95695
_cell_angle_alpha    90
_cell_angle_beta     90
_cell_angle_gamma    90

_space_group_name_H-M_alt    "P 1"
_space_group_IT_number       1

loop_
  _space_group_symop_operation_xyz
  'x, y, z'

loop_
  _atom_site_type_symbol
  _atom_site_label
  _atom_site_symmetry_multiplicity
  _atom_site_fract_x
  _atom_site_fract_y
  _atom_site_fract_z
  _atom_site_occupancy
  Be  Be1       1.0  0.22000  0.19700  0.04610  1.0000
  Be  Be2       1.0  0.78000  0.69700  0.45400  1.0000
  Be  Be3       1.0  0.28000  0.80300  0.54600  1.0000
  Be  Be4       1.0  0.72000  0.30300  0.95400  1.0000
  O   O1        1.0  0.51900  0.22900  0.09450  1.0000
  O   O2        1.0  0.48100  0.72900  0.40600  1.0000
  O   O3        1.0  0.98100  0.77100  0.59400  1.0000
  O   O4        1.0  0.01950  0.27100  0.90600  1.0000
  Pd  Pd1       1.0  0.27200  0.68600  0.12600  1.0000
  Pd  Pd2       1.0  0.72800  0.18600  0.37400  1.0000
  Pd  Pd3       1.0  0.22800  0.31400  0.62600  1.0000
  Pd  Pd4       1.0  0.77200  0.81400  0.87400  1.0000
  Te  Te1       1.0  0.97400  0.95700  0.16900  1.0000
  Te  Te2       1.0  0.02640  0.45700  0.33100  1.0000
  Te  Te3       1.0  0.52600  0.04310  0.66900  1.0000
  Te  Te4       1.0  0.47400  0.54300  0.83100  1.0000
