data_image0
_chemical_formula_structural       Ge2Ho2Sn2
_chemical_formula_sum              "Ge2 Ho2 Sn2"
_cell_length_a       4.05017
_cell_length_b       4.28248
_cell_length_c       8.4176
_cell_angle_alpha    75.2634
_cell_angle_beta     90
_cell_angle_gamma    90

_space_group_name_H-M_alt    "P 1"
_space_group_IT_number       1

loop_
  _space_group_symop_operation_xyz
  'x, y, z'

loop_
  _atom_site_type_symbol
  _atom_site_label
  _atom_site_symmetry_multiplicity
  _atom_site_fract_x
  _atom_site_fract_y
  _atom_site_fract_z
  _atom_site_occupancy
  Ge  Ge1       1.0  0.75000  0.44600  0.10800  1.0000
  Ge  Ge2       1.0  0.25000  0.55400  0.89200  1.0000
  Ho  Ho1       1.0  0.25000  0.90600  0.18900  1.0000
  Ho  Ho2       1.0  0.75000  0.09430  0.81100  1.0000
  Sn  Sn1       1.0  0.25000  0.25600  0.48900  1.0000
  Sn  Sn2       1.0  0.75000  0.74400  0.51100  1.0000
