data_image0
_chemical_formula_structural       Fe4O4Pt4Se4
_chemical_formula_sum              "Fe4 O4 Pt4 Se4"
_cell_length_a       7.25761
_cell_length_b       6.5817
_cell_length_c       5.5263
_cell_angle_alpha    90
_cell_angle_beta     90
_cell_angle_gamma    90

_space_group_name_H-M_alt    "P 1"
_space_group_IT_number       1

loop_
  _space_group_symop_operation_xyz
  'x, y, z'

loop_
  _atom_site_type_symbol
  _atom_site_label
  _atom_site_symmetry_multiplicity
  _atom_site_fract_x
  _atom_site_fract_y
  _atom_site_fract_z
  _atom_site_occupancy
  Fe  Fe1       1.0  0.81100  0.00798  0.11900  1.0000
  Fe  Fe2       1.0  0.31100  0.99200  0.11900  1.0000
  Fe  Fe3       1.0  0.68900  0.00798  0.61900  1.0000
  Fe  Fe4       1.0  0.18900  0.99200  0.61900  1.0000
  O   O1        1.0  0.68800  0.18000  0.34800  1.0000
  O   O2        1.0  0.18800  0.82000  0.34800  1.0000
  O   O3        1.0  0.81200  0.18000  0.84800  1.0000
  O   O4        1.0  0.31200  0.82000  0.84800  1.0000
  Pt  Pt1       1.0  0.42700  0.29900  0.38600  1.0000
  Pt  Pt2       1.0  0.92700  0.70100  0.38600  1.0000
  Pt  Pt3       1.0  0.07330  0.29900  0.88600  1.0000
  Pt  Pt4       1.0  0.57300  0.70100  0.88600  1.0000
  Se  Se1       1.0  0.09650  0.34000  0.39600  1.0000
  Se  Se2       1.0  0.59600  0.66000  0.39600  1.0000
  Se  Se3       1.0  0.40400  0.34000  0.89600  1.0000
  Se  Se4       1.0  0.90400  0.66000  0.89600  1.0000
