data_image0
_chemical_formula_structural       H2O8Si2Sm2
_chemical_formula_sum              "H2 O8 Si2 Sm2"
_cell_length_a       4.94606
_cell_length_b       6.71053
_cell_length_c       4.53027
_cell_angle_alpha    90
_cell_angle_beta     96.9577
_cell_angle_gamma    90

_space_group_name_H-M_alt    "P 1"
_space_group_IT_number       1

loop_
  _space_group_symop_operation_xyz
  'x, y, z'

loop_
  _atom_site_type_symbol
  _atom_site_label
  _atom_site_symmetry_multiplicity
  _atom_site_fract_x
  _atom_site_fract_y
  _atom_site_fract_z
  _atom_site_occupancy
  H   H1        1.0  0.00000  0.00000  0.50000  1.0000
  H   H2        1.0  0.00000  0.50000  0.50000  1.0000
  O   O1        1.0  0.69800  0.25000  0.20400  1.0000
  O   O2        1.0  0.11400  0.55900  0.29300  1.0000
  O   O3        1.0  0.11400  0.94100  0.29300  1.0000
  O   O4        1.0  0.61400  0.75000  0.37200  1.0000
  O   O5        1.0  0.38600  0.25000  0.62800  1.0000
  O   O6        1.0  0.88600  0.05900  0.70700  1.0000
  O   O7        1.0  0.88600  0.44100  0.70700  1.0000
  O   O8        1.0  0.30200  0.75000  0.79600  1.0000
  Si  Si1       1.0  0.30300  0.75000  0.43800  1.0000
  Si  Si2       1.0  0.69700  0.25000  0.56200  1.0000
  Sm  Sm1       1.0  0.20500  0.25000  0.07010  1.0000
  Sm  Sm2       1.0  0.79500  0.75000  0.93000  1.0000
