data_image0
_chemical_formula_structural       Ge2H4O8Pm2
_chemical_formula_sum              "Ge2 H4 O8 Pm2"
_cell_length_a       6.36249
_cell_length_b       6.36249
_cell_length_c       6.36249
_cell_angle_alpha    114.616
_cell_angle_beta     99.6095
_cell_angle_gamma    114.616

_space_group_name_H-M_alt    "P 1"
_space_group_IT_number       1

loop_
  _space_group_symop_operation_xyz
  'x, y, z'

loop_
  _atom_site_type_symbol
  _atom_site_label
  _atom_site_symmetry_multiplicity
  _atom_site_fract_x
  _atom_site_fract_y
  _atom_site_fract_z
  _atom_site_occupancy
  Ge  Ge1       1.0  0.00000  0.00000  0.00000  1.0000
  Ge  Ge2       1.0  0.75000  0.50000  0.25000  1.0000
  H   H1        1.0  0.52300  0.50000  0.02270  1.0000
  H   H2        1.0  0.22700  0.00000  0.22700  1.0000
  H   H3        1.0  0.97700  0.50000  0.47700  1.0000
  H   H4        1.0  0.77300  0.00000  0.77300  1.0000
  O   O1        1.0  0.19100  0.82200  0.02730  1.0000
  O   O2        1.0  0.54500  0.66300  0.22300  1.0000
  O   O3        1.0  0.20500  0.17800  0.36800  1.0000
  O   O4        1.0  0.77700  0.32200  0.44100  1.0000
  O   O5        1.0  0.11800  0.67800  0.45500  1.0000
  O   O6        1.0  0.97300  0.16300  0.79500  1.0000
  O   O7        1.0  0.63200  0.83700  0.80900  1.0000
  O   O8        1.0  0.55900  0.33700  0.88200  1.0000
  Pm  Pm1       1.0  0.50000  0.00000  0.50000  1.0000
  Pm  Pm2       1.0  0.25000  0.50000  0.75000  1.0000
