data_image0
_chemical_formula_structural       Ge2H4O8Sm2
_chemical_formula_sum              "Ge2 H4 O8 Sm2"
_cell_length_a       6.94884
_cell_length_b       6.29042
_cell_length_c       4.99694
_cell_angle_alpha    90
_cell_angle_beta     121.321
_cell_angle_gamma    90

_space_group_name_H-M_alt    "P 1"
_space_group_IT_number       1

loop_
  _space_group_symop_operation_xyz
  'x, y, z'

loop_
  _atom_site_type_symbol
  _atom_site_label
  _atom_site_symmetry_multiplicity
  _atom_site_fract_x
  _atom_site_fract_y
  _atom_site_fract_z
  _atom_site_occupancy
  Ge  Ge1       1.0  0.71700  0.25000  0.41000  1.0000
  Ge  Ge2       1.0  0.28300  0.75000  0.59000  1.0000
  H   H1        1.0  0.50300  0.75000  0.17400  1.0000
  H   H2        1.0  0.00000  0.00000  0.50000  1.0000
  H   H3        1.0  0.00000  0.50000  0.50000  1.0000
  H   H4        1.0  0.49700  0.25000  0.82600  1.0000
  O   O1        1.0  0.55200  0.75000  0.01070  1.0000
  O   O2        1.0  0.06640  0.52600  0.32300  1.0000
  O   O3        1.0  0.06640  0.97400  0.32300  1.0000
  O   O4        1.0  0.46200  0.75000  0.43400  1.0000
  O   O5        1.0  0.53800  0.25000  0.56600  1.0000
  O   O6        1.0  0.93400  0.02640  0.67700  1.0000
  O   O7        1.0  0.93400  0.47400  0.67700  1.0000
  O   O8        1.0  0.44800  0.25000  0.98900  1.0000
  Sm  Sm1       1.0  0.18300  0.25000  0.13100  1.0000
  Sm  Sm2       1.0  0.81700  0.75000  0.86900  1.0000
