data_image0
_chemical_formula_structural       Mg4O20Se8
_chemical_formula_sum              "Mg4 O20 Se8"
_cell_length_a       6.78568
_cell_length_b       10.3405
_cell_length_c       5.97081
_cell_angle_alpha    90
_cell_angle_beta     90
_cell_angle_gamma    90

_space_group_name_H-M_alt    "P 1"
_space_group_IT_number       1

loop_
  _space_group_symop_operation_xyz
  'x, y, z'

loop_
  _atom_site_type_symbol
  _atom_site_label
  _atom_site_symmetry_multiplicity
  _atom_site_fract_x
  _atom_site_fract_y
  _atom_site_fract_z
  _atom_site_occupancy
  Mg  Mg1       1.0  0.00000  0.44100  0.25000  1.0000
  Mg  Mg2       1.0  0.50000  0.94100  0.25000  1.0000
  Mg  Mg3       1.0  0.50000  0.05890  0.75000  1.0000
  Mg  Mg4       1.0  0.00000  0.55900  0.75000  1.0000
  O   O1        1.0  0.34500  0.06700  0.04600  1.0000
  O   O2        1.0  0.15500  0.56700  0.04600  1.0000
  O   O3        1.0  0.19500  0.29400  0.15800  1.0000
  O   O4        1.0  0.30500  0.79400  0.15800  1.0000
  O   O5        1.0  0.00000  0.06540  0.25000  1.0000
  O   O6        1.0  0.50000  0.56500  0.25000  1.0000
  O   O7        1.0  0.80500  0.29400  0.34200  1.0000
  O   O8        1.0  0.69500  0.79400  0.34200  1.0000
  O   O9        1.0  0.65500  0.06700  0.45400  1.0000
  O   O10       1.0  0.84500  0.56700  0.45400  1.0000
  O   O11       1.0  0.15500  0.43300  0.54600  1.0000
  O   O12       1.0  0.34500  0.93300  0.54600  1.0000
  O   O13       1.0  0.30500  0.20600  0.65800  1.0000
  O   O14       1.0  0.19500  0.70600  0.65800  1.0000
  O   O15       1.0  0.50000  0.43500  0.75000  1.0000
  O   O16       1.0  0.00000  0.93500  0.75000  1.0000
  O   O17       1.0  0.69500  0.20600  0.84200  1.0000
  O   O18       1.0  0.80500  0.70600  0.84200  1.0000
  O   O19       1.0  0.84500  0.43300  0.95400  1.0000
  O   O20       1.0  0.65500  0.93300  0.95400  1.0000
  Se  Se1       1.0  0.13200  0.15500  0.02500  1.0000
  Se  Se2       1.0  0.36800  0.65500  0.02500  1.0000
  Se  Se3       1.0  0.86800  0.15500  0.47500  1.0000
  Se  Se4       1.0  0.63200  0.65500  0.47500  1.0000
  Se  Se5       1.0  0.36800  0.34500  0.52500  1.0000
  Se  Se6       1.0  0.13200  0.84500  0.52500  1.0000
  Se  Se7       1.0  0.63200  0.34500  0.97500  1.0000
  Se  Se8       1.0  0.86800  0.84500  0.97500  1.0000
