data_image0
_chemical_formula_structural       Mg2O2Pb2Te2
_chemical_formula_sum              "Mg2 O2 Pb2 Te2"
_cell_length_a       4.3022
_cell_length_b       6.22451
_cell_length_c       7.10239
_cell_angle_alpha    90
_cell_angle_beta     72.3699
_cell_angle_gamma    90

_space_group_name_H-M_alt    "P 1"
_space_group_IT_number       1

loop_
  _space_group_symop_operation_xyz
  'x, y, z'

loop_
  _atom_site_type_symbol
  _atom_site_label
  _atom_site_symmetry_multiplicity
  _atom_site_fract_x
  _atom_site_fract_y
  _atom_site_fract_z
  _atom_site_occupancy
  Mg  Mg1       1.0  0.92000  0.25000  0.16000  1.0000
  Mg  Mg2       1.0  0.08020  0.75000  0.84000  1.0000
  O   O1        1.0  0.00000  0.00000  0.00000  1.0000
  O   O2        1.0  0.00000  0.50000  0.00000  1.0000
  Pb  Pb1       1.0  0.39200  0.75000  0.21600  1.0000
  Pb  Pb2       1.0  0.60800  0.25000  0.78400  1.0000
  Te  Te1       1.0  0.28900  0.25000  0.42100  1.0000
  Te  Te2       1.0  0.71100  0.75000  0.57900  1.0000
