data_image0
_chemical_formula_structural       Ge2H4O8Y2
_chemical_formula_sum              "Ge2 H4 O8 Y2"
_cell_length_a       6.84363
_cell_length_b       6.21808
_cell_length_c       4.96321
_cell_angle_alpha    90
_cell_angle_beta     121.512
_cell_angle_gamma    90

_space_group_name_H-M_alt    "P 1"
_space_group_IT_number       1

loop_
  _space_group_symop_operation_xyz
  'x, y, z'

loop_
  _atom_site_type_symbol
  _atom_site_label
  _atom_site_symmetry_multiplicity
  _atom_site_fract_x
  _atom_site_fract_y
  _atom_site_fract_z
  _atom_site_occupancy
  Ge  Ge1       1.0  0.71000  0.25000  0.40800  1.0000
  Ge  Ge2       1.0  0.29000  0.75000  0.59200  1.0000
  H   H1        1.0  0.51500  0.75000  0.18100  1.0000
  H   H2        1.0  0.00000  0.00000  0.50000  1.0000
  H   H3        1.0  0.00000  0.50000  0.50000  1.0000
  H   H4        1.0  0.48500  0.25000  0.81900  1.0000
  O   O1        1.0  0.56300  0.75000  0.01450  1.0000
  O   O2        1.0  0.06570  0.52500  0.31900  1.0000
  O   O3        1.0  0.06570  0.97500  0.31900  1.0000
  O   O4        1.0  0.47500  0.75000  0.44100  1.0000
  O   O5        1.0  0.52500  0.25000  0.55900  1.0000
  O   O6        1.0  0.93400  0.02530  0.68100  1.0000
  O   O7        1.0  0.93400  0.47500  0.68100  1.0000
  O   O8        1.0  0.43700  0.25000  0.98600  1.0000
  Y   Y1        1.0  0.17600  0.25000  0.12500  1.0000
  Y   Y2        1.0  0.82400  0.75000  0.87500  1.0000
