data_image0
_chemical_formula_structural       O4Pt4Se4Sr4
_chemical_formula_sum              "O4 Pt4 Se4 Sr4"
_cell_length_a       7.11872
_cell_length_b       7.81359
_cell_length_c       5.99043
_cell_angle_alpha    90
_cell_angle_beta     90
_cell_angle_gamma    90

_space_group_name_H-M_alt    "P 1"
_space_group_IT_number       1

loop_
  _space_group_symop_operation_xyz
  'x, y, z'

loop_
  _atom_site_type_symbol
  _atom_site_label
  _atom_site_symmetry_multiplicity
  _atom_site_fract_x
  _atom_site_fract_y
  _atom_site_fract_z
  _atom_site_occupancy
  O   O1        1.0  0.09020  0.10300  0.08540  1.0000
  O   O2        1.0  0.59000  0.89700  0.08540  1.0000
  O   O3        1.0  0.41000  0.10300  0.58500  1.0000
  O   O4        1.0  0.91000  0.89700  0.58500  1.0000
  Pt  Pt1       1.0  0.59200  0.29200  0.50000  1.0000
  Pt  Pt2       1.0  0.09210  0.70800  0.50000  1.0000
  Pt  Pt3       1.0  0.90800  0.29200  0.00000  1.0000
  Pt  Pt4       1.0  0.40800  0.70800  0.00000  1.0000
  Se  Se1       1.0  0.66500  0.46800  0.17300  1.0000
  Se  Se2       1.0  0.16500  0.53200  0.17300  1.0000
  Se  Se3       1.0  0.83500  0.46800  0.67300  1.0000
  Se  Se4       1.0  0.33500  0.53200  0.67300  1.0000
  Sr  Sr1       1.0  0.07900  0.15600  0.49200  1.0000
  Sr  Sr2       1.0  0.57900  0.84400  0.49200  1.0000
  Sr  Sr3       1.0  0.42100  0.15600  0.99200  1.0000
  Sr  Sr4       1.0  0.92100  0.84400  0.99200  1.0000
