data_image0
_chemical_formula_structural       Cd4Mn4O4Te4
_chemical_formula_sum              "Cd4 Mn4 O4 Te4"
_cell_length_a       6.266
_cell_length_b       3.95815
_cell_length_c       13.088
_cell_angle_alpha    90
_cell_angle_beta     90
_cell_angle_gamma    90

_space_group_name_H-M_alt    "P 1"
_space_group_IT_number       1

loop_
  _space_group_symop_operation_xyz
  'x, y, z'

loop_
  _atom_site_type_symbol
  _atom_site_label
  _atom_site_symmetry_multiplicity
  _atom_site_fract_x
  _atom_site_fract_y
  _atom_site_fract_z
  _atom_site_occupancy
  Cd  Cd1       1.0  0.25600  0.75000  0.06240  1.0000
  Cd  Cd2       1.0  0.75600  0.75000  0.43800  1.0000
  Cd  Cd3       1.0  0.24400  0.25000  0.56200  1.0000
  Cd  Cd4       1.0  0.74400  0.25000  0.93800  1.0000
  Mn  Mn1       1.0  0.51600  0.25000  0.24800  1.0000
  Mn  Mn2       1.0  0.01550  0.25000  0.25200  1.0000
  Mn  Mn3       1.0  0.98400  0.75000  0.74800  1.0000
  Mn  Mn4       1.0  0.48400  0.75000  0.75200  1.0000
  O   O1        1.0  0.26200  0.25000  0.15600  1.0000
  O   O2        1.0  0.76200  0.25000  0.34400  1.0000
  O   O3        1.0  0.23800  0.75000  0.65600  1.0000
  O   O4        1.0  0.73800  0.75000  0.84400  1.0000
  Te  Te1       1.0  0.76000  0.75000  0.11200  1.0000
  Te  Te2       1.0  0.26000  0.75000  0.38800  1.0000
  Te  Te3       1.0  0.74000  0.25000  0.61200  1.0000
  Te  Te4       1.0  0.24000  0.25000  0.88800  1.0000
