data_image0
_chemical_formula_structural       Cs6H2Mo4O16
_chemical_formula_sum              "Cs6 H2 Mo4 O16"
_cell_length_a       6.45776
_cell_length_b       8.74166
_cell_length_c       10.9851
_cell_angle_alpha    101.947
_cell_angle_beta     90
_cell_angle_gamma    111.677

_space_group_name_H-M_alt    "P 1"
_space_group_IT_number       1

loop_
  _space_group_symop_operation_xyz
  'x, y, z'

loop_
  _atom_site_type_symbol
  _atom_site_label
  _atom_site_symmetry_multiplicity
  _atom_site_fract_x
  _atom_site_fract_y
  _atom_site_fract_z
  _atom_site_occupancy
  Cs  Cs1       1.0  0.45700  0.38800  0.14900  1.0000
  Cs  Cs2       1.0  0.76200  0.00000  0.25000  1.0000
  Cs  Cs3       1.0  0.06900  0.61200  0.35100  1.0000
  Cs  Cs4       1.0  0.93100  0.38800  0.64900  1.0000
  Cs  Cs5       1.0  0.23800  0.00000  0.75000  1.0000
  Cs  Cs6       1.0  0.54300  0.61200  0.85100  1.0000
  H   H1        1.0  0.00000  0.00000  0.00000  1.0000
  H   H2        1.0  0.00000  0.00000  0.50000  1.0000
  Mo  Mo1       1.0  0.11400  0.76900  0.03940  1.0000
  Mo  Mo2       1.0  0.34500  0.23100  0.46100  1.0000
  Mo  Mo3       1.0  0.65500  0.76900  0.53900  1.0000
  Mo  Mo4       1.0  0.88600  0.23100  0.96100  1.0000
  O   O1        1.0  0.16000  0.99500  0.05600  1.0000
  O   O2        1.0  0.85800  0.67500  0.10300  1.0000
  O   O3        1.0  0.33400  0.74000  0.11600  1.0000
  O   O4        1.0  0.91100  0.32100  0.12300  1.0000
  O   O5        1.0  0.59000  0.67900  0.37700  1.0000
  O   O6        1.0  0.59400  0.26000  0.38400  1.0000
  O   O7        1.0  0.18300  0.32500  0.39700  1.0000
  O   O8        1.0  0.16500  0.00474  0.44400  1.0000
  O   O9        1.0  0.83500  0.99500  0.55600  1.0000
  O   O10       1.0  0.81700  0.67500  0.60300  1.0000
  O   O11       1.0  0.40600  0.74000  0.61600  1.0000
  O   O12       1.0  0.41000  0.32100  0.62300  1.0000
  O   O13       1.0  0.08890  0.67900  0.87700  1.0000
  O   O14       1.0  0.66600  0.26000  0.88400  1.0000
  O   O15       1.0  0.14200  0.32500  0.89700  1.0000
  O   O16       1.0  0.84000  0.00474  0.94400  1.0000
