data_image0
_chemical_formula_structural       Ba4Ge4O4Te4
_chemical_formula_sum              "Ba4 Ge4 O4 Te4"
_cell_length_a       8.33948
_cell_length_b       8.82306
_cell_length_c       6.74262
_cell_angle_alpha    90
_cell_angle_beta     90
_cell_angle_gamma    90

_space_group_name_H-M_alt    "P 1"
_space_group_IT_number       1

loop_
  _space_group_symop_operation_xyz
  'x, y, z'

loop_
  _atom_site_type_symbol
  _atom_site_label
  _atom_site_symmetry_multiplicity
  _atom_site_fract_x
  _atom_site_fract_y
  _atom_site_fract_z
  _atom_site_occupancy
  Ba  Ba1       1.0  0.71500  0.74200  0.04720  1.0000
  Ba  Ba2       1.0  0.28500  0.24200  0.45300  1.0000
  Ba  Ba3       1.0  0.78500  0.25800  0.54700  1.0000
  Ba  Ba4       1.0  0.21500  0.75800  0.95300  1.0000
  Ge  Ge1       1.0  0.64100  0.24100  0.02100  1.0000
  Ge  Ge2       1.0  0.35900  0.74100  0.47900  1.0000
  Ge  Ge3       1.0  0.85900  0.75900  0.52100  1.0000
  Ge  Ge4       1.0  0.14100  0.25900  0.97900  1.0000
  O   O1        1.0  0.44700  0.74300  0.24600  1.0000
  O   O2        1.0  0.55300  0.24300  0.25400  1.0000
  O   O3        1.0  0.05350  0.25700  0.74600  1.0000
  O   O4        1.0  0.94700  0.75700  0.75400  1.0000
  Te  Te1       1.0  0.99100  0.00559  0.24500  1.0000
  Te  Te2       1.0  0.00876  0.50600  0.25500  1.0000
  Te  Te3       1.0  0.50900  0.99400  0.74500  1.0000
  Te  Te4       1.0  0.49100  0.49400  0.75500  1.0000
