data_image0
_chemical_formula_structural       Ca4Co4O4Te4
_chemical_formula_sum              "Ca4 Co4 O4 Te4"
_cell_length_a       6.21976
_cell_length_b       4.03421
_cell_length_c       13.4493
_cell_angle_alpha    90
_cell_angle_beta     90
_cell_angle_gamma    90

_space_group_name_H-M_alt    "P 1"
_space_group_IT_number       1

loop_
  _space_group_symop_operation_xyz
  'x, y, z'

loop_
  _atom_site_type_symbol
  _atom_site_label
  _atom_site_symmetry_multiplicity
  _atom_site_fract_x
  _atom_site_fract_y
  _atom_site_fract_z
  _atom_site_occupancy
  Ca  Ca1       1.0  0.26300  0.75000  0.09700  1.0000
  Ca  Ca2       1.0  0.76300  0.75000  0.40300  1.0000
  Ca  Ca3       1.0  0.23700  0.25000  0.59700  1.0000
  Ca  Ca4       1.0  0.73700  0.25000  0.90300  1.0000
  Co  Co1       1.0  0.60200  0.25000  0.20800  1.0000
  Co  Co2       1.0  0.10200  0.25000  0.29200  1.0000
  Co  Co3       1.0  0.89800  0.75000  0.70800  1.0000
  Co  Co4       1.0  0.39800  0.75000  0.79200  1.0000
  O   O1        1.0  0.29000  0.25000  0.17700  1.0000
  O   O2        1.0  0.79000  0.25000  0.32300  1.0000
  O   O3        1.0  0.21000  0.75000  0.67700  1.0000
  O   O4        1.0  0.71000  0.75000  0.82300  1.0000
  Te  Te1       1.0  0.76300  0.75000  0.10000  1.0000
  Te  Te2       1.0  0.26300  0.75000  0.40000  1.0000
  Te  Te3       1.0  0.73700  0.25000  0.60000  1.0000
  Te  Te4       1.0  0.23700  0.25000  0.90000  1.0000
