data_image0
_chemical_formula_structural       Cd2Fe2O2Te2
_chemical_formula_sum              "Cd2 Fe2 O2 Te2"
_cell_length_a       3.87537
_cell_length_b       6.06379
_cell_length_c       7.11386
_cell_angle_alpha    90
_cell_angle_beta     74.1939
_cell_angle_gamma    90

_space_group_name_H-M_alt    "P 1"
_space_group_IT_number       1

loop_
  _space_group_symop_operation_xyz
  'x, y, z'

loop_
  _atom_site_type_symbol
  _atom_site_label
  _atom_site_symmetry_multiplicity
  _atom_site_fract_x
  _atom_site_fract_y
  _atom_site_fract_z
  _atom_site_occupancy
  Cd  Cd1       1.0  0.39700  0.75000  0.20700  1.0000
  Cd  Cd2       1.0  0.60300  0.25000  0.79300  1.0000
  Fe  Fe1       1.0  0.91700  0.25000  0.16600  1.0000
  Fe  Fe2       1.0  0.08280  0.75000  0.83400  1.0000
  O   O1        1.0  0.00000  0.00000  0.00000  1.0000
  O   O2        1.0  0.00000  0.50000  0.00000  1.0000
  Te  Te1       1.0  0.28500  0.25000  0.43000  1.0000
  Te  Te2       1.0  0.71500  0.75000  0.57000  1.0000
