data_image0
_chemical_formula_structural       Be4Fe4O4Te4
_chemical_formula_sum              "Be4 Fe4 O4 Te4"
_cell_length_a       4.90992
_cell_length_b       8.06305
_cell_length_c       7.59884
_cell_angle_alpha    90
_cell_angle_beta     90
_cell_angle_gamma    90

_space_group_name_H-M_alt    "P 1"
_space_group_IT_number       1

loop_
  _space_group_symop_operation_xyz
  'x, y, z'

loop_
  _atom_site_type_symbol
  _atom_site_label
  _atom_site_symmetry_multiplicity
  _atom_site_fract_x
  _atom_site_fract_y
  _atom_site_fract_z
  _atom_site_occupancy
  Be  Be1       1.0  0.20600  0.18200  0.03440  1.0000
  Be  Be2       1.0  0.79400  0.68200  0.46600  1.0000
  Be  Be3       1.0  0.29400  0.81800  0.53400  1.0000
  Be  Be4       1.0  0.70600  0.31800  0.96600  1.0000
  Fe  Fe1       1.0  0.34500  0.64700  0.19900  1.0000
  Fe  Fe2       1.0  0.65500  0.14700  0.30100  1.0000
  Fe  Fe3       1.0  0.15500  0.35300  0.69900  1.0000
  Fe  Fe4       1.0  0.84500  0.85300  0.80100  1.0000
  O   O1        1.0  0.50000  0.22200  0.07810  1.0000
  O   O2        1.0  0.50000  0.72200  0.42200  1.0000
  O   O3        1.0  0.00000  0.77800  0.57800  1.0000
  O   O4        1.0  0.00013  0.27800  0.92200  1.0000
  Te  Te1       1.0  0.00525  0.92000  0.13500  1.0000
  Te  Te2       1.0  0.99500  0.42000  0.36500  1.0000
  Te  Te3       1.0  0.49500  0.08040  0.63500  1.0000
  Te  Te4       1.0  0.50500  0.58000  0.86500  1.0000
