data_image0
_chemical_formula_structural       Ag4Mn4O4Te4
_chemical_formula_sum              "Ag4 Mn4 O4 Te4"
_cell_length_a       6.1955
_cell_length_b       3.82259
_cell_length_c       12.8073
_cell_angle_alpha    90
_cell_angle_beta     90
_cell_angle_gamma    90

_space_group_name_H-M_alt    "P 1"
_space_group_IT_number       1

loop_
  _space_group_symop_operation_xyz
  'x, y, z'

loop_
  _atom_site_type_symbol
  _atom_site_label
  _atom_site_symmetry_multiplicity
  _atom_site_fract_x
  _atom_site_fract_y
  _atom_site_fract_z
  _atom_site_occupancy
  Ag  Ag1       1.0  0.28900  0.75000  0.04780  1.0000
  Ag  Ag2       1.0  0.78900  0.75000  0.45200  1.0000
  Ag  Ag3       1.0  0.21100  0.25000  0.54800  1.0000
  Ag  Ag4       1.0  0.71100  0.25000  0.95200  1.0000
  Mn  Mn1       1.0  0.55000  0.25000  0.25000  1.0000
  Mn  Mn2       1.0  0.05030  0.25000  0.25000  1.0000
  Mn  Mn3       1.0  0.95000  0.75000  0.75000  1.0000
  Mn  Mn4       1.0  0.45000  0.75000  0.75000  1.0000
  O   O1        1.0  0.29900  0.25000  0.16100  1.0000
  O   O2        1.0  0.79900  0.25000  0.33900  1.0000
  O   O3        1.0  0.20100  0.75000  0.66100  1.0000
  O   O4        1.0  0.70100  0.75000  0.83900  1.0000
  Te  Te1       1.0  0.79000  0.75000  0.11300  1.0000
  Te  Te2       1.0  0.29000  0.75000  0.38700  1.0000
  Te  Te3       1.0  0.71000  0.25000  0.61300  1.0000
  Te  Te4       1.0  0.21000  0.25000  0.88700  1.0000
