data_image0
_chemical_formula_structural       In4Mo8O32Tl4
_chemical_formula_sum              "In4 Mo8 O32 Tl4"
_cell_length_a       14.75
_cell_length_b       5.91173
_cell_length_c       8.70618
_cell_angle_alpha    90
_cell_angle_beta     90
_cell_angle_gamma    90

_space_group_name_H-M_alt    "P 1"
_space_group_IT_number       1

loop_
  _space_group_symop_operation_xyz
  'x, y, z'

loop_
  _atom_site_type_symbol
  _atom_site_label
  _atom_site_symmetry_multiplicity
  _atom_site_fract_x
  _atom_site_fract_y
  _atom_site_fract_z
  _atom_site_occupancy
  In  In1       1.0  0.10300  0.25000  0.20100  1.0000
  In  In2       1.0  0.60300  0.25000  0.29900  1.0000
  In  In3       1.0  0.39700  0.75000  0.70100  1.0000
  In  In4       1.0  0.89700  0.75000  0.79900  1.0000
  Mo  Mo1       1.0  0.21600  0.75000  0.00082  1.0000
  Mo  Mo2       1.0  0.95800  0.75000  0.21600  1.0000
  Mo  Mo3       1.0  0.45800  0.75000  0.28400  1.0000
  Mo  Mo4       1.0  0.71600  0.75000  0.49900  1.0000
  Mo  Mo5       1.0  0.28400  0.25000  0.50100  1.0000
  Mo  Mo6       1.0  0.54200  0.25000  0.71600  1.0000
  Mo  Mo7       1.0  0.04180  0.25000  0.78400  1.0000
  Mo  Mo8       1.0  0.78400  0.25000  0.99900  1.0000
  O   O1        1.0  0.97000  0.75000  0.01260  1.0000
  O   O2        1.0  0.67200  0.25000  0.08410  1.0000
  O   O3        1.0  0.19500  0.00394  0.11000  1.0000
  O   O4        1.0  0.19500  0.49600  0.11000  1.0000
  O   O5        1.0  0.86000  0.25000  0.15100  1.0000
  O   O6        1.0  0.51400  0.50500  0.20100  1.0000
  O   O7        1.0  0.51400  0.99500  0.20100  1.0000
  O   O8        1.0  0.34500  0.75000  0.23000  1.0000
  O   O9        1.0  0.84500  0.75000  0.27000  1.0000
  O   O10       1.0  0.01430  0.50500  0.29900  1.0000
  O   O11       1.0  0.01430  0.99500  0.29900  1.0000
  O   O12       1.0  0.36000  0.25000  0.34900  1.0000
  O   O13       1.0  0.69500  0.00394  0.39000  1.0000
  O   O14       1.0  0.69500  0.49600  0.39000  1.0000
  O   O15       1.0  0.17200  0.25000  0.41600  1.0000
  O   O16       1.0  0.47000  0.75000  0.48700  1.0000
  O   O17       1.0  0.53000  0.25000  0.51300  1.0000
  O   O18       1.0  0.82800  0.75000  0.58400  1.0000
  O   O19       1.0  0.30500  0.50400  0.61000  1.0000
  O   O20       1.0  0.30500  0.99600  0.61000  1.0000
  O   O21       1.0  0.64000  0.75000  0.65100  1.0000
  O   O22       1.0  0.98600  0.00487  0.70100  1.0000
  O   O23       1.0  0.98600  0.49500  0.70100  1.0000
  O   O24       1.0  0.15500  0.25000  0.73000  1.0000
  O   O25       1.0  0.65500  0.25000  0.77000  1.0000
  O   O26       1.0  0.48600  0.00487  0.79900  1.0000
  O   O27       1.0  0.48600  0.49500  0.79900  1.0000
  O   O28       1.0  0.14000  0.75000  0.84900  1.0000
  O   O29       1.0  0.80500  0.50400  0.89000  1.0000
  O   O30       1.0  0.80500  0.99600  0.89000  1.0000
  O   O31       1.0  0.32800  0.75000  0.91600  1.0000
  O   O32       1.0  0.03010  0.25000  0.98700  1.0000
  Tl  Tl1       1.0  0.37100  0.25000  0.04680  1.0000
  Tl  Tl2       1.0  0.87100  0.25000  0.45300  1.0000
  Tl  Tl3       1.0  0.12900  0.75000  0.54700  1.0000
  Tl  Tl4       1.0  0.62900  0.75000  0.95300  1.0000
