data_image0
_chemical_formula_structural       Mn4O4Pd4Te4
_chemical_formula_sum              "Mn4 O4 Pd4 Te4"
_cell_length_a       6.23839
_cell_length_b       6.59131
_cell_length_c       7.67183
_cell_angle_alpha    90
_cell_angle_beta     90
_cell_angle_gamma    90

_space_group_name_H-M_alt    "P 1"
_space_group_IT_number       1

loop_
  _space_group_symop_operation_xyz
  'x, y, z'

loop_
  _atom_site_type_symbol
  _atom_site_label
  _atom_site_symmetry_multiplicity
  _atom_site_fract_x
  _atom_site_fract_y
  _atom_site_fract_z
  _atom_site_occupancy
  Mn  Mn1       1.0  0.19200  0.24800  0.06830  1.0000
  Mn  Mn2       1.0  0.80800  0.74800  0.43200  1.0000
  Mn  Mn3       1.0  0.30800  0.75200  0.56800  1.0000
  Mn  Mn4       1.0  0.69200  0.25200  0.93200  1.0000
  O   O1        1.0  0.47900  0.14600  0.09390  1.0000
  O   O2        1.0  0.52100  0.64600  0.40600  1.0000
  O   O3        1.0  0.02130  0.85400  0.59400  1.0000
  O   O4        1.0  0.97900  0.35400  0.90600  1.0000
  Pd  Pd1       1.0  0.27100  0.64900  0.21700  1.0000
  Pd  Pd2       1.0  0.72900  0.14900  0.28300  1.0000
  Pd  Pd3       1.0  0.22900  0.35100  0.71700  1.0000
  Pd  Pd4       1.0  0.77100  0.85100  0.78300  1.0000
  Te  Te1       1.0  0.95800  0.86500  0.09130  1.0000
  Te  Te2       1.0  0.04200  0.36500  0.40900  1.0000
  Te  Te3       1.0  0.54200  0.13500  0.59100  1.0000
  Te  Te4       1.0  0.45800  0.63500  0.90900  1.0000
