data_image0
_chemical_formula_structural       K4Nb4O32P8
_chemical_formula_sum              "K4 Nb4 O32 P8"
_cell_length_a       5.11382
_cell_length_b       11.7093
_cell_length_c       11.5341
_cell_angle_alpha    89.9978
_cell_angle_beta     90.4808
_cell_angle_gamma    89.9991

_space_group_name_H-M_alt    "P 1"
_space_group_IT_number       1

loop_
  _space_group_symop_operation_xyz
  'x, y, z'

loop_
  _atom_site_type_symbol
  _atom_site_label
  _atom_site_symmetry_multiplicity
  _atom_site_fract_x
  _atom_site_fract_y
  _atom_site_fract_z
  _atom_site_occupancy
  K   K1        1.0  0.72400  0.63500  0.05540  1.0000
  K   K2        1.0  0.77600  0.13500  0.44500  1.0000
  K   K3        1.0  0.22400  0.86500  0.55500  1.0000
  K   K4        1.0  0.27600  0.36500  0.94500  1.0000
  Nb  Nb1       1.0  0.26000  0.12200  0.17300  1.0000
  Nb  Nb2       1.0  0.24000  0.62200  0.32700  1.0000
  Nb  Nb3       1.0  0.76000  0.37800  0.67300  1.0000
  Nb  Nb4       1.0  0.74000  0.87800  0.82700  1.0000
  O   O1        1.0  0.81900  0.89900  0.01810  1.0000
  O   O2        1.0  0.71500  0.41800  0.08150  1.0000
  O   O3        1.0  0.56800  0.21300  0.11300  1.0000
  O   O4        1.0  0.04180  0.26500  0.13800  1.0000
  O   O5        1.0  0.46800  0.97500  0.15400  1.0000
  O   O6        1.0  0.19300  0.64700  0.17800  1.0000
  O   O7        1.0  0.93400  0.02720  0.19200  1.0000
  O   O8        1.0  0.78700  0.82400  0.21600  1.0000
  O   O9        1.0  0.71300  0.32400  0.28400  1.0000
  O   O10       1.0  0.56600  0.52700  0.30800  1.0000
  O   O11       1.0  0.30700  0.14700  0.32200  1.0000
  O   O12       1.0  0.03220  0.47500  0.34600  1.0000
  O   O13       1.0  0.45800  0.76500  0.36200  1.0000
  O   O14       1.0  0.93200  0.71300  0.38700  1.0000
  O   O15       1.0  0.78500  0.91800  0.41800  1.0000
  O   O16       1.0  0.68100  0.39900  0.48200  1.0000
  O   O17       1.0  0.31900  0.60100  0.51800  1.0000
  O   O18       1.0  0.21500  0.08190  0.58200  1.0000
  O   O19       1.0  0.06810  0.28700  0.61300  1.0000
  O   O20       1.0  0.54200  0.23500  0.63800  1.0000
  O   O21       1.0  0.96800  0.52500  0.65400  1.0000
  O   O22       1.0  0.69300  0.85300  0.67800  1.0000
  O   O23       1.0  0.43400  0.47300  0.69200  1.0000
  O   O24       1.0  0.28700  0.67600  0.71600  1.0000
  O   O25       1.0  0.21300  0.17600  0.78400  1.0000
  O   O26       1.0  0.06570  0.97300  0.80800  1.0000
  O   O27       1.0  0.80700  0.35300  0.82200  1.0000
  O   O28       1.0  0.53200  0.02480  0.84600  1.0000
  O   O29       1.0  0.95800  0.73500  0.86200  1.0000
  O   O30       1.0  0.43200  0.78700  0.88700  1.0000
  O   O31       1.0  0.28500  0.58200  0.91800  1.0000
  O   O32       1.0  0.18100  0.10100  0.98200  1.0000
  P   P1        1.0  0.75200  0.93600  0.13800  1.0000
  P   P2        1.0  0.76000  0.31000  0.14600  1.0000
  P   P3        1.0  0.74000  0.81000  0.35400  1.0000
  P   P4        1.0  0.74800  0.43600  0.36200  1.0000
  P   P5        1.0  0.25200  0.56400  0.63800  1.0000
  P   P6        1.0  0.26000  0.19000  0.64600  1.0000
  P   P7        1.0  0.24000  0.69000  0.85400  1.0000
  P   P8        1.0  0.24800  0.06350  0.86200  1.0000
