data_image0
_chemical_formula_structural       Cr2Cs3HO8
_chemical_formula_sum              "Cr2 Cs3 H1 O8"
_cell_length_a       6.1894
_cell_length_b       6.1894
_cell_length_c       8.43591
_cell_angle_alpha    109.885
_cell_angle_beta     109.885
_cell_angle_gamma    59.5041

_space_group_name_H-M_alt    "P 1"
_space_group_IT_number       1

loop_
  _space_group_symop_operation_xyz
  'x, y, z'

loop_
  _atom_site_type_symbol
  _atom_site_label
  _atom_site_symmetry_multiplicity
  _atom_site_fract_x
  _atom_site_fract_y
  _atom_site_fract_z
  _atom_site_occupancy
  Cr  Cr1       1.0  0.42600  0.42600  0.23200  1.0000
  Cr  Cr2       1.0  0.57400  0.57400  0.76800  1.0000
  Cs  Cs1       1.0  0.00000  0.00000  0.00000  1.0000
  Cs  Cs2       1.0  0.79900  0.79900  0.38300  1.0000
  Cs  Cs3       1.0  0.20100  0.20100  0.61700  1.0000
  H   H1        1.0  0.50000  0.50000  0.00000  1.0000
  O   O1        1.0  0.39100  0.39100  0.01360  1.0000
  O   O2        1.0  0.28500  0.28500  0.26500  1.0000
  O   O3        1.0  0.73500  0.29600  0.31400  1.0000
  O   O4        1.0  0.29600  0.73500  0.31400  1.0000
  O   O5        1.0  0.70400  0.26500  0.68600  1.0000
  O   O6        1.0  0.26500  0.70400  0.68600  1.0000
  O   O7        1.0  0.71500  0.71500  0.73500  1.0000
  O   O8        1.0  0.60900  0.60900  0.98600  1.0000
