data_image0
_chemical_formula_structural       Hg2O8W2
_chemical_formula_sum              "Hg2 O8 W2"
_cell_length_a       5.13735
_cell_length_b       5.99249
_cell_length_c       6.48193
_cell_angle_alpha    117.532
_cell_angle_beta     110.943
_cell_angle_gamma    90

_space_group_name_H-M_alt    "P 1"
_space_group_IT_number       1

loop_
  _space_group_symop_operation_xyz
  'x, y, z'

loop_
  _atom_site_type_symbol
  _atom_site_label
  _atom_site_symmetry_multiplicity
  _atom_site_fract_x
  _atom_site_fract_y
  _atom_site_fract_z
  _atom_site_occupancy
  Hg  Hg1       1.0  0.50000  0.00000  0.50000  1.0000
  Hg  Hg2       1.0  0.00000  0.50000  0.50000  1.0000
  O   O1        1.0  0.03060  0.18600  0.19000  1.0000
  O   O2        1.0  0.53100  0.00364  0.19000  1.0000
  O   O3        1.0  0.47900  0.49000  0.23700  1.0000
  O   O4        1.0  0.97900  0.74700  0.23700  1.0000
  O   O5        1.0  0.52100  0.51000  0.76300  1.0000
  O   O6        1.0  0.02100  0.25300  0.76300  1.0000
  O   O7        1.0  0.46900  0.99600  0.81000  1.0000
  O   O8        1.0  0.96900  0.81400  0.81000  1.0000
  W   W1        1.0  0.25000  0.19100  0.00000  1.0000
  W   W2        1.0  0.75000  0.80900  0.00000  1.0000
