data_image0
_chemical_formula_structural       Ag4In12K8Se24
_chemical_formula_sum              "Ag4 In12 K8 Se24"
_cell_length_a       8.40261
_cell_length_b       8.40261
_cell_length_c       21.7738
_cell_angle_alpha    95.6801
_cell_angle_beta     84.3199
_cell_angle_gamma    89.9294

_space_group_name_H-M_alt    "P 1"
_space_group_IT_number       1

loop_
  _space_group_symop_operation_xyz
  'x, y, z'

loop_
  _atom_site_type_symbol
  _atom_site_label
  _atom_site_symmetry_multiplicity
  _atom_site_fract_x
  _atom_site_fract_y
  _atom_site_fract_z
  _atom_site_occupancy
  Ag  Ag1       1.0  0.06420  0.56200  0.25000  1.0000
  Ag  Ag2       1.0  0.56200  0.06420  0.25000  1.0000
  Ag  Ag3       1.0  0.43800  0.93600  0.75000  1.0000
  Ag  Ag4       1.0  0.93600  0.43800  0.75000  1.0000
  In  In1       1.0  0.34900  0.27700  0.11200  1.0000
  In  In2       1.0  0.84900  0.27900  0.11200  1.0000
  In  In3       1.0  0.06620  0.06620  0.25000  1.0000
  In  In4       1.0  0.56000  0.56000  0.25000  1.0000
  In  In5       1.0  0.27900  0.84900  0.38800  1.0000
  In  In6       1.0  0.27700  0.34900  0.38800  1.0000
  In  In7       1.0  0.72300  0.65100  0.61200  1.0000
  In  In8       1.0  0.72100  0.15100  0.61200  1.0000
  In  In9       1.0  0.44000  0.44000  0.75000  1.0000
  In  In10      1.0  0.93400  0.93400  0.75000  1.0000
  In  In11      1.0  0.15100  0.72100  0.88800  1.0000
  In  In12      1.0  0.65100  0.72300  0.88800  1.0000
  K   K1        1.0  0.60800  0.79500  0.08270  1.0000
  K   K2        1.0  0.10500  0.74600  0.08270  1.0000
  K   K3        1.0  0.74600  0.10500  0.41700  1.0000
  K   K4        1.0  0.79500  0.60800  0.41700  1.0000
  K   K5        1.0  0.20500  0.39200  0.58300  1.0000
  K   K6        1.0  0.25400  0.89500  0.58300  1.0000
  K   K7        1.0  0.89500  0.25400  0.91700  1.0000
  K   K8        1.0  0.39200  0.20500  0.91700  1.0000
  Se  Se1       1.0  0.61800  0.21200  0.04010  1.0000
  Se  Se2       1.0  0.11700  0.30800  0.04030  1.0000
  Se  Se3       1.0  0.33700  0.56100  0.17400  1.0000
  Se  Se4       1.0  0.32800  0.02570  0.17500  1.0000
  Se  Se5       1.0  0.84000  0.02750  0.17500  1.0000
  Se  Se6       1.0  0.82500  0.56200  0.17500  1.0000
  Se  Se7       1.0  0.56200  0.82500  0.32500  1.0000
  Se  Se8       1.0  0.02750  0.84000  0.32500  1.0000
  Se  Se9       1.0  0.02570  0.32800  0.32500  1.0000
  Se  Se10      1.0  0.56100  0.33700  0.32600  1.0000
  Se  Se11      1.0  0.30800  0.11700  0.46000  1.0000
  Se  Se12      1.0  0.21200  0.61800  0.46000  1.0000
  Se  Se13      1.0  0.78800  0.38200  0.54000  1.0000
  Se  Se14      1.0  0.69200  0.88300  0.54000  1.0000
  Se  Se15      1.0  0.43900  0.66300  0.67400  1.0000
  Se  Se16      1.0  0.97400  0.67200  0.67500  1.0000
  Se  Se17      1.0  0.97300  0.16000  0.67500  1.0000
  Se  Se18      1.0  0.43800  0.17500  0.67500  1.0000
  Se  Se19      1.0  0.17500  0.43800  0.82500  1.0000
  Se  Se20      1.0  0.16000  0.97300  0.82500  1.0000
  Se  Se21      1.0  0.67200  0.97400  0.82500  1.0000
  Se  Se22      1.0  0.66300  0.43900  0.82600  1.0000
  Se  Se23      1.0  0.88300  0.69200  0.96000  1.0000
  Se  Se24      1.0  0.38200  0.78800  0.96000  1.0000
