data_image0
_chemical_formula_structural       O32Pb4Se8U4
_chemical_formula_sum              "O32 Pb4 Se8 U4"
_cell_length_a       12.0003
_cell_length_b       5.65015
_cell_length_c       11.2582
_cell_angle_alpha    90
_cell_angle_beta     90
_cell_angle_gamma    90

_space_group_name_H-M_alt    "P 1"
_space_group_IT_number       1

loop_
  _space_group_symop_operation_xyz
  'x, y, z'

loop_
  _atom_site_type_symbol
  _atom_site_label
  _atom_site_symmetry_multiplicity
  _atom_site_fract_x
  _atom_site_fract_y
  _atom_site_fract_z
  _atom_site_occupancy
  O   O1        1.0  0.00000  0.66700  0.07490  1.0000
  O   O2        1.0  0.28300  0.72800  0.07910  1.0000
  O   O3        1.0  0.71700  0.72800  0.07910  1.0000
  O   O4        1.0  0.39300  0.17000  0.12800  1.0000
  O   O5        1.0  0.60700  0.17000  0.12800  1.0000
  O   O6        1.0  0.15400  0.17200  0.13500  1.0000
  O   O7        1.0  0.84600  0.17200  0.13500  1.0000
  O   O8        1.0  0.11000  0.73000  0.28400  1.0000
  O   O9        1.0  0.89000  0.73000  0.28400  1.0000
  O   O10       1.0  0.34300  0.82700  0.32000  1.0000
  O   O11       1.0  0.65700  0.82700  0.32000  1.0000
  O   O12       1.0  0.33500  0.31600  0.34500  1.0000
  O   O13       1.0  0.66500  0.31600  0.34500  1.0000
  O   O14       1.0  0.14500  0.17100  0.39300  1.0000
  O   O15       1.0  0.85500  0.17100  0.39300  1.0000
  O   O16       1.0  0.50000  0.57800  0.47200  1.0000
  O   O17       1.0  0.00000  0.33300  0.57500  1.0000
  O   O18       1.0  0.28300  0.27200  0.57900  1.0000
  O   O19       1.0  0.71700  0.27200  0.57900  1.0000
  O   O20       1.0  0.39300  0.83000  0.62800  1.0000
  O   O21       1.0  0.60700  0.83000  0.62800  1.0000
  O   O22       1.0  0.15400  0.82800  0.63500  1.0000
  O   O23       1.0  0.84600  0.82800  0.63500  1.0000
  O   O24       1.0  0.11000  0.27000  0.78400  1.0000
  O   O25       1.0  0.89000  0.27000  0.78400  1.0000
  O   O26       1.0  0.34300  0.17300  0.82000  1.0000
  O   O27       1.0  0.65700  0.17300  0.82000  1.0000
  O   O28       1.0  0.33500  0.68400  0.84500  1.0000
  O   O29       1.0  0.66500  0.68400  0.84500  1.0000
  O   O30       1.0  0.14500  0.82900  0.89300  1.0000
  O   O31       1.0  0.85500  0.82900  0.89300  1.0000
  O   O32       1.0  0.50000  0.42200  0.97200  1.0000
  Pb  Pb1       1.0  0.50000  0.51200  0.26400  1.0000
  Pb  Pb2       1.0  0.00000  0.94000  0.47700  1.0000
  Pb  Pb3       1.0  0.50000  0.48800  0.76400  1.0000
  Pb  Pb4       1.0  0.00000  0.06030  0.97700  1.0000
  Se  Se1       1.0  0.50000  0.14100  0.02500  1.0000
  Se  Se2       1.0  0.00000  0.57400  0.21800  1.0000
  Se  Se3       1.0  0.23400  0.39200  0.45000  1.0000
  Se  Se4       1.0  0.76600  0.39200  0.45000  1.0000
  Se  Se5       1.0  0.50000  0.85900  0.52500  1.0000
  Se  Se6       1.0  0.00000  0.42600  0.71800  1.0000
  Se  Se7       1.0  0.23400  0.60800  0.95000  1.0000
  Se  Se8       1.0  0.76600  0.60800  0.95000  1.0000
  U   U1        1.0  0.24900  0.00000  0.22700  1.0000
  U   U2        1.0  0.75100  0.00000  0.22700  1.0000
  U   U3        1.0  0.24900  0.00050  0.72700  1.0000
  U   U4        1.0  0.75100  0.00050  0.72700  1.0000
