data_image0
_chemical_formula_structural       Al4Mn13O28Sb2Si2
_chemical_formula_sum              "Al4 Mn13 O28 Sb2 Si2"
_cell_length_a       5.60185
_cell_length_b       9.04349
_cell_length_c       11.8648
_cell_angle_alpha    92.5925
_cell_angle_beta     76.3453
_cell_angle_gamma    101.046

_space_group_name_H-M_alt    "P 1"
_space_group_IT_number       1

loop_
  _space_group_symop_operation_xyz
  'x, y, z'

loop_
  _atom_site_type_symbol
  _atom_site_label
  _atom_site_symmetry_multiplicity
  _atom_site_fract_x
  _atom_site_fract_y
  _atom_site_fract_z
  _atom_site_occupancy
  Al  Al1       1.0  0.05060  0.32200  0.43000  1.0000
  Al  Al2       1.0  0.51900  0.67800  0.43000  1.0000
  Al  Al3       1.0  0.48100  0.32200  0.57000  1.0000
  Al  Al4       1.0  0.94900  0.67800  0.57000  1.0000
  Mn  Mn1       1.0  0.00000  0.00000  0.00000  1.0000
  Mn  Mn2       1.0  0.20800  0.35200  0.14000  1.0000
  Mn  Mn3       1.0  0.65100  0.64800  0.14000  1.0000
  Mn  Mn4       1.0  0.42700  0.00000  0.14600  1.0000
  Mn  Mn5       1.0  0.63700  0.35600  0.29300  1.0000
  Mn  Mn6       1.0  0.07020  0.64400  0.29300  1.0000
  Mn  Mn7       1.0  0.28600  0.00000  0.42700  1.0000
  Mn  Mn8       1.0  0.71400  0.00000  0.57300  1.0000
  Mn  Mn9       1.0  0.93000  0.35600  0.70700  1.0000
  Mn  Mn10      1.0  0.36300  0.64400  0.70700  1.0000
  Mn  Mn11      1.0  0.57300  0.00000  0.85400  1.0000
  Mn  Mn12      1.0  0.34900  0.35200  0.86000  1.0000
  Mn  Mn13      1.0  0.79200  0.64800  0.86000  1.0000
  O   O1        1.0  0.68600  0.12700  0.00000  1.0000
  O   O2        1.0  0.06040  0.35300  0.00000  1.0000
  O   O3        1.0  0.94000  0.64700  0.00000  1.0000
  O   O4        1.0  0.31400  0.87300  0.00000  1.0000
  O   O5        1.0  0.59800  0.38200  0.11800  1.0000
  O   O6        1.0  0.28400  0.61800  0.11800  1.0000
  O   O7        1.0  0.11700  0.11600  0.15500  1.0000
  O   O8        1.0  0.72800  0.88400  0.15500  1.0000
  O   O9        1.0  0.59000  0.12000  0.29100  1.0000
  O   O10       1.0  0.11900  0.88000  0.29100  1.0000
  O   O11       1.0  0.02010  0.40100  0.30300  1.0000
  O   O12       1.0  0.67600  0.59900  0.30300  1.0000
  O   O13       1.0  0.98200  0.11900  0.41600  1.0000
  O   O14       1.0  0.60300  0.88100  0.41600  1.0000
  O   O15       1.0  0.35900  0.35700  0.45100  1.0000
  O   O16       1.0  0.19000  0.64300  0.45100  1.0000
  O   O17       1.0  0.81000  0.35700  0.54900  1.0000
  O   O18       1.0  0.64100  0.64300  0.54900  1.0000
  O   O19       1.0  0.39700  0.11900  0.58400  1.0000
  O   O20       1.0  0.01850  0.88100  0.58400  1.0000
  O   O21       1.0  0.32400  0.40100  0.69700  1.0000
  O   O22       1.0  0.98000  0.59900  0.69700  1.0000
  O   O23       1.0  0.88100  0.12000  0.70900  1.0000
  O   O24       1.0  0.41000  0.88000  0.70900  1.0000
  O   O25       1.0  0.27200  0.11600  0.84500  1.0000
  O   O26       1.0  0.88300  0.88400  0.84500  1.0000
  O   O27       1.0  0.71600  0.38200  0.88200  1.0000
  O   O28       1.0  0.40200  0.61800  0.88200  1.0000
  Sb  Sb1       1.0  0.85900  0.00000  0.28200  1.0000
  Sb  Sb2       1.0  0.14100  0.00000  0.71800  1.0000
  Si  Si1       1.0  0.76600  0.31200  0.00000  1.0000
  Si  Si2       1.0  0.23400  0.68800  0.00000  1.0000
