data_image0
_chemical_formula_structural       Br32Ga8Tl8
_chemical_formula_sum              "Br32 Ga8 Tl8"
_cell_length_a       12.6574
_cell_length_b       11.4442
_cell_length_c       13.0288
_cell_angle_alpha    90
_cell_angle_beta     109.19
_cell_angle_gamma    90

_space_group_name_H-M_alt    "P 1"
_space_group_IT_number       1

loop_
  _space_group_symop_operation_xyz
  'x, y, z'

loop_
  _atom_site_type_symbol
  _atom_site_label
  _atom_site_symmetry_multiplicity
  _atom_site_fract_x
  _atom_site_fract_y
  _atom_site_fract_z
  _atom_site_occupancy
  Br  Br1       1.0  0.90500  0.42500  0.09080  1.0000
  Br  Br2       1.0  0.49800  0.87500  0.10200  1.0000
  Br  Br3       1.0  0.41800  0.53600  0.11300  1.0000
  Br  Br4       1.0  0.35200  0.21400  0.12800  1.0000
  Br  Br5       1.0  0.08150  0.07040  0.14000  1.0000
  Br  Br6       1.0  0.02410  0.74100  0.14200  1.0000
  Br  Br7       1.0  0.80800  0.95500  0.18000  1.0000
  Br  Br8       1.0  0.66300  0.32500  0.20100  1.0000
  Br  Br9       1.0  0.33700  0.82500  0.29900  1.0000
  Br  Br10      1.0  0.19200  0.45500  0.32000  1.0000
  Br  Br11      1.0  0.97600  0.24100  0.35800  1.0000
  Br  Br12      1.0  0.91800  0.57000  0.36000  1.0000
  Br  Br13      1.0  0.64800  0.71400  0.37200  1.0000
  Br  Br14      1.0  0.58200  0.03640  0.38700  1.0000
  Br  Br15      1.0  0.50200  0.37500  0.39800  1.0000
  Br  Br16      1.0  0.09520  0.92500  0.40900  1.0000
  Br  Br17      1.0  0.90500  0.07520  0.59100  1.0000
  Br  Br18      1.0  0.49800  0.62500  0.60200  1.0000
  Br  Br19      1.0  0.41800  0.96400  0.61300  1.0000
  Br  Br20      1.0  0.35200  0.28600  0.62800  1.0000
  Br  Br21      1.0  0.08150  0.43000  0.64000  1.0000
  Br  Br22      1.0  0.02410  0.75900  0.64200  1.0000
  Br  Br23      1.0  0.80800  0.54500  0.68000  1.0000
  Br  Br24      1.0  0.66300  0.17500  0.70100  1.0000
  Br  Br25      1.0  0.33700  0.67500  0.79900  1.0000
  Br  Br26      1.0  0.19200  0.04510  0.82000  1.0000
  Br  Br27      1.0  0.97600  0.25900  0.85800  1.0000
  Br  Br28      1.0  0.91800  0.93000  0.86000  1.0000
  Br  Br29      1.0  0.64800  0.78600  0.87200  1.0000
  Br  Br30      1.0  0.58200  0.46400  0.88700  1.0000
  Br  Br31      1.0  0.50200  0.12500  0.89800  1.0000
  Br  Br32      1.0  0.09520  0.57500  0.90900  1.0000
  Ga  Ga1       1.0  0.48300  0.36200  0.21200  1.0000
  Ga  Ga2       1.0  0.00132  0.92100  0.21900  1.0000
  Ga  Ga3       1.0  0.99900  0.42100  0.28100  1.0000
  Ga  Ga4       1.0  0.51700  0.86200  0.28800  1.0000
  Ga  Ga5       1.0  0.48300  0.13800  0.71200  1.0000
  Ga  Ga6       1.0  0.00132  0.57900  0.71900  1.0000
  Ga  Ga7       1.0  0.99900  0.07850  0.78100  1.0000
  Ga  Ga8       1.0  0.51700  0.63800  0.78800  1.0000
  Tl  Tl1       1.0  0.20600  0.84000  0.02110  1.0000
  Tl  Tl2       1.0  0.69700  0.63700  0.12000  1.0000
  Tl  Tl3       1.0  0.30300  0.13700  0.38000  1.0000
  Tl  Tl4       1.0  0.79400  0.34000  0.47900  1.0000
  Tl  Tl5       1.0  0.20600  0.66000  0.52100  1.0000
  Tl  Tl6       1.0  0.69700  0.86300  0.62000  1.0000
  Tl  Tl7       1.0  0.30300  0.36300  0.88000  1.0000
  Tl  Tl8       1.0  0.79400  0.16000  0.97900  1.0000
