data_image0
_chemical_formula_structural       C4Ce16I24N4
_chemical_formula_sum              "C4 Ce16 I24 N4"
_cell_length_a       14.1227
_cell_length_b       14.1227
_cell_length_c       9.80575
_cell_angle_alpha    90
_cell_angle_beta     90
_cell_angle_gamma    90

_space_group_name_H-M_alt    "P 1"
_space_group_IT_number       1

loop_
  _space_group_symop_operation_xyz
  'x, y, z'

loop_
  _atom_site_type_symbol
  _atom_site_label
  _atom_site_symmetry_multiplicity
  _atom_site_fract_x
  _atom_site_fract_y
  _atom_site_fract_z
  _atom_site_occupancy
  C   C1        1.0  0.96500  0.03520  0.00000  1.0000
  C   C2        1.0  0.03520  0.96500  0.00000  1.0000
  C   C3        1.0  0.46500  0.46500  0.50000  1.0000
  C   C4        1.0  0.53500  0.53500  0.50000  1.0000
  Ce  Ce1       1.0  0.84600  0.15400  0.00000  1.0000
  Ce  Ce2       1.0  0.40800  0.40800  0.00000  1.0000
  Ce  Ce3       1.0  0.59200  0.59200  0.00000  1.0000
  Ce  Ce4       1.0  0.15400  0.84600  0.00000  1.0000
  Ce  Ce5       1.0  0.09020  0.09020  0.19400  1.0000
  Ce  Ce6       1.0  0.91000  0.91000  0.19400  1.0000
  Ce  Ce7       1.0  0.59000  0.41000  0.30600  1.0000
  Ce  Ce8       1.0  0.41000  0.59000  0.30600  1.0000
  Ce  Ce9       1.0  0.90800  0.09220  0.50000  1.0000
  Ce  Ce10      1.0  0.34600  0.34600  0.50000  1.0000
  Ce  Ce11      1.0  0.65400  0.65400  0.50000  1.0000
  Ce  Ce12      1.0  0.09220  0.90800  0.50000  1.0000
  Ce  Ce13      1.0  0.59000  0.41000  0.69400  1.0000
  Ce  Ce14      1.0  0.41000  0.59000  0.69400  1.0000
  Ce  Ce15      1.0  0.09020  0.09020  0.80600  1.0000
  Ce  Ce16      1.0  0.91000  0.91000  0.80600  1.0000
  I   I1        1.0  0.22400  0.22400  0.00000  1.0000
  I   I2        1.0  0.67100  0.32900  0.00000  1.0000
  I   I3        1.0  0.32900  0.67100  0.00000  1.0000
  I   I4        1.0  0.77600  0.77600  0.00000  1.0000
  I   I5        1.0  0.73300  0.05040  0.24800  1.0000
  I   I6        1.0  0.95000  0.26700  0.24800  1.0000
  I   I7        1.0  0.05040  0.73300  0.24800  1.0000
  I   I8        1.0  0.26700  0.95000  0.24800  1.0000
  I   I9        1.0  0.45000  0.23300  0.25200  1.0000
  I   I10       1.0  0.23300  0.45000  0.25200  1.0000
  I   I11       1.0  0.76700  0.55000  0.25200  1.0000
  I   I12       1.0  0.55000  0.76700  0.25200  1.0000
  I   I13       1.0  0.17100  0.17100  0.50000  1.0000
  I   I14       1.0  0.72400  0.27600  0.50000  1.0000
  I   I15       1.0  0.27600  0.72400  0.50000  1.0000
  I   I16       1.0  0.82900  0.82900  0.50000  1.0000
  I   I17       1.0  0.45000  0.23300  0.74800  1.0000
  I   I18       1.0  0.23300  0.45000  0.74800  1.0000
  I   I19       1.0  0.76700  0.55000  0.74800  1.0000
  I   I20       1.0  0.55000  0.76700  0.74800  1.0000
  I   I21       1.0  0.73300  0.05040  0.75200  1.0000
  I   I22       1.0  0.95000  0.26700  0.75200  1.0000
  I   I23       1.0  0.05040  0.73300  0.75200  1.0000
  I   I24       1.0  0.26700  0.95000  0.75200  1.0000
  N   N1        1.0  0.50000  0.50000  0.15200  1.0000
  N   N2        1.0  0.00000  0.00000  0.34800  1.0000
  N   N3        1.0  0.00000  0.00000  0.65200  1.0000
  N   N4        1.0  0.50000  0.50000  0.84800  1.0000
