data_image0
_chemical_formula_structural       Ag2O2Te2Zn2
_chemical_formula_sum              "Ag2 O2 Te2 Zn2"
_cell_length_a       3.59715
_cell_length_b       5.96871
_cell_length_c       7.03785
_cell_angle_alpha    90
_cell_angle_beta     75.1934
_cell_angle_gamma    90

_space_group_name_H-M_alt    "P 1"
_space_group_IT_number       1

loop_
  _space_group_symop_operation_xyz
  'x, y, z'

loop_
  _atom_site_type_symbol
  _atom_site_label
  _atom_site_symmetry_multiplicity
  _atom_site_fract_x
  _atom_site_fract_y
  _atom_site_fract_z
  _atom_site_occupancy
  Ag  Ag1       1.0  0.41400  0.75000  0.17100  1.0000
  Ag  Ag2       1.0  0.58600  0.25000  0.82900  1.0000
  O   O1        1.0  0.00000  0.00000  0.00000  1.0000
  O   O2        1.0  0.00000  0.50000  0.00000  1.0000
  Te  Te1       1.0  0.25900  0.25000  0.48100  1.0000
  Te  Te2       1.0  0.74100  0.75000  0.51900  1.0000
  Zn  Zn1       1.0  0.91100  0.25000  0.17800  1.0000
  Zn  Zn2       1.0  0.08900  0.75000  0.82200  1.0000
