data_image0
_chemical_formula_structural       Fe2O2Pt2Te2
_chemical_formula_sum              "Fe2 O2 Pt2 Te2"
_cell_length_a       4.41822
_cell_length_b       4.41822
_cell_length_c       7.87108
_cell_angle_alpha    90
_cell_angle_beta     90
_cell_angle_gamma    90

_space_group_name_H-M_alt    "P 1"
_space_group_IT_number       1

loop_
  _space_group_symop_operation_xyz
  'x, y, z'

loop_
  _atom_site_type_symbol
  _atom_site_label
  _atom_site_symmetry_multiplicity
  _atom_site_fract_x
  _atom_site_fract_y
  _atom_site_fract_z
  _atom_site_occupancy
  Fe  Fe1       1.0  0.25000  0.25000  0.19700  1.0000
  Fe  Fe2       1.0  0.75000  0.75000  0.80300  1.0000
  O   O1        1.0  0.75000  0.75000  0.02430  1.0000
  O   O2        1.0  0.25000  0.25000  0.97600  1.0000
  Pt  Pt1       1.0  0.75000  0.75000  0.27700  1.0000
  Pt  Pt2       1.0  0.25000  0.25000  0.72300  1.0000
  Te  Te1       1.0  0.75000  0.25000  0.50000  1.0000
  Te  Te2       1.0  0.25000  0.75000  0.50000  1.0000
