data_image0
_chemical_formula_structural       F32K8V8
_chemical_formula_sum              "F32 K8 V8"
_cell_length_a       7.41282
_cell_length_b       7.52418
_cell_length_c       11.7538
_cell_angle_alpha    90
_cell_angle_beta     90
_cell_angle_gamma    90

_space_group_name_H-M_alt    "P 1"
_space_group_IT_number       1

loop_
  _space_group_symop_operation_xyz
  'x, y, z'

loop_
  _atom_site_type_symbol
  _atom_site_label
  _atom_site_symmetry_multiplicity
  _atom_site_fract_x
  _atom_site_fract_y
  _atom_site_fract_z
  _atom_site_occupancy
  F   F1        1.0  0.04750  0.63400  0.08990  1.0000
  F   F2        1.0  0.45300  0.63400  0.08990  1.0000
  F   F3        1.0  0.05170  0.11600  0.09540  1.0000
  F   F4        1.0  0.44800  0.11600  0.09540  1.0000
  F   F5        1.0  0.75000  0.56100  0.21000  1.0000
  F   F6        1.0  0.75000  0.18900  0.21700  1.0000
  F   F7        1.0  0.56700  0.87600  0.24800  1.0000
  F   F8        1.0  0.93300  0.87600  0.24800  1.0000
  F   F9        1.0  0.06660  0.37600  0.25200  1.0000
  F   F10       1.0  0.43300  0.37600  0.25200  1.0000
  F   F11       1.0  0.25000  0.68900  0.28300  1.0000
  F   F12       1.0  0.25000  0.06090  0.29000  1.0000
  F   F13       1.0  0.55200  0.61600  0.40500  1.0000
  F   F14       1.0  0.94800  0.61600  0.40500  1.0000
  F   F15       1.0  0.54700  0.13400  0.41000  1.0000
  F   F16       1.0  0.95300  0.13400  0.41000  1.0000
  F   F17       1.0  0.04750  0.86600  0.59000  1.0000
  F   F18       1.0  0.45300  0.86600  0.59000  1.0000
  F   F19       1.0  0.05170  0.38400  0.59500  1.0000
  F   F20       1.0  0.44800  0.38400  0.59500  1.0000
  F   F21       1.0  0.75000  0.93900  0.71000  1.0000
  F   F22       1.0  0.75000  0.31100  0.71700  1.0000
  F   F23       1.0  0.56700  0.62400  0.74800  1.0000
  F   F24       1.0  0.93300  0.62400  0.74800  1.0000
  F   F25       1.0  0.06660  0.12400  0.75200  1.0000
  F   F26       1.0  0.43300  0.12400  0.75200  1.0000
  F   F27       1.0  0.25000  0.81100  0.78300  1.0000
  F   F28       1.0  0.25000  0.43900  0.79000  1.0000
  F   F29       1.0  0.55200  0.88400  0.90500  1.0000
  F   F30       1.0  0.94800  0.88400  0.90500  1.0000
  F   F31       1.0  0.54700  0.36600  0.91000  1.0000
  F   F32       1.0  0.95300  0.36600  0.91000  1.0000
  K   K1        1.0  0.25000  0.87600  0.01030  1.0000
  K   K2        1.0  0.25000  0.37500  0.02400  1.0000
  K   K3        1.0  0.75000  0.87500  0.47600  1.0000
  K   K4        1.0  0.75000  0.37600  0.49000  1.0000
  K   K5        1.0  0.25000  0.62400  0.51000  1.0000
  K   K6        1.0  0.25000  0.12500  0.52400  1.0000
  K   K7        1.0  0.75000  0.62500  0.97600  1.0000
  K   K8        1.0  0.75000  0.12400  0.99000  1.0000
  V   V1        1.0  0.50100  0.62600  0.24800  1.0000
  V   V2        1.0  0.99900  0.62600  0.24800  1.0000
  V   V3        1.0  0.00088  0.12600  0.25200  1.0000
  V   V4        1.0  0.49900  0.12600  0.25200  1.0000
  V   V5        1.0  0.50100  0.87400  0.74800  1.0000
  V   V6        1.0  0.99900  0.87400  0.74800  1.0000
  V   V7        1.0  0.00088  0.37400  0.75200  1.0000
  V   V8        1.0  0.49900  0.37400  0.75200  1.0000
