data_image0
_chemical_formula_structural       Cl28O12Re8
_chemical_formula_sum              "Cl28 O12 Re8"
_cell_length_a       6.24135
_cell_length_b       10.968
_cell_length_c       16.3345
_cell_angle_alpha    90
_cell_angle_beta     94.966
_cell_angle_gamma    90

_space_group_name_H-M_alt    "P 1"
_space_group_IT_number       1

loop_
  _space_group_symop_operation_xyz
  'x, y, z'

loop_
  _atom_site_type_symbol
  _atom_site_label
  _atom_site_symmetry_multiplicity
  _atom_site_fract_x
  _atom_site_fract_y
  _atom_site_fract_z
  _atom_site_occupancy
  Cl  Cl1       1.0  0.72500  0.97500  0.05410  1.0000
  Cl  Cl2       1.0  0.77000  0.52400  0.06490  1.0000
  Cl  Cl3       1.0  0.47200  0.22400  0.07940  1.0000
  Cl  Cl4       1.0  0.26600  0.96100  0.13500  1.0000
  Cl  Cl5       1.0  0.33900  0.49600  0.15800  1.0000
  Cl  Cl6       1.0  0.94000  0.72700  0.19500  1.0000
  Cl  Cl7       1.0  0.99400  0.20700  0.21800  1.0000
  Cl  Cl8       1.0  0.50600  0.70700  0.28200  1.0000
  Cl  Cl9       1.0  0.56000  0.22700  0.30500  1.0000
  Cl  Cl10      1.0  0.16100  0.99600  0.34200  1.0000
  Cl  Cl11      1.0  0.23400  0.46100  0.36500  1.0000
  Cl  Cl12      1.0  0.02770  0.72400  0.42100  1.0000
  Cl  Cl13      1.0  0.73000  0.02380  0.43500  1.0000
  Cl  Cl14      1.0  0.77500  0.47500  0.44600  1.0000
  Cl  Cl15      1.0  0.22500  0.52500  0.55400  1.0000
  Cl  Cl16      1.0  0.27000  0.97600  0.56500  1.0000
  Cl  Cl17      1.0  0.97200  0.27600  0.57900  1.0000
  Cl  Cl18      1.0  0.76600  0.53900  0.63500  1.0000
  Cl  Cl19      1.0  0.83900  0.00418  0.65800  1.0000
  Cl  Cl20      1.0  0.44000  0.77300  0.69500  1.0000
  Cl  Cl21      1.0  0.49400  0.29300  0.71800  1.0000
  Cl  Cl22      1.0  0.00575  0.79300  0.78200  1.0000
  Cl  Cl23      1.0  0.06010  0.27300  0.80500  1.0000
  Cl  Cl24      1.0  0.66100  0.50400  0.84200  1.0000
  Cl  Cl25      1.0  0.73400  0.03900  0.86500  1.0000
  Cl  Cl26      1.0  0.52800  0.77600  0.92100  1.0000
  Cl  Cl27      1.0  0.23000  0.47600  0.93500  1.0000
  Cl  Cl28      1.0  0.27500  0.02520  0.94600  1.0000
  O   O1        1.0  0.11900  0.77700  0.00487  1.0000
  O   O2        1.0  0.49800  0.73500  0.09910  1.0000
  O   O3        1.0  0.71400  0.97600  0.24700  1.0000
  O   O4        1.0  0.78600  0.47600  0.25300  1.0000
  O   O5        1.0  0.00207  0.23500  0.40100  1.0000
  O   O6        1.0  0.38100  0.27700  0.49500  1.0000
  O   O7        1.0  0.61900  0.72300  0.50500  1.0000
  O   O8        1.0  0.99800  0.76500  0.59900  1.0000
  O   O9        1.0  0.21400  0.52400  0.74700  1.0000
  O   O10       1.0  0.28600  0.02350  0.75300  1.0000
  O   O11       1.0  0.50200  0.26500  0.90100  1.0000
  O   O12       1.0  0.88100  0.22300  0.99500  1.0000
  Re  Re1       1.0  0.36600  0.83900  0.03200  1.0000
  Re  Re2       1.0  0.66900  0.58500  0.19000  1.0000
  Re  Re3       1.0  0.83100  0.08470  0.31000  1.0000
  Re  Re4       1.0  0.13400  0.33900  0.46800  1.0000
  Re  Re5       1.0  0.86600  0.66100  0.53200  1.0000
  Re  Re6       1.0  0.16900  0.91500  0.69000  1.0000
  Re  Re7       1.0  0.33100  0.41500  0.81000  1.0000
  Re  Re8       1.0  0.63400  0.16100  0.96800  1.0000
