data_image0
_chemical_formula_structural       Al2CCa4H22O20
_chemical_formula_sum              "Al2 C1 Ca4 H22 O20"
_cell_length_a       5.68699
_cell_length_b       8.21715
_cell_length_c       9.55069
_cell_angle_alpha    66.1184
_cell_angle_beta     82.1334
_cell_angle_gamma    80.9025

_space_group_name_H-M_alt    "P 1"
_space_group_IT_number       1

loop_
  _space_group_symop_operation_xyz
  'x, y, z'

loop_
  _atom_site_type_symbol
  _atom_site_label
  _atom_site_symmetry_multiplicity
  _atom_site_fract_x
  _atom_site_fract_y
  _atom_site_fract_z
  _atom_site_occupancy
  Al  Al1       1.0  0.00419  0.99500  0.00073  1.0000
  Al  Al2       1.0  0.49400  0.50300  0.50700  1.0000
  C   C1        1.0  0.88100  0.32400  0.20100  1.0000
  Ca  Ca1       1.0  0.48100  0.88500  0.19800  1.0000
  Ca  Ca2       1.0  0.01680  0.61900  0.31300  1.0000
  Ca  Ca3       1.0  0.97700  0.37900  0.70000  1.0000
  Ca  Ca4       1.0  0.52400  0.11400  0.80200  1.0000
  H   H1        1.0  0.82300  0.73000  0.00848  1.0000
  H   H2        1.0  0.21900  0.50100  0.03580  1.0000
  H   H3        1.0  0.68600  0.22300  0.04070  1.0000
  H   H4        1.0  0.52400  0.51000  0.23400  1.0000
  H   H5        1.0  0.97500  0.00421  0.26100  1.0000
  H   H6        1.0  0.28700  0.21600  0.27200  1.0000
  H   H7        1.0  0.56200  0.14100  0.32100  1.0000
  H   H8        1.0  0.81400  0.28400  0.45600  1.0000
  H   H9        1.0  0.24400  0.99900  0.47600  1.0000
  H   H10       1.0  0.33900  0.23400  0.50200  1.0000
  H   H11       1.0  0.65500  0.77600  0.50300  1.0000
  H   H12       1.0  0.97300  0.98300  0.52900  1.0000
  H   H13       1.0  0.16600  0.72900  0.54200  1.0000
  H   H14       1.0  0.44200  0.85800  0.68200  1.0000
  H   H15       1.0  0.03390  0.00901  0.72700  1.0000
  H   H16       1.0  0.70500  0.78400  0.73300  1.0000
  H   H17       1.0  0.46000  0.48200  0.78200  1.0000
  H   H18       1.0  0.06410  0.63900  0.81800  1.0000
  H   H19       1.0  0.85800  0.52900  0.93000  1.0000
  H   H20       1.0  0.32500  0.76600  0.96700  1.0000
  H   H21       1.0  0.49000  0.50600  0.99300  1.0000
  H   H22       1.0  0.19300  0.25800  0.99800  1.0000
  O   O1        1.0  0.69100  0.11400  0.02150  1.0000
  O   O2        1.0  0.85100  0.78000  0.07960  1.0000
  O   O3        1.0  0.74000  0.40900  0.09160  1.0000
  O   O4        1.0  0.08400  0.38300  0.19400  1.0000
  O   O5        1.0  0.06550  0.93000  0.20900  1.0000
  O   O6        1.0  0.43100  0.57000  0.29600  1.0000
  O   O7        1.0  0.82100  0.18300  0.31700  1.0000
  O   O8        1.0  0.39800  0.10500  0.32400  1.0000
  O   O9        1.0  0.64600  0.71900  0.43200  1.0000
  O   O10       1.0  0.80500  0.38600  0.48500  1.0000
  O   O11       1.0  0.18400  0.61400  0.53100  1.0000
  O   O12       1.0  0.13100  0.93300  0.56700  1.0000
  O   O13       1.0  0.34400  0.28600  0.57600  1.0000
  O   O14       1.0  0.60200  0.89400  0.67100  1.0000
  O   O15       1.0  0.56100  0.43200  0.71500  1.0000
  O   O16       1.0  0.93700  0.06180  0.79500  1.0000
  O   O17       1.0  0.90400  0.60800  0.81900  1.0000
  O   O18       1.0  0.15600  0.21200  0.92600  1.0000
  O   O19       1.0  0.33700  0.56000  0.94600  1.0000
  O   O20       1.0  0.31700  0.88200  0.97700  1.0000
