data_image0
_chemical_formula_structural       Na5O30Ti14
_chemical_formula_sum              "Na5 O30 Ti14"
_cell_length_a       3.77013
_cell_length_b       7.67816
_cell_length_c       21.2494
_cell_angle_alpha    95.4919
_cell_angle_beta     90
_cell_angle_gamma    104.212

_space_group_name_H-M_alt    "P 1"
_space_group_IT_number       1

loop_
  _space_group_symop_operation_xyz
  'x, y, z'

loop_
  _atom_site_type_symbol
  _atom_site_label
  _atom_site_symmetry_multiplicity
  _atom_site_fract_x
  _atom_site_fract_y
  _atom_site_fract_z
  _atom_site_occupancy
  Na  Na1       1.0  0.00000  0.00000  0.00000  1.0000
  Na  Na2       1.0  0.06400  0.12800  0.18500  1.0000
  Na  Na3       1.0  0.96500  0.92900  0.39700  1.0000
  Na  Na4       1.0  0.03530  0.07060  0.60300  1.0000
  Na  Na5       1.0  0.93600  0.87200  0.81500  1.0000
  O   O1        1.0  0.40600  0.81200  0.01770  1.0000
  O   O2        1.0  0.22700  0.45400  0.03790  1.0000
  O   O3        1.0  0.82300  0.64500  0.09750  1.0000
  O   O4        1.0  0.64600  0.29200  0.12000  1.0000
  O   O5        1.0  0.45800  0.91700  0.15500  1.0000
  O   O6        1.0  0.28000  0.55900  0.17600  1.0000
  O   O7        1.0  0.87600  0.75300  0.23000  1.0000
  O   O8        1.0  0.68100  0.36200  0.25000  1.0000
  O   O9        1.0  0.51200  0.02490  0.28400  1.0000
  O   O10       1.0  0.34300  0.68600  0.32000  1.0000
  O   O11       1.0  0.14900  0.29800  0.33800  1.0000
  O   O12       1.0  0.74600  0.49100  0.39200  1.0000
  O   O13       1.0  0.56900  0.13800  0.41300  1.0000
  O   O14       1.0  0.38000  0.76000  0.44800  1.0000
  O   O15       1.0  0.20300  0.40600  0.47100  1.0000
  O   O16       1.0  0.79700  0.59400  0.52900  1.0000
  O   O17       1.0  0.62000  0.24000  0.55200  1.0000
  O   O18       1.0  0.43100  0.86200  0.58700  1.0000
  O   O19       1.0  0.25400  0.50900  0.60800  1.0000
  O   O20       1.0  0.85100  0.70200  0.66200  1.0000
  O   O21       1.0  0.65700  0.31400  0.68000  1.0000
  O   O22       1.0  0.48800  0.97500  0.71600  1.0000
  O   O23       1.0  0.31900  0.63800  0.75000  1.0000
  O   O24       1.0  0.12400  0.24700  0.77000  1.0000
  O   O25       1.0  0.72000  0.44100  0.82400  1.0000
  O   O26       1.0  0.54200  0.08310  0.84500  1.0000
  O   O27       1.0  0.35400  0.70800  0.88000  1.0000
  O   O28       1.0  0.17700  0.35500  0.90300  1.0000
  O   O29       1.0  0.77300  0.54600  0.96200  1.0000
  O   O30       1.0  0.59400  0.18800  0.98200  1.0000
  Ti  Ti1       1.0  0.69500  0.39000  0.04440  1.0000
  Ti  Ti2       1.0  0.36200  0.72400  0.09880  1.0000
  Ti  Ti3       1.0  0.74800  0.49700  0.18600  1.0000
  Ti  Ti4       1.0  0.39800  0.79700  0.24300  1.0000
  Ti  Ti5       1.0  0.62400  0.24800  0.32900  1.0000
  Ti  Ti6       1.0  0.27600  0.55200  0.38600  1.0000
  Ti  Ti7       1.0  0.66500  0.32900  0.47400  1.0000
  Ti  Ti8       1.0  0.33500  0.67100  0.52600  1.0000
  Ti  Ti9       1.0  0.72400  0.44800  0.61400  1.0000
  Ti  Ti10      1.0  0.37600  0.75200  0.67100  1.0000
  Ti  Ti11      1.0  0.60200  0.20300  0.75700  1.0000
  Ti  Ti12      1.0  0.25200  0.50300  0.81400  1.0000
  Ti  Ti13      1.0  0.63800  0.27600  0.90100  1.0000
  Ti  Ti14      1.0  0.30500  0.61000  0.95600  1.0000
