data_image0
_chemical_formula_structural       K4Pr12Te32
_chemical_formula_sum              "K4 Pr12 Te32"
_cell_length_a       14.4036
_cell_length_b       13.0025
_cell_length_c       9.05295
_cell_angle_alpha    90
_cell_angle_beta     98.977
_cell_angle_gamma    90

_space_group_name_H-M_alt    "P 1"
_space_group_IT_number       1

loop_
  _space_group_symop_operation_xyz
  'x, y, z'

loop_
  _atom_site_type_symbol
  _atom_site_label
  _atom_site_symmetry_multiplicity
  _atom_site_fract_x
  _atom_site_fract_y
  _atom_site_fract_z
  _atom_site_occupancy
  K   K1        1.0  0.96400  0.90800  0.24100  1.0000
  K   K2        1.0  0.03600  0.40800  0.25900  1.0000
  K   K3        1.0  0.96400  0.59200  0.74100  1.0000
  K   K4        1.0  0.03600  0.09240  0.75900  1.0000
  Pr  Pr1       1.0  0.35000  0.41500  0.08070  1.0000
  Pr  Pr2       1.0  0.34700  0.75100  0.08730  1.0000
  Pr  Pr3       1.0  0.35200  0.08390  0.09560  1.0000
  Pr  Pr4       1.0  0.64800  0.58400  0.40400  1.0000
  Pr  Pr5       1.0  0.65300  0.25100  0.41300  1.0000
  Pr  Pr6       1.0  0.65000  0.91500  0.41900  1.0000
  Pr  Pr7       1.0  0.35000  0.08480  0.58100  1.0000
  Pr  Pr8       1.0  0.34700  0.74900  0.58700  1.0000
  Pr  Pr9       1.0  0.35200  0.41600  0.59600  1.0000
  Pr  Pr10      1.0  0.64800  0.91600  0.90400  1.0000
  Pr  Pr11      1.0  0.65300  0.24900  0.91300  1.0000
  Pr  Pr12      1.0  0.65000  0.58500  0.91900  1.0000
  Te  Te1       1.0  0.17100  0.92000  0.03330  1.0000
  Te  Te2       1.0  0.17600  0.24900  0.04370  1.0000
  Te  Te3       1.0  0.17000  0.58100  0.05230  1.0000
  Te  Te4       1.0  0.58400  0.41500  0.14400  1.0000
  Te  Te5       1.0  0.58100  0.75400  0.14500  1.0000
  Te  Te6       1.0  0.58600  0.08000  0.14900  1.0000
  Te  Te7       1.0  0.82700  0.59600  0.20700  1.0000
  Te  Te8       1.0  0.83500  0.22800  0.20800  1.0000
  Te  Te9       1.0  0.16500  0.72800  0.29200  1.0000
  Te  Te10      1.0  0.17300  0.09590  0.29300  1.0000
  Te  Te11      1.0  0.41400  0.58000  0.35100  1.0000
  Te  Te12      1.0  0.41900  0.25400  0.35500  1.0000
  Te  Te13      1.0  0.41600  0.91500  0.35600  1.0000
  Te  Te14      1.0  0.83000  0.08090  0.44800  1.0000
  Te  Te15      1.0  0.82400  0.74900  0.45600  1.0000
  Te  Te16      1.0  0.82900  0.42000  0.46700  1.0000
  Te  Te17      1.0  0.17100  0.58000  0.53300  1.0000
  Te  Te18      1.0  0.17600  0.25100  0.54400  1.0000
  Te  Te19      1.0  0.17000  0.91900  0.55200  1.0000
  Te  Te20      1.0  0.58400  0.08530  0.64400  1.0000
  Te  Te21      1.0  0.58100  0.74600  0.64500  1.0000
  Te  Te22      1.0  0.58600  0.42000  0.64900  1.0000
  Te  Te23      1.0  0.82700  0.90400  0.70700  1.0000
  Te  Te24      1.0  0.83500  0.27200  0.70800  1.0000
  Te  Te25      1.0  0.16500  0.77200  0.79200  1.0000
  Te  Te26      1.0  0.17300  0.40400  0.79300  1.0000
  Te  Te27      1.0  0.41400  0.92000  0.85100  1.0000
  Te  Te28      1.0  0.41900  0.24600  0.85500  1.0000
  Te  Te29      1.0  0.41600  0.58500  0.85600  1.0000
  Te  Te30      1.0  0.83000  0.41900  0.94800  1.0000
  Te  Te31      1.0  0.82400  0.75100  0.95600  1.0000
  Te  Te32      1.0  0.82900  0.08010  0.96700  1.0000
