data_image0
_chemical_formula_structural       K4Na4Te4
_chemical_formula_sum              "K4 Na4 Te4"
_cell_length_a       8.51019
_cell_length_b       5.11564
_cell_length_c       9.26688
_cell_angle_alpha    90
_cell_angle_beta     90
_cell_angle_gamma    90

_space_group_name_H-M_alt    "P 1"
_space_group_IT_number       1

loop_
  _space_group_symop_operation_xyz
  'x, y, z'

loop_
  _atom_site_type_symbol
  _atom_site_label
  _atom_site_symmetry_multiplicity
  _atom_site_fract_x
  _atom_site_fract_y
  _atom_site_fract_z
  _atom_site_occupancy
  K   K1        1.0  0.01180  0.25000  0.18600  1.0000
  K   K2        1.0  0.51200  0.25000  0.31400  1.0000
  K   K3        1.0  0.48800  0.75000  0.68600  1.0000
  K   K4        1.0  0.98800  0.75000  0.81400  1.0000
  Na  Na1       1.0  0.35200  0.75000  0.07390  1.0000
  Na  Na2       1.0  0.85200  0.75000  0.42600  1.0000
  Na  Na3       1.0  0.14800  0.25000  0.57400  1.0000
  Na  Na4       1.0  0.64800  0.25000  0.92600  1.0000
  Te  Te1       1.0  0.72300  0.75000  0.10700  1.0000
  Te  Te2       1.0  0.22300  0.75000  0.39300  1.0000
  Te  Te3       1.0  0.77700  0.25000  0.60700  1.0000
  Te  Te4       1.0  0.27700  0.25000  0.89300  1.0000
