data_image0
_chemical_formula_structural       Cs4N8O32V4
_chemical_formula_sum              "Cs4 N8 O32 V4"
_cell_length_a       6.34388
_cell_length_b       7.45309
_cell_length_c       14.6603
_cell_angle_alpha    90
_cell_angle_beta     90
_cell_angle_gamma    90

_space_group_name_H-M_alt    "P 1"
_space_group_IT_number       1

loop_
  _space_group_symop_operation_xyz
  'x, y, z'

loop_
  _atom_site_type_symbol
  _atom_site_label
  _atom_site_symmetry_multiplicity
  _atom_site_fract_x
  _atom_site_fract_y
  _atom_site_fract_z
  _atom_site_occupancy
  Cs  Cs1       1.0  0.25000  0.14400  0.15200  1.0000
  Cs  Cs2       1.0  0.75000  0.64400  0.34800  1.0000
  Cs  Cs3       1.0  0.25000  0.85600  0.65200  1.0000
  Cs  Cs4       1.0  0.75000  0.35600  0.84800  1.0000
  N   N1        1.0  0.62800  0.47700  0.11600  1.0000
  N   N2        1.0  0.13000  0.61900  0.16500  1.0000
  N   N3        1.0  0.87000  0.11900  0.33500  1.0000
  N   N4        1.0  0.37200  0.97700  0.38400  1.0000
  N   N5        1.0  0.87200  0.52300  0.61600  1.0000
  N   N6        1.0  0.37000  0.38100  0.66500  1.0000
  N   N7        1.0  0.63000  0.88100  0.83500  1.0000
  N   N8        1.0  0.12800  0.02330  0.88400  1.0000
  O   O1        1.0  0.37600  0.80600  0.02020  1.0000
  O   O2        1.0  0.58800  0.43000  0.03660  1.0000
  O   O3        1.0  0.16100  0.52700  0.08770  1.0000
  O   O4        1.0  0.71000  0.99300  0.08800  1.0000
  O   O5        1.0  0.65500  0.65100  0.13400  1.0000
  O   O6        1.0  0.07720  0.77900  0.15800  1.0000
  O   O7        1.0  0.64200  0.37400  0.18200  1.0000
  O   O8        1.0  0.15300  0.53600  0.23700  1.0000
  O   O9        1.0  0.84700  0.03620  0.26300  1.0000
  O   O10       1.0  0.35800  0.87400  0.31800  1.0000
  O   O11       1.0  0.92300  0.27900  0.34200  1.0000
  O   O12       1.0  0.34500  0.15100  0.36600  1.0000
  O   O13       1.0  0.29000  0.49300  0.41200  1.0000
  O   O14       1.0  0.83900  0.02720  0.41200  1.0000
  O   O15       1.0  0.41200  0.93000  0.46300  1.0000
  O   O16       1.0  0.62400  0.30600  0.48000  1.0000
  O   O17       1.0  0.12400  0.19400  0.52000  1.0000
  O   O18       1.0  0.91200  0.57000  0.53700  1.0000
  O   O19       1.0  0.33900  0.47300  0.58800  1.0000
  O   O20       1.0  0.79000  0.00678  0.58800  1.0000
  O   O21       1.0  0.84500  0.34900  0.63400  1.0000
  O   O22       1.0  0.42300  0.22100  0.65800  1.0000
  O   O23       1.0  0.85800  0.62600  0.68200  1.0000
  O   O24       1.0  0.34700  0.46400  0.73700  1.0000
  O   O25       1.0  0.65300  0.96400  0.76300  1.0000
  O   O26       1.0  0.14200  0.12600  0.81800  1.0000
  O   O27       1.0  0.57700  0.72100  0.84200  1.0000
  O   O28       1.0  0.15500  0.84900  0.86600  1.0000
  O   O29       1.0  0.21000  0.50700  0.91200  1.0000
  O   O30       1.0  0.66100  0.97300  0.91200  1.0000
  O   O31       1.0  0.08780  0.06970  0.96300  1.0000
  O   O32       1.0  0.87600  0.69400  0.98000  1.0000
  V   V1        1.0  0.65400  0.82100  0.02640  1.0000
  V   V2        1.0  0.34600  0.32100  0.47400  1.0000
  V   V3        1.0  0.84600  0.17900  0.52600  1.0000
  V   V4        1.0  0.15400  0.67900  0.97400  1.0000
