data_image0
_chemical_formula_structural       Ca2Ni2O2Te2
_chemical_formula_sum              "Ca2 Ni2 O2 Te2"
_cell_length_a       3.51507
_cell_length_b       5.77041
_cell_length_c       7.20736
_cell_angle_alpha    90
_cell_angle_beta     75.8859
_cell_angle_gamma    90

_space_group_name_H-M_alt    "P 1"
_space_group_IT_number       1

loop_
  _space_group_symop_operation_xyz
  'x, y, z'

loop_
  _atom_site_type_symbol
  _atom_site_label
  _atom_site_symmetry_multiplicity
  _atom_site_fract_x
  _atom_site_fract_y
  _atom_site_fract_z
  _atom_site_occupancy
  Ca  Ca1       1.0  0.43700  0.75000  0.12600  1.0000
  Ca  Ca2       1.0  0.56300  0.25000  0.87400  1.0000
  Ni  Ni1       1.0  0.89600  0.25000  0.20800  1.0000
  Ni  Ni2       1.0  0.10400  0.75000  0.79200  1.0000
  O   O1        1.0  0.00000  0.00000  0.00000  1.0000
  O   O2        1.0  0.00000  0.50000  0.00000  1.0000
  Te  Te1       1.0  0.26200  0.25000  0.47700  1.0000
  Te  Te2       1.0  0.73800  0.75000  0.52300  1.0000
