data_image0
_chemical_formula_structural       Ni18Pt8Ti22
_chemical_formula_sum              "Ni18 Pt8 Ti22"
_cell_length_a       7.4491
_cell_length_b       7.45837
_cell_length_c       14.224
_cell_angle_alpha    95.2032
_cell_angle_beta     100.463
_cell_angle_gamma    60.0411

_space_group_name_H-M_alt    "P 1"
_space_group_IT_number       1

loop_
  _space_group_symop_operation_xyz
  'x, y, z'

loop_
  _atom_site_type_symbol
  _atom_site_label
  _atom_site_symmetry_multiplicity
  _atom_site_fract_x
  _atom_site_fract_y
  _atom_site_fract_z
  _atom_site_occupancy
  Ni  Ni1       1.0  0.01050  0.82900  0.02100  1.0000
  Ni  Ni2       1.0  0.66200  0.22700  0.17500  1.0000
  Ni  Ni3       1.0  0.05940  0.43700  0.17600  1.0000
  Ni  Ni4       1.0  0.45600  0.83100  0.17700  1.0000
  Ni  Ni5       1.0  0.12000  0.76000  0.25000  1.0000
  Ni  Ni6       1.0  0.71300  0.83100  0.32300  1.0000
  Ni  Ni7       1.0  0.50400  0.43700  0.32400  1.0000
  Ni  Ni8       1.0  0.11100  0.22700  0.32500  1.0000
  Ni  Ni9       1.0  0.16000  0.82900  0.47900  1.0000
  Ni  Ni10      1.0  0.84000  0.17100  0.52100  1.0000
  Ni  Ni11      1.0  0.88900  0.77300  0.67500  1.0000
  Ni  Ni12      1.0  0.49600  0.56300  0.67600  1.0000
  Ni  Ni13      1.0  0.28700  0.16900  0.67700  1.0000
  Ni  Ni14      1.0  0.88000  0.24000  0.75000  1.0000
  Ni  Ni15      1.0  0.54400  0.16900  0.82300  1.0000
  Ni  Ni16      1.0  0.94100  0.56300  0.82400  1.0000
  Ni  Ni17      1.0  0.33800  0.77300  0.82500  1.0000
  Ni  Ni18      1.0  0.99000  0.17100  0.97900  1.0000
  Pt  Pt1       1.0  0.35500  0.16800  0.06190  1.0000
  Pt  Pt2       1.0  0.68500  0.50300  0.06280  1.0000
  Pt  Pt3       1.0  0.81200  0.50300  0.43700  1.0000
  Pt  Pt4       1.0  0.47700  0.16800  0.43800  1.0000
  Pt  Pt5       1.0  0.52300  0.83200  0.56200  1.0000
  Pt  Pt6       1.0  0.18800  0.49700  0.56300  1.0000
  Pt  Pt7       1.0  0.31500  0.49700  0.93700  1.0000
  Pt  Pt8       1.0  0.64500  0.83200  0.93800  1.0000
  Ti  Ti1       1.0  0.00000  0.50000  0.00000  1.0000
  Ti  Ti2       1.0  0.67500  0.15900  0.00047  1.0000
  Ti  Ti3       1.0  0.33300  0.55000  0.13800  1.0000
  Ti  Ti4       1.0  0.78200  0.83700  0.14900  1.0000
  Ti  Ti5       1.0  0.05100  0.08210  0.15900  1.0000
  Ti  Ti6       1.0  0.41600  0.16900  0.25000  1.0000
  Ti  Ti7       1.0  0.75100  0.49800  0.25000  1.0000
  Ti  Ti8       1.0  0.86700  0.08210  0.34100  1.0000
  Ti  Ti9       1.0  0.38100  0.83700  0.35100  1.0000
  Ti  Ti10      1.0  0.11800  0.55000  0.36200  1.0000
  Ti  Ti11      1.0  0.16500  0.15900  0.50000  1.0000
  Ti  Ti12      1.0  0.50000  0.50000  0.50000  1.0000
  Ti  Ti13      1.0  0.83500  0.84100  0.50000  1.0000
  Ti  Ti14      1.0  0.88200  0.45000  0.63800  1.0000
  Ti  Ti15      1.0  0.61900  0.16300  0.64900  1.0000
  Ti  Ti16      1.0  0.13300  0.91800  0.65900  1.0000
  Ti  Ti17      1.0  0.24900  0.50200  0.75000  1.0000
  Ti  Ti18      1.0  0.58400  0.83100  0.75000  1.0000
  Ti  Ti19      1.0  0.94900  0.91800  0.84100  1.0000
  Ti  Ti20      1.0  0.21800  0.16300  0.85100  1.0000
  Ti  Ti21      1.0  0.66700  0.45000  0.86200  1.0000
  Ti  Ti22      1.0  0.32500  0.84100  0.00000  1.0000
