data_image0
_chemical_formula_structural       K8O28P8Zn4
_chemical_formula_sum              "K8 O28 P8 Zn4"
_cell_length_a       7.83643
_cell_length_b       7.83643
_cell_length_c       11.1864
_cell_angle_alpha    90
_cell_angle_beta     90
_cell_angle_gamma    90

_space_group_name_H-M_alt    "P 1"
_space_group_IT_number       1

loop_
  _space_group_symop_operation_xyz
  'x, y, z'

loop_
  _atom_site_type_symbol
  _atom_site_label
  _atom_site_symmetry_multiplicity
  _atom_site_fract_x
  _atom_site_fract_y
  _atom_site_fract_z
  _atom_site_occupancy
  K   K1        1.0  0.85300  0.14700  0.00000  1.0000
  K   K2        1.0  0.31400  0.31400  0.00000  1.0000
  K   K3        1.0  0.68600  0.68600  0.00000  1.0000
  K   K4        1.0  0.14700  0.85300  0.00000  1.0000
  K   K5        1.0  0.81400  0.18600  0.50000  1.0000
  K   K6        1.0  0.35300  0.35300  0.50000  1.0000
  K   K7        1.0  0.64700  0.64700  0.50000  1.0000
  K   K8        1.0  0.18600  0.81400  0.50000  1.0000
  O   O1        1.0  0.13700  0.13700  0.15100  1.0000
  O   O2        1.0  0.86300  0.86300  0.15100  1.0000
  O   O3        1.0  0.57900  0.19500  0.15400  1.0000
  O   O4        1.0  0.80500  0.42100  0.15400  1.0000
  O   O5        1.0  0.19500  0.57900  0.15400  1.0000
  O   O6        1.0  0.42100  0.80500  0.15400  1.0000
  O   O7        1.0  0.50000  0.50000  0.16300  1.0000
  O   O8        1.0  0.00000  0.00000  0.33700  1.0000
  O   O9        1.0  0.30500  0.07940  0.34600  1.0000
  O   O10       1.0  0.07940  0.30500  0.34600  1.0000
  O   O11       1.0  0.92100  0.69500  0.34600  1.0000
  O   O12       1.0  0.69500  0.92100  0.34600  1.0000
  O   O13       1.0  0.63700  0.36300  0.34900  1.0000
  O   O14       1.0  0.36300  0.63700  0.34900  1.0000
  O   O15       1.0  0.63700  0.36300  0.65100  1.0000
  O   O16       1.0  0.36300  0.63700  0.65100  1.0000
  O   O17       1.0  0.30500  0.07940  0.65400  1.0000
  O   O18       1.0  0.07940  0.30500  0.65400  1.0000
  O   O19       1.0  0.92100  0.69500  0.65400  1.0000
  O   O20       1.0  0.69500  0.92100  0.65400  1.0000
  O   O21       1.0  0.00000  0.00000  0.66300  1.0000
  O   O22       1.0  0.50000  0.50000  0.83700  1.0000
  O   O23       1.0  0.57900  0.19500  0.84600  1.0000
  O   O24       1.0  0.80500  0.42100  0.84600  1.0000
  O   O25       1.0  0.19500  0.57900  0.84600  1.0000
  O   O26       1.0  0.42100  0.80500  0.84600  1.0000
  O   O27       1.0  0.13700  0.13700  0.84900  1.0000
  O   O28       1.0  0.86300  0.86300  0.84900  1.0000
  P   P1        1.0  0.63800  0.36200  0.21400  1.0000
  P   P2        1.0  0.36200  0.63800  0.21400  1.0000
  P   P3        1.0  0.13800  0.13800  0.28600  1.0000
  P   P4        1.0  0.86200  0.86200  0.28600  1.0000
  P   P5        1.0  0.13800  0.13800  0.71400  1.0000
  P   P6        1.0  0.86200  0.86200  0.71400  1.0000
  P   P7        1.0  0.63800  0.36200  0.78600  1.0000
  P   P8        1.0  0.36200  0.63800  0.78600  1.0000
  Zn  Zn1       1.0  0.50000  0.00000  0.25000  1.0000
  Zn  Zn2       1.0  0.00000  0.50000  0.25000  1.0000
  Zn  Zn3       1.0  0.50000  0.00000  0.75000  1.0000
  Zn  Zn4       1.0  0.00000  0.50000  0.75000  1.0000
