data_image0
_chemical_formula_structural       Cu4H20O20P4
_chemical_formula_sum              "Cu4 H20 O20 P4"
_cell_length_a       6.58353
_cell_length_b       7.29954
_cell_length_c       8.7951
_cell_angle_alpha    90
_cell_angle_beta     90
_cell_angle_gamma    90

_space_group_name_H-M_alt    "P 1"
_space_group_IT_number       1

loop_
  _space_group_symop_operation_xyz
  'x, y, z'

loop_
  _atom_site_type_symbol
  _atom_site_label
  _atom_site_symmetry_multiplicity
  _atom_site_fract_x
  _atom_site_fract_y
  _atom_site_fract_z
  _atom_site_occupancy
  Cu  Cu1       1.0  0.27200  0.03180  0.09780  1.0000
  Cu  Cu2       1.0  0.72800  0.53200  0.40200  1.0000
  Cu  Cu3       1.0  0.22800  0.96800  0.59800  1.0000
  Cu  Cu4       1.0  0.77200  0.46800  0.90200  1.0000
  H   H1        1.0  0.18200  0.37000  0.03980  1.0000
  H   H2        1.0  0.88100  0.18400  0.05710  1.0000
  H   H3        1.0  0.86100  0.80400  0.11500  1.0000
  H   H4        1.0  0.48100  0.43900  0.15400  1.0000
  H   H5        1.0  0.44300  0.64700  0.17200  1.0000
  H   H6        1.0  0.55700  0.14700  0.32800  1.0000
  H   H7        1.0  0.51900  0.93900  0.34600  1.0000
  H   H8        1.0  0.13900  0.30400  0.38500  1.0000
  H   H9        1.0  0.11900  0.68400  0.44300  1.0000
  H   H10       1.0  0.81800  0.87000  0.46000  1.0000
  H   H11       1.0  0.31800  0.63000  0.54000  1.0000
  H   H12       1.0  0.61900  0.81600  0.55700  1.0000
  H   H13       1.0  0.63900  0.19600  0.61500  1.0000
  H   H14       1.0  0.01910  0.56100  0.65400  1.0000
  H   H15       1.0  0.05700  0.35300  0.67200  1.0000
  H   H16       1.0  0.94300  0.85300  0.82800  1.0000
  H   H17       1.0  0.98100  0.06100  0.84600  1.0000
  H   H18       1.0  0.36100  0.69600  0.88500  1.0000
  H   H19       1.0  0.38100  0.31600  0.94300  1.0000
  H   H20       1.0  0.68200  0.13000  0.96000  1.0000
  O   O1        1.0  0.00956  0.52600  0.02660  1.0000
  O   O2        1.0  0.30800  0.29100  0.04260  1.0000
  O   O3        1.0  0.22500  0.77600  0.14500  1.0000
  O   O4        1.0  0.55300  0.55400  0.17900  1.0000
  O   O5        1.0  0.01360  0.10400  0.18900  1.0000
  O   O6        1.0  0.98600  0.60400  0.31100  1.0000
  O   O7        1.0  0.44700  0.05390  0.32100  1.0000
  O   O8        1.0  0.77500  0.27600  0.35500  1.0000
  O   O9        1.0  0.69200  0.79100  0.45700  1.0000
  O   O10       1.0  0.99000  0.02620  0.47300  1.0000
  O   O11       1.0  0.49000  0.47400  0.52700  1.0000
  O   O12       1.0  0.19200  0.70900  0.54300  1.0000
  O   O13       1.0  0.27500  0.22400  0.64500  1.0000
  O   O14       1.0  0.94700  0.44600  0.67900  1.0000
  O   O15       1.0  0.48600  0.89600  0.68900  1.0000
  O   O16       1.0  0.51400  0.39600  0.81100  1.0000
  O   O17       1.0  0.05280  0.94600  0.82100  1.0000
  O   O18       1.0  0.72500  0.72400  0.85500  1.0000
  O   O19       1.0  0.80800  0.20900  0.95700  1.0000
  O   O20       1.0  0.51000  0.97400  0.97300  1.0000
  P   P1        1.0  0.01620  0.68000  0.14800  1.0000
  P   P2        1.0  0.98400  0.18000  0.35200  1.0000
  P   P3        1.0  0.48400  0.32000  0.64800  1.0000
  P   P4        1.0  0.51600  0.82000  0.85200  1.0000
