data_image0
_chemical_formula_structural       I16In16Se16
_chemical_formula_sum              "I16 In16 Se16"
_cell_length_a       10.2734
_cell_length_b       14.2793
_cell_length_c       14.2793
_cell_angle_alpha    97.4353
_cell_angle_beta     68.9163
_cell_angle_gamma    111.084

_space_group_name_H-M_alt    "P 1"
_space_group_IT_number       1

loop_
  _space_group_symop_operation_xyz
  'x, y, z'

loop_
  _atom_site_type_symbol
  _atom_site_label
  _atom_site_symmetry_multiplicity
  _atom_site_fract_x
  _atom_site_fract_y
  _atom_site_fract_z
  _atom_site_occupancy
  I   I1        1.0  0.95200  0.63100  0.08280  1.0000
  I   I2        1.0  0.43400  0.86500  0.08290  1.0000
  I   I3        1.0  0.96500  0.91700  0.13100  1.0000
  I   I4        1.0  0.43100  0.58300  0.13500  1.0000
  I   I5        1.0  0.48300  0.91700  0.36500  1.0000
  I   I6        1.0  0.67900  0.58300  0.36900  1.0000
  I   I7        1.0  0.15200  0.63500  0.41700  1.0000
  I   I8        1.0  0.90400  0.86900  0.41700  1.0000
  I   I9        1.0  0.09610  0.13100  0.58300  1.0000
  I   I10       1.0  0.84800  0.36500  0.58300  1.0000
  I   I11       1.0  0.32100  0.41700  0.63100  1.0000
  I   I12       1.0  0.51700  0.08290  0.63500  1.0000
  I   I13       1.0  0.56900  0.41700  0.86500  1.0000
  I   I14       1.0  0.03490  0.08280  0.86900  1.0000
  I   I15       1.0  0.56600  0.13500  0.91700  1.0000
  I   I16       1.0  0.04780  0.36900  0.91700  1.0000
  In  In1       1.0  0.42400  0.20100  0.09780  1.0000
  In  In2       1.0  0.85200  0.32800  0.10700  1.0000
  In  In3       1.0  0.95900  0.10700  0.17200  1.0000
  In  In4       1.0  0.22300  0.40200  0.20100  1.0000
  In  In5       1.0  0.52200  0.09780  0.29900  1.0000
  In  In6       1.0  0.52400  0.39300  0.32800  1.0000
  In  In7       1.0  0.13100  0.17200  0.39300  1.0000
  In  In8       1.0  0.82100  0.29900  0.40200  1.0000
  In  In9       1.0  0.17900  0.70100  0.59800  1.0000
  In  In10      1.0  0.86900  0.82800  0.60700  1.0000
  In  In11      1.0  0.47600  0.60700  0.67200  1.0000
  In  In12      1.0  0.47800  0.90200  0.70100  1.0000
  In  In13      1.0  0.77700  0.59800  0.79900  1.0000
  In  In14      1.0  0.04100  0.89300  0.82800  1.0000
  In  In15      1.0  0.14800  0.67200  0.89300  1.0000
  In  In16      1.0  0.57600  0.79900  0.90200  1.0000
  Se  Se1       1.0  0.21100  0.25000  0.07250  1.0000
  Se  Se2       1.0  0.74500  0.12900  0.12400  1.0000
  Se  Se3       1.0  0.61600  0.37600  0.12900  1.0000
  Se  Se4       1.0  0.28400  0.07250  0.25000  1.0000
  Se  Se5       1.0  0.96100  0.42700  0.25000  1.0000
  Se  Se6       1.0  0.86900  0.12400  0.37100  1.0000
  Se  Se7       1.0  0.24000  0.37100  0.37600  1.0000
  Se  Se8       1.0  0.53300  0.25000  0.42700  1.0000
  Se  Se9       1.0  0.46700  0.75000  0.57300  1.0000
  Se  Se10      1.0  0.76000  0.62900  0.62400  1.0000
  Se  Se11      1.0  0.13100  0.87600  0.62900  1.0000
  Se  Se12      1.0  0.03910  0.57300  0.75000  1.0000
  Se  Se13      1.0  0.71600  0.92700  0.75000  1.0000
  Se  Se14      1.0  0.38400  0.62400  0.87100  1.0000
  Se  Se15      1.0  0.25500  0.87100  0.87600  1.0000
  Se  Se16      1.0  0.78900  0.75000  0.92700  1.0000
