data_image0
_chemical_formula_structural       Cl12H24N8Sc4
_chemical_formula_sum              "Cl12 H24 N8 Sc4"
_cell_length_a       6.80988
_cell_length_b       9.70157
_cell_length_c       10.9018
_cell_angle_alpha    105.22
_cell_angle_beta     91.1144
_cell_angle_gamma    109.601

_space_group_name_H-M_alt    "P 1"
_space_group_IT_number       1

loop_
  _space_group_symop_operation_xyz
  'x, y, z'

loop_
  _atom_site_type_symbol
  _atom_site_label
  _atom_site_symmetry_multiplicity
  _atom_site_fract_x
  _atom_site_fract_y
  _atom_site_fract_z
  _atom_site_occupancy
  Cl  Cl1       1.0  0.34200  0.22500  0.07960  1.0000
  Cl  Cl2       1.0  0.84900  0.57700  0.13100  1.0000
  Cl  Cl3       1.0  0.98300  0.99100  0.24500  1.0000
  Cl  Cl4       1.0  0.50100  0.02720  0.26100  1.0000
  Cl  Cl5       1.0  0.13700  0.40700  0.34200  1.0000
  Cl  Cl6       1.0  0.66400  0.77900  0.46900  1.0000
  Cl  Cl7       1.0  0.33600  0.22100  0.53100  1.0000
  Cl  Cl8       1.0  0.86300  0.59300  0.65800  1.0000
  Cl  Cl9       1.0  0.49900  0.97300  0.73900  1.0000
  Cl  Cl10      1.0  0.01740  0.00921  0.75500  1.0000
  Cl  Cl11      1.0  0.15100  0.42300  0.86900  1.0000
  Cl  Cl12      1.0  0.65800  0.77500  0.92000  1.0000
  H   H1        1.0  0.78000  0.06110  0.00272  1.0000
  H   H2        1.0  0.70100  0.20800  0.05000  1.0000
  H   H3        1.0  0.95500  0.23400  0.06330  1.0000
  H   H4        1.0  0.48300  0.69300  0.09980  1.0000
  H   H5        1.0  0.30200  0.55000  0.13200  1.0000
  H   H6        1.0  0.47200  0.68500  0.24900  1.0000
  H   H7        1.0  0.66400  0.47700  0.29400  1.0000
  H   H8        1.0  0.75900  0.36000  0.33700  1.0000
  H   H9        1.0  0.22700  0.72700  0.42500  1.0000
  H   H10       1.0  0.01540  0.77700  0.43200  1.0000
  H   H11       1.0  0.67300  0.47200  0.44500  1.0000
  H   H12       1.0  0.25200  0.90900  0.46600  1.0000
  H   H13       1.0  0.74800  0.09080  0.53400  1.0000
  H   H14       1.0  0.32700  0.52800  0.55500  1.0000
  H   H15       1.0  0.98500  0.22300  0.56800  1.0000
  H   H16       1.0  0.77300  0.27300  0.57500  1.0000
  H   H17       1.0  0.24100  0.64000  0.66300  1.0000
  H   H18       1.0  0.33500  0.52300  0.70600  1.0000
  H   H19       1.0  0.52800  0.31500  0.75100  1.0000
  H   H20       1.0  0.69800  0.45000  0.86800  1.0000
  H   H21       1.0  0.51700  0.30700  0.90000  1.0000
  H   H22       1.0  0.04450  0.76600  0.93700  1.0000
  H   H23       1.0  0.29900  0.79200  0.95000  1.0000
  H   H24       1.0  0.22000  0.93900  0.99700  1.0000
  N   N1        1.0  0.81600  0.17400  0.00539  1.0000
  N   N2        1.0  0.38100  0.66500  0.16500  1.0000
  N   N3        1.0  0.64000  0.40400  0.35100  1.0000
  N   N4        1.0  0.16500  0.80300  0.40600  1.0000
  N   N5        1.0  0.83500  0.19700  0.59400  1.0000
  N   N6        1.0  0.36000  0.59600  0.64900  1.0000
  N   N7        1.0  0.61900  0.33500  0.83500  1.0000
  N   N8        1.0  0.18400  0.82600  0.99500  1.0000
  Sc  Sc1       1.0  0.15900  0.79800  0.19500  1.0000
  Sc  Sc2       1.0  0.31700  0.22400  0.30500  1.0000
  Sc  Sc3       1.0  0.68300  0.77600  0.69500  1.0000
  Sc  Sc4       1.0  0.84100  0.20200  0.80500  1.0000
