data_image0
_chemical_formula_structural       Ni9Sb10Ti10
_chemical_formula_sum              "Ni9 Sb10 Ti10"
_cell_length_a       7.2427
_cell_length_b       8.34592
_cell_length_c       9.3282
_cell_angle_alpha    77.0898
_cell_angle_beta     82.6269
_cell_angle_gamma    106.82

_space_group_name_H-M_alt    "P 1"
_space_group_IT_number       1

loop_
  _space_group_symop_operation_xyz
  'x, y, z'

loop_
  _atom_site_type_symbol
  _atom_site_label
  _atom_site_symmetry_multiplicity
  _atom_site_fract_x
  _atom_site_fract_y
  _atom_site_fract_z
  _atom_site_occupancy
  Ni  Ni1       1.0  0.35900  0.07860  0.05020  1.0000
  Ni  Ni2       1.0  0.35000  0.57200  0.05060  1.0000
  Ni  Ni3       1.0  0.74600  0.36900  0.25500  1.0000
  Ni  Ni4       1.0  0.74800  0.87600  0.25700  1.0000
  Ni  Ni5       1.0  0.14900  0.17900  0.44400  1.0000
  Ni  Ni6       1.0  0.15000  0.67300  0.44600  1.0000
  Ni  Ni7       1.0  0.55400  0.97800  0.64800  1.0000
  Ni  Ni8       1.0  0.54400  0.47100  0.65000  1.0000
  Ni  Ni9       1.0  0.95100  0.27700  0.84800  1.0000
  Sb  Sb1       1.0  0.71300  0.15300  0.09790  1.0000
  Sb  Sb2       1.0  0.70100  0.65100  0.10200  1.0000
  Sb  Sb3       1.0  0.09710  0.45200  0.29300  1.0000
  Sb  Sb4       1.0  0.10200  0.95000  0.29800  1.0000
  Sb  Sb5       1.0  0.49100  0.24400  0.50200  1.0000
  Sb  Sb6       1.0  0.49400  0.74900  0.50700  1.0000
  Sb  Sb7       1.0  0.89700  0.55100  0.69900  1.0000
  Sb  Sb8       1.0  0.90200  0.04960  0.70100  1.0000
  Sb  Sb9       1.0  0.30700  0.84900  0.89800  1.0000
  Sb  Sb10      1.0  0.29500  0.35000  0.90100  1.0000
  Ti  Ti1       1.0  0.40300  0.80000  0.19700  1.0000
  Ti  Ti2       1.0  0.40500  0.30300  0.19700  1.0000
  Ti  Ti3       1.0  0.79900  0.60100  0.40100  1.0000
  Ti  Ti4       1.0  0.80000  0.09790  0.40500  1.0000
  Ti  Ti5       1.0  0.19600  0.39900  0.60000  1.0000
  Ti  Ti6       1.0  0.16900  0.88400  0.63000  1.0000
  Ti  Ti7       1.0  0.60200  0.20000  0.80000  1.0000
  Ti  Ti8       1.0  0.63600  0.70900  0.80700  1.0000
  Ti  Ti9       1.0  0.99400  0.53600  0.98200  1.0000
  Ti  Ti10      1.0  0.99700  0.97200  0.98300  1.0000
