data_image0
_chemical_formula_structural       Cu2Ho4K2Mo8O32
_chemical_formula_sum              "Cu2 Ho4 K2 Mo8 O32"
_cell_length_a       5.19503
_cell_length_b       6.7412
_cell_length_c       19.3012
_cell_angle_alpha    91.1644
_cell_angle_beta     93.0257
_cell_angle_gamma    67.3365

_space_group_name_H-M_alt    "P 1"
_space_group_IT_number       1

loop_
  _space_group_symop_operation_xyz
  'x, y, z'

loop_
  _atom_site_type_symbol
  _atom_site_label
  _atom_site_symmetry_multiplicity
  _atom_site_fract_x
  _atom_site_fract_y
  _atom_site_fract_z
  _atom_site_occupancy
  Cu  Cu1       1.0  0.31000  0.38100  0.25000  1.0000
  Cu  Cu2       1.0  0.69000  0.61900  0.75000  1.0000
  Ho  Ho1       1.0  0.14500  0.70600  0.03170  1.0000
  Ho  Ho2       1.0  0.14800  0.70600  0.46800  1.0000
  Ho  Ho3       1.0  0.85200  0.29400  0.53200  1.0000
  Ho  Ho4       1.0  0.85500  0.29400  0.96800  1.0000
  K   K1        1.0  0.02930  0.94100  0.25000  1.0000
  K   K2        1.0  0.97100  0.05870  0.75000  1.0000
  Mo  Mo1       1.0  0.45400  0.12300  0.09270  1.0000
  Mo  Mo2       1.0  0.74800  0.51800  0.14800  1.0000
  Mo  Mo3       1.0  0.73300  0.51800  0.35200  1.0000
  Mo  Mo4       1.0  0.42300  0.12300  0.40700  1.0000
  Mo  Mo5       1.0  0.57700  0.87700  0.59300  1.0000
  Mo  Mo6       1.0  0.26700  0.48200  0.64800  1.0000
  Mo  Mo7       1.0  0.25200  0.48200  0.85200  1.0000
  Mo  Mo8       1.0  0.54600  0.87700  0.90700  1.0000
  O   O1        1.0  0.21700  0.03780  0.03660  1.0000
  O   O2        1.0  0.49400  0.34000  0.04180  1.0000
  O   O3        1.0  0.94500  0.47500  0.06690  1.0000
  O   O4        1.0  0.77700  0.89800  0.10300  1.0000
  O   O5        1.0  0.39200  0.70300  0.13200  1.0000
  O   O6        1.0  0.73000  0.27400  0.17200  1.0000
  O   O7        1.0  0.29600  0.17700  0.17300  1.0000
  O   O8        1.0  0.93100  0.59800  0.21600  1.0000
  O   O9        1.0  0.47100  0.59800  0.28400  1.0000
  O   O10       1.0  0.52700  0.17700  0.32700  1.0000
  O   O11       1.0  0.99600  0.27400  0.32800  1.0000
  O   O12       1.0  0.90400  0.70300  0.36800  1.0000
  O   O13       1.0  0.32500  0.89800  0.39700  1.0000
  O   O14       1.0  0.58000  0.47500  0.43300  1.0000
  O   O15       1.0  0.16600  0.34000  0.45800  1.0000
  O   O16       1.0  0.74500  0.03780  0.46300  1.0000
  O   O17       1.0  0.25500  0.96200  0.53700  1.0000
  O   O18       1.0  0.83400  0.66000  0.54200  1.0000
  O   O19       1.0  0.42000  0.52500  0.56700  1.0000
  O   O20       1.0  0.67500  0.10200  0.60300  1.0000
  O   O21       1.0  0.09570  0.29700  0.63200  1.0000
  O   O22       1.0  0.00403  0.72600  0.67200  1.0000
  O   O23       1.0  0.47300  0.82300  0.67300  1.0000
  O   O24       1.0  0.52900  0.40200  0.71600  1.0000
  O   O25       1.0  0.06880  0.40200  0.78400  1.0000
  O   O26       1.0  0.70400  0.82300  0.82700  1.0000
  O   O27       1.0  0.27000  0.72600  0.82800  1.0000
  O   O28       1.0  0.60800  0.29700  0.86800  1.0000
  O   O29       1.0  0.22300  0.10200  0.89700  1.0000
  O   O30       1.0  0.05530  0.52500  0.93300  1.0000
  O   O31       1.0  0.50600  0.66000  0.95800  1.0000
  O   O32       1.0  0.78300  0.96200  0.96300  1.0000
