data_image0
_chemical_formula_structural       Cr4F40Sb4
_chemical_formula_sum              "Cr4 F40 Sb4"
_cell_length_a       5.06109
_cell_length_b       9.45828
_cell_length_c       11.2856
_cell_angle_alpha    90
_cell_angle_beta     98.7602
_cell_angle_gamma    90

_space_group_name_H-M_alt    "P 1"
_space_group_IT_number       1

loop_
  _space_group_symop_operation_xyz
  'x, y, z'

loop_
  _atom_site_type_symbol
  _atom_site_label
  _atom_site_symmetry_multiplicity
  _atom_site_fract_x
  _atom_site_fract_y
  _atom_site_fract_z
  _atom_site_occupancy
  Cr  Cr1       1.0  0.33800  0.24500  0.21900  1.0000
  Cr  Cr2       1.0  0.66200  0.74500  0.28100  1.0000
  Cr  Cr3       1.0  0.33800  0.25500  0.71900  1.0000
  Cr  Cr4       1.0  0.66200  0.75500  0.78100  1.0000
  F   F1        1.0  0.18600  0.66800  0.04680  1.0000
  F   F2        1.0  0.21700  0.16900  0.05250  1.0000
  F   F3        1.0  0.70300  0.08130  0.05450  1.0000
  F   F4        1.0  0.70000  0.57500  0.05700  1.0000
  F   F5        1.0  0.58200  0.82600  0.14600  1.0000
  F   F6        1.0  0.57300  0.32600  0.14900  1.0000
  F   F7        1.0  0.10300  0.92000  0.15300  1.0000
  F   F8        1.0  0.12000  0.41800  0.16000  1.0000
  F   F9        1.0  0.02890  0.18600  0.24100  1.0000
  F   F10       1.0  0.48900  0.59200  0.24600  1.0000
  F   F11       1.0  0.51100  0.09210  0.25400  1.0000
  F   F12       1.0  0.97100  0.68600  0.25900  1.0000
  F   F13       1.0  0.88000  0.91800  0.34000  1.0000
  F   F14       1.0  0.89700  0.42000  0.34700  1.0000
  F   F15       1.0  0.42700  0.82600  0.35100  1.0000
  F   F16       1.0  0.41800  0.32600  0.35400  1.0000
  F   F17       1.0  0.30000  0.07530  0.44300  1.0000
  F   F18       1.0  0.29700  0.58100  0.44500  1.0000
  F   F19       1.0  0.78300  0.66900  0.44700  1.0000
  F   F20       1.0  0.81400  0.16800  0.45300  1.0000
  F   F21       1.0  0.18600  0.83200  0.54700  1.0000
  F   F22       1.0  0.21700  0.33100  0.55300  1.0000
  F   F23       1.0  0.70300  0.41900  0.55500  1.0000
  F   F24       1.0  0.70000  0.92500  0.55700  1.0000
  F   F25       1.0  0.58200  0.67400  0.64600  1.0000
  F   F26       1.0  0.57300  0.17400  0.64900  1.0000
  F   F27       1.0  0.10300  0.58000  0.65300  1.0000
  F   F28       1.0  0.12000  0.08230  0.66000  1.0000
  F   F29       1.0  0.02890  0.31400  0.74100  1.0000
  F   F30       1.0  0.48900  0.90800  0.74600  1.0000
  F   F31       1.0  0.51100  0.40800  0.75400  1.0000
  F   F32       1.0  0.97100  0.81400  0.75900  1.0000
  F   F33       1.0  0.88000  0.58200  0.84000  1.0000
  F   F34       1.0  0.89700  0.08030  0.84700  1.0000
  F   F35       1.0  0.42700  0.67400  0.85100  1.0000
  F   F36       1.0  0.41800  0.17400  0.85400  1.0000
  F   F37       1.0  0.30000  0.42500  0.94300  1.0000
  F   F38       1.0  0.29700  0.91900  0.94500  1.0000
  F   F39       1.0  0.78300  0.83100  0.94700  1.0000
  F   F40       1.0  0.81400  0.33200  0.95300  1.0000
  Sb  Sb1       1.0  0.00000  0.00000  0.00000  1.0000
  Sb  Sb2       1.0  0.00000  0.50000  0.00000  1.0000
  Sb  Sb3       1.0  0.00000  0.00000  0.50000  1.0000
  Sb  Sb4       1.0  0.00000  0.50000  0.50000  1.0000
