data_image0
_chemical_formula_structural       Ag8O28P8Zn4
_chemical_formula_sum              "Ag8 O28 P8 Zn4"
_cell_length_a       7.75319
_cell_length_b       7.75319
_cell_length_c       10.3747
_cell_angle_alpha    90
_cell_angle_beta     90
_cell_angle_gamma    90

_space_group_name_H-M_alt    "P 1"
_space_group_IT_number       1

loop_
  _space_group_symop_operation_xyz
  'x, y, z'

loop_
  _atom_site_type_symbol
  _atom_site_label
  _atom_site_symmetry_multiplicity
  _atom_site_fract_x
  _atom_site_fract_y
  _atom_site_fract_z
  _atom_site_occupancy
  Ag  Ag1       1.0  0.80100  0.19900  0.00000  1.0000
  Ag  Ag2       1.0  0.36300  0.36300  0.00000  1.0000
  Ag  Ag3       1.0  0.63700  0.63700  0.00000  1.0000
  Ag  Ag4       1.0  0.19900  0.80100  0.00000  1.0000
  Ag  Ag5       1.0  0.86300  0.13700  0.50000  1.0000
  Ag  Ag6       1.0  0.30100  0.30100  0.50000  1.0000
  Ag  Ag7       1.0  0.69900  0.69900  0.50000  1.0000
  Ag  Ag8       1.0  0.13700  0.86300  0.50000  1.0000
  O   O1        1.0  0.30900  0.08050  0.14400  1.0000
  O   O2        1.0  0.08050  0.30900  0.14400  1.0000
  O   O3        1.0  0.91900  0.69100  0.14400  1.0000
  O   O4        1.0  0.69100  0.91900  0.14400  1.0000
  O   O5        1.0  0.63600  0.36400  0.14700  1.0000
  O   O6        1.0  0.36400  0.63600  0.14700  1.0000
  O   O7        1.0  0.00000  0.00000  0.15200  1.0000
  O   O8        1.0  0.50000  0.50000  0.34800  1.0000
  O   O9        1.0  0.13600  0.13600  0.35300  1.0000
  O   O10       1.0  0.86400  0.86400  0.35300  1.0000
  O   O11       1.0  0.58100  0.19100  0.35600  1.0000
  O   O12       1.0  0.80900  0.41900  0.35600  1.0000
  O   O13       1.0  0.19100  0.58100  0.35600  1.0000
  O   O14       1.0  0.41900  0.80900  0.35600  1.0000
  O   O15       1.0  0.58100  0.19100  0.64400  1.0000
  O   O16       1.0  0.80900  0.41900  0.64400  1.0000
  O   O17       1.0  0.19100  0.58100  0.64400  1.0000
  O   O18       1.0  0.41900  0.80900  0.64400  1.0000
  O   O19       1.0  0.13600  0.13600  0.64700  1.0000
  O   O20       1.0  0.86400  0.86400  0.64700  1.0000
  O   O21       1.0  0.50000  0.50000  0.65200  1.0000
  O   O22       1.0  0.00000  0.00000  0.84800  1.0000
  O   O23       1.0  0.63600  0.36400  0.85300  1.0000
  O   O24       1.0  0.36400  0.63600  0.85300  1.0000
  O   O25       1.0  0.30900  0.08050  0.85600  1.0000
  O   O26       1.0  0.08050  0.30900  0.85600  1.0000
  O   O27       1.0  0.91900  0.69100  0.85600  1.0000
  O   O28       1.0  0.69100  0.91900  0.85600  1.0000
  P   P1        1.0  0.13900  0.13900  0.20700  1.0000
  P   P2        1.0  0.86100  0.86100  0.20700  1.0000
  P   P3        1.0  0.63900  0.36100  0.29300  1.0000
  P   P4        1.0  0.36100  0.63900  0.29300  1.0000
  P   P5        1.0  0.63900  0.36100  0.70700  1.0000
  P   P6        1.0  0.36100  0.63900  0.70700  1.0000
  P   P7        1.0  0.13900  0.13900  0.79300  1.0000
  P   P8        1.0  0.86100  0.86100  0.79300  1.0000
  Zn  Zn1       1.0  0.50000  0.00000  0.25000  1.0000
  Zn  Zn2       1.0  0.00000  0.50000  0.25000  1.0000
  Zn  Zn3       1.0  0.50000  0.00000  0.75000  1.0000
  Zn  Zn4       1.0  0.00000  0.50000  0.75000  1.0000
