data_image0
_chemical_formula_structural       B8K12O24Sm4
_chemical_formula_sum              "B8 K12 O24 Sm4"
_cell_length_a       8.96956
_cell_length_b       7.10706
_cell_length_c       11.084
_cell_angle_alpha    90
_cell_angle_beta     90
_cell_angle_gamma    90

_space_group_name_H-M_alt    "P 1"
_space_group_IT_number       1

loop_
  _space_group_symop_operation_xyz
  'x, y, z'

loop_
  _atom_site_type_symbol
  _atom_site_label
  _atom_site_symmetry_multiplicity
  _atom_site_fract_x
  _atom_site_fract_y
  _atom_site_fract_z
  _atom_site_occupancy
  B   B1        1.0  0.90900  0.25000  0.11800  1.0000
  B   B2        1.0  0.56000  0.75000  0.12300  1.0000
  B   B3        1.0  0.06040  0.75000  0.37700  1.0000
  B   B4        1.0  0.40900  0.25000  0.38200  1.0000
  B   B5        1.0  0.59100  0.75000  0.61800  1.0000
  B   B6        1.0  0.94000  0.25000  0.62300  1.0000
  B   B7        1.0  0.44000  0.25000  0.87700  1.0000
  B   B8        1.0  0.09090  0.75000  0.88200  1.0000
  K   K1        1.0  0.19800  0.00496  0.09780  1.0000
  K   K2        1.0  0.19800  0.49500  0.09780  1.0000
  K   K3        1.0  0.56200  0.25000  0.13300  1.0000
  K   K4        1.0  0.06210  0.25000  0.36700  1.0000
  K   K5        1.0  0.69800  0.00496  0.40200  1.0000
  K   K6        1.0  0.69800  0.49500  0.40200  1.0000
  K   K7        1.0  0.30200  0.50500  0.59800  1.0000
  K   K8        1.0  0.30200  0.99500  0.59800  1.0000
  K   K9        1.0  0.93800  0.75000  0.63300  1.0000
  K   K10       1.0  0.43800  0.75000  0.86700  1.0000
  K   K11       1.0  0.80200  0.50500  0.90200  1.0000
  K   K12       1.0  0.80200  0.99500  0.90200  1.0000
  O   O1        1.0  0.99000  0.25000  0.01040  1.0000
  O   O2        1.0  0.66000  0.75000  0.02970  1.0000
  O   O3        1.0  0.40800  0.75000  0.11200  1.0000
  O   O4        1.0  0.87000  0.08060  0.17200  1.0000
  O   O5        1.0  0.87000  0.41900  0.17200  1.0000
  O   O6        1.0  0.61900  0.75000  0.24100  1.0000
  O   O7        1.0  0.11900  0.75000  0.25900  1.0000
  O   O8        1.0  0.37000  0.08060  0.32800  1.0000
  O   O9        1.0  0.37000  0.41900  0.32800  1.0000
  O   O10       1.0  0.90800  0.75000  0.38800  1.0000
  O   O11       1.0  0.16000  0.75000  0.47000  1.0000
  O   O12       1.0  0.49000  0.25000  0.49000  1.0000
  O   O13       1.0  0.51000  0.75000  0.51000  1.0000
  O   O14       1.0  0.84000  0.25000  0.53000  1.0000
  O   O15       1.0  0.09200  0.25000  0.61200  1.0000
  O   O16       1.0  0.63000  0.58100  0.67200  1.0000
  O   O17       1.0  0.63000  0.91900  0.67200  1.0000
  O   O18       1.0  0.88100  0.25000  0.74100  1.0000
  O   O19       1.0  0.38100  0.25000  0.75900  1.0000
  O   O20       1.0  0.13000  0.58100  0.82800  1.0000
  O   O21       1.0  0.13000  0.91900  0.82800  1.0000
  O   O22       1.0  0.59200  0.25000  0.88800  1.0000
  O   O23       1.0  0.34000  0.25000  0.97000  1.0000
  O   O24       1.0  0.01000  0.75000  0.99000  1.0000
  Sm  Sm1       1.0  0.87300  0.75000  0.17000  1.0000
  Sm  Sm2       1.0  0.37300  0.75000  0.33000  1.0000
  Sm  Sm3       1.0  0.62700  0.25000  0.67000  1.0000
  Sm  Sm4       1.0  0.12700  0.25000  0.83000  1.0000
