data_image0
_chemical_formula_structural       C14CoCsH24N8
_chemical_formula_sum              "C14 Co1 Cs1 H24 N8"
_cell_length_a       8.83797
_cell_length_b       8.88422
_cell_length_c       8.88422
_cell_angle_alpha    120.053
_cell_angle_beta     60.0074
_cell_angle_gamma    119.993

_space_group_name_H-M_alt    "P 1"
_space_group_IT_number       1

loop_
  _space_group_symop_operation_xyz
  'x, y, z'

loop_
  _atom_site_type_symbol
  _atom_site_label
  _atom_site_symmetry_multiplicity
  _atom_site_fract_x
  _atom_site_fract_y
  _atom_site_fract_z
  _atom_site_occupancy
  C   C1        1.0  0.33000  0.68000  0.04420  1.0000
  C   C2        1.0  0.85600  0.15400  0.14400  1.0000
  C   C3        1.0  0.83900  0.85200  0.14800  1.0000
  C   C4        1.0  0.14400  0.14400  0.15400  1.0000
  C   C5        1.0  0.04280  0.69700  0.30300  1.0000
  C   C6        1.0  0.33000  0.95600  0.32000  1.0000
  C   C7        1.0  0.28800  0.66900  0.33100  1.0000
  C   C8        1.0  0.71200  0.33100  0.66900  1.0000
  C   C9        1.0  0.67000  0.04420  0.68000  1.0000
  C   C10       1.0  0.95700  0.30300  0.69700  1.0000
  C   C11       1.0  0.85600  0.85600  0.84600  1.0000
  C   C12       1.0  0.16100  0.14800  0.85200  1.0000
  C   C13       1.0  0.14400  0.84600  0.85600  1.0000
  C   C14       1.0  0.67000  0.32000  0.95600  1.0000
  Co  Co1       1.0  0.00000  0.00000  0.00000  1.0000
  Cs  Cs1       1.0  0.50000  0.50000  0.50000  1.0000
  H   H1        1.0  0.73200  0.47000  0.00430  1.0000
  H   H2        1.0  0.48000  0.71900  0.00593  1.0000
  H   H3        1.0  0.70000  0.26000  0.01530  1.0000
  H   H4        1.0  0.01440  0.75700  0.24300  1.0000
  H   H5        1.0  0.98400  0.54600  0.25200  1.0000
  H   H6        1.0  0.30000  0.01530  0.26000  1.0000
  H   H7        1.0  0.22800  0.51800  0.27900  1.0000
  H   H8        1.0  0.48000  0.99400  0.28100  1.0000
  H   H9        1.0  0.43900  0.71000  0.29000  1.0000
  H   H10       1.0  0.98400  0.74800  0.45400  1.0000
  H   H11       1.0  0.26800  0.00430  0.47000  1.0000
  H   H12       1.0  0.22800  0.72100  0.48200  1.0000
  H   H13       1.0  0.77200  0.27900  0.51800  1.0000
  H   H14       1.0  0.73200  0.99600  0.53000  1.0000
  H   H15       1.0  0.01600  0.25200  0.54600  1.0000
  H   H16       1.0  0.56100  0.29000  0.71000  1.0000
  H   H17       1.0  0.52000  0.00593  0.71900  1.0000
  H   H18       1.0  0.77200  0.48200  0.72100  1.0000
  H   H19       1.0  0.70000  0.98500  0.74000  1.0000
  H   H20       1.0  0.01600  0.45400  0.74800  1.0000
  H   H21       1.0  0.98600  0.24300  0.75700  1.0000
  H   H22       1.0  0.30000  0.74000  0.98500  1.0000
  H   H23       1.0  0.52000  0.28100  0.99400  1.0000
  H   H24       1.0  0.26800  0.53000  0.99600  1.0000
  N   N1        1.0  0.76500  0.25100  0.23600  1.0000
  N   N2        1.0  0.73900  0.75800  0.24200  1.0000
  N   N3        1.0  0.24800  0.75100  0.24900  1.0000
  N   N4        1.0  0.23500  0.23600  0.25100  1.0000
  N   N5        1.0  0.76500  0.76400  0.74900  1.0000
  N   N6        1.0  0.75200  0.24900  0.75100  1.0000
  N   N7        1.0  0.26100  0.24200  0.75800  1.0000
  N   N8        1.0  0.23500  0.74900  0.76400  1.0000
