data_image0
_chemical_formula_structural       H16Na4O24S4Zn2
_chemical_formula_sum              "H16 Na4 O24 S4 Zn2"
_cell_length_a       10.8569
_cell_length_b       8.06262
_cell_length_c       5.39713
_cell_angle_alpha    90
_cell_angle_beta     99.6394
_cell_angle_gamma    90

_space_group_name_H-M_alt    "P 1"
_space_group_IT_number       1

loop_
  _space_group_symop_operation_xyz
  'x, y, z'

loop_
  _atom_site_type_symbol
  _atom_site_label
  _atom_site_symmetry_multiplicity
  _atom_site_fract_x
  _atom_site_fract_y
  _atom_site_fract_z
  _atom_site_occupancy
  H   H1        1.0  0.84200  0.85500  0.21600  1.0000
  H   H2        1.0  0.34200  0.64500  0.21600  1.0000
  H   H3        1.0  0.51000  0.78300  0.23400  1.0000
  H   H4        1.0  0.00979  0.71700  0.23400  1.0000
  H   H5        1.0  0.31700  0.44700  0.23700  1.0000
  H   H6        1.0  0.81700  0.05260  0.23700  1.0000
  H   H7        1.0  0.13800  0.79900  0.33300  1.0000
  H   H8        1.0  0.63800  0.70100  0.33300  1.0000
  H   H9        1.0  0.36200  0.29900  0.66700  1.0000
  H   H10       1.0  0.86200  0.20100  0.66700  1.0000
  H   H11       1.0  0.18300  0.94700  0.76300  1.0000
  H   H12       1.0  0.68300  0.55300  0.76300  1.0000
  H   H13       1.0  0.49000  0.21700  0.76600  1.0000
  H   H14       1.0  0.99000  0.28300  0.76600  1.0000
  H   H15       1.0  0.15800  0.14500  0.78400  1.0000
  H   H16       1.0  0.65800  0.35500  0.78400  1.0000
  Na  Na1       1.0  0.86300  0.42000  0.12200  1.0000
  Na  Na2       1.0  0.36300  0.08040  0.12200  1.0000
  Na  Na3       1.0  0.13700  0.58000  0.87800  1.0000
  Na  Na4       1.0  0.63700  0.92000  0.87800  1.0000
  O   O1        1.0  0.33300  0.53900  0.11900  1.0000
  O   O2        1.0  0.83300  0.96100  0.11900  1.0000
  O   O3        1.0  0.07790  0.78000  0.17500  1.0000
  O   O4        1.0  0.57800  0.72000  0.17500  1.0000
  O   O5        1.0  0.07880  0.42000  0.21700  1.0000
  O   O6        1.0  0.57900  0.07960  0.21700  1.0000
  O   O7        1.0  0.07520  0.12800  0.33400  1.0000
  O   O8        1.0  0.57500  0.37200  0.33400  1.0000
  O   O9        1.0  0.36900  0.83300  0.34500  1.0000
  O   O10       1.0  0.86900  0.66700  0.34500  1.0000
  O   O11       1.0  0.27400  0.27700  0.36700  1.0000
  O   O12       1.0  0.77400  0.22300  0.36700  1.0000
  O   O13       1.0  0.22600  0.77700  0.63300  1.0000
  O   O14       1.0  0.72600  0.72300  0.63300  1.0000
  O   O15       1.0  0.13100  0.33300  0.65500  1.0000
  O   O16       1.0  0.63100  0.16700  0.65500  1.0000
  O   O17       1.0  0.42500  0.62800  0.66600  1.0000
  O   O18       1.0  0.92500  0.87200  0.66600  1.0000
  O   O19       1.0  0.42100  0.92000  0.78300  1.0000
  O   O20       1.0  0.92100  0.58000  0.78300  1.0000
  O   O21       1.0  0.42200  0.28000  0.82500  1.0000
  O   O22       1.0  0.92200  0.22000  0.82500  1.0000
  O   O23       1.0  0.16700  0.03880  0.88100  1.0000
  O   O24       1.0  0.66700  0.46100  0.88100  1.0000
  S   S1        1.0  0.13800  0.29100  0.38600  1.0000
  S   S2        1.0  0.63800  0.20900  0.38600  1.0000
  S   S3        1.0  0.36200  0.79100  0.61400  1.0000
  S   S4        1.0  0.86200  0.70900  0.61400  1.0000
  Zn  Zn1       1.0  0.00000  0.00000  0.00000  1.0000
  Zn  Zn2       1.0  0.50000  0.50000  0.00000  1.0000
