data_image0
_chemical_formula_structural       Li8Mg4O16Si4
_chemical_formula_sum              "Li8 Mg4 O16 Si4"
_cell_length_a       6.26946
_cell_length_b       10.6746
_cell_length_c       4.96443
_cell_angle_alpha    90
_cell_angle_beta     90.6194
_cell_angle_gamma    90

_space_group_name_H-M_alt    "P 1"
_space_group_IT_number       1

loop_
  _space_group_symop_operation_xyz
  'x, y, z'

loop_
  _atom_site_type_symbol
  _atom_site_label
  _atom_site_symmetry_multiplicity
  _atom_site_fract_x
  _atom_site_fract_y
  _atom_site_fract_z
  _atom_site_occupancy
  Li  Li1       1.0  0.50400  0.66300  0.19100  1.0000
  Li  Li2       1.0  0.73800  0.42400  0.20600  1.0000
  Li  Li3       1.0  0.76200  0.92400  0.29400  1.0000
  Li  Li4       1.0  0.99600  0.16300  0.30900  1.0000
  Li  Li5       1.0  0.00358  0.83700  0.69100  1.0000
  Li  Li6       1.0  0.23800  0.07580  0.70600  1.0000
  Li  Li7       1.0  0.26200  0.57600  0.79400  1.0000
  Li  Li8       1.0  0.49600  0.33700  0.80900  1.0000
  Mg  Mg1       1.0  0.00065  0.66500  0.19200  1.0000
  Mg  Mg2       1.0  0.49900  0.16500  0.30800  1.0000
  Mg  Mg3       1.0  0.50100  0.83500  0.69200  1.0000
  Mg  Mg4       1.0  0.99900  0.33500  0.80800  1.0000
  O   O1        1.0  0.74700  0.09040  0.14600  1.0000
  O   O2        1.0  0.03080  0.34100  0.20600  1.0000
  O   O3        1.0  0.46100  0.33900  0.20700  1.0000
  O   O4        1.0  0.25100  0.55900  0.20900  1.0000
  O   O5        1.0  0.24900  0.05890  0.29100  1.0000
  O   O6        1.0  0.03870  0.83900  0.29300  1.0000
  O   O7        1.0  0.46900  0.84100  0.29400  1.0000
  O   O8        1.0  0.75300  0.59000  0.35400  1.0000
  O   O9        1.0  0.24700  0.41000  0.64600  1.0000
  O   O10       1.0  0.53100  0.15900  0.70600  1.0000
  O   O11       1.0  0.96100  0.16100  0.70700  1.0000
  O   O12       1.0  0.75100  0.94100  0.70900  1.0000
  O   O13       1.0  0.74900  0.44100  0.79100  1.0000
  O   O14       1.0  0.53900  0.66100  0.79300  1.0000
  O   O15       1.0  0.96900  0.65900  0.79400  1.0000
  O   O16       1.0  0.25300  0.91000  0.85400  1.0000
  Si  Si1       1.0  0.25100  0.91300  0.18600  1.0000
  Si  Si2       1.0  0.24900  0.41300  0.31400  1.0000
  Si  Si3       1.0  0.75100  0.58700  0.68600  1.0000
  Si  Si4       1.0  0.74900  0.08660  0.81400  1.0000
