data_image0
_chemical_formula_structural       Ge4O4Pd4Te4
_chemical_formula_sum              "Ge4 O4 Pd4 Te4"
_cell_length_a       4.92774
_cell_length_b       8.33719
_cell_length_c       8.92344
_cell_angle_alpha    90
_cell_angle_beta     90
_cell_angle_gamma    90

_space_group_name_H-M_alt    "P 1"
_space_group_IT_number       1

loop_
  _space_group_symop_operation_xyz
  'x, y, z'

loop_
  _atom_site_type_symbol
  _atom_site_label
  _atom_site_symmetry_multiplicity
  _atom_site_fract_x
  _atom_site_fract_y
  _atom_site_fract_z
  _atom_site_occupancy
  Ge  Ge1       1.0  0.21700  0.21100  0.11000  1.0000
  Ge  Ge2       1.0  0.78300  0.71100  0.39000  1.0000
  Ge  Ge3       1.0  0.28300  0.78900  0.61000  1.0000
  Ge  Ge4       1.0  0.71700  0.28900  0.89000  1.0000
  O   O1        1.0  0.57600  0.23600  0.07220  1.0000
  O   O2        1.0  0.42400  0.73600  0.42800  1.0000
  O   O3        1.0  0.92400  0.76400  0.57200  1.0000
  O   O4        1.0  0.07560  0.26400  0.92800  1.0000
  Pd  Pd1       1.0  0.19400  0.70100  0.04780  1.0000
  Pd  Pd2       1.0  0.80600  0.20100  0.45200  1.0000
  Pd  Pd3       1.0  0.30600  0.29900  0.54800  1.0000
  Pd  Pd4       1.0  0.69400  0.79900  0.95200  1.0000
  Te  Te1       1.0  0.92300  0.93200  0.18200  1.0000
  Te  Te2       1.0  0.07700  0.43200  0.31800  1.0000
  Te  Te3       1.0  0.57700  0.06820  0.68200  1.0000
  Te  Te4       1.0  0.42300  0.56800  0.81800  1.0000
