data_image0
_chemical_formula_structural       F2La6Mo8O32
_chemical_formula_sum              "F2 La6 Mo8 O32"
_cell_length_a       7.19349
_cell_length_b       7.36704
_cell_length_c       14.6047
_cell_angle_alpha    101.617
_cell_angle_beta     102.074
_cell_angle_gamma    100.189

_space_group_name_H-M_alt    "P 1"
_space_group_IT_number       1

loop_
  _space_group_symop_operation_xyz
  'x, y, z'

loop_
  _atom_site_type_symbol
  _atom_site_label
  _atom_site_symmetry_multiplicity
  _atom_site_fract_x
  _atom_site_fract_y
  _atom_site_fract_z
  _atom_site_occupancy
  F   F1        1.0  0.50500  0.75300  0.26900  1.0000
  F   F2        1.0  0.49500  0.24700  0.73100  1.0000
  La  La1       1.0  0.33800  0.84500  0.12400  1.0000
  La  La2       1.0  0.37200  0.42500  0.25900  1.0000
  La  La3       1.0  0.67000  0.05200  0.39500  1.0000
  La  La4       1.0  0.33000  0.94800  0.60500  1.0000
  La  La5       1.0  0.62800  0.57500  0.74100  1.0000
  La  La6       1.0  0.66200  0.15500  0.87600  1.0000
  Mo  Mo1       1.0  0.23800  0.27100  0.00778  1.0000
  Mo  Mo2       1.0  0.77400  0.24900  0.17100  1.0000
  Mo  Mo3       1.0  0.16500  0.90000  0.33000  1.0000
  Mo  Mo4       1.0  0.79400  0.57700  0.48600  1.0000
  Mo  Mo5       1.0  0.20600  0.42300  0.51400  1.0000
  Mo  Mo6       1.0  0.83500  0.10000  0.67000  1.0000
  Mo  Mo7       1.0  0.22600  0.75100  0.82900  1.0000
  Mo  Mo8       1.0  0.76200  0.72900  0.99200  1.0000
  O   O1        1.0  0.71100  0.15300  0.04360  1.0000
  O   O2        1.0  0.59500  0.71400  0.06430  1.0000
  O   O3        1.0  0.99500  0.85000  0.06780  1.0000
  O   O4        1.0  0.23000  0.49900  0.07610  1.0000
  O   O5        1.0  0.32700  0.17000  0.10800  1.0000
  O   O6        1.0  0.68500  0.45600  0.20100  1.0000
  O   O7        1.0  0.03050  0.29200  0.21400  1.0000
  O   O8        1.0  0.65900  0.07340  0.22500  1.0000
  O   O9        1.0  0.11100  0.68900  0.23800  1.0000
  O   O10       1.0  0.31400  0.07140  0.28600  1.0000
  O   O11       1.0  0.95800  0.96900  0.36100  1.0000
  O   O12       1.0  0.64500  0.38100  0.38400  1.0000
  O   O13       1.0  0.26400  0.45000  0.40500  1.0000
  O   O14       1.0  0.34200  0.87900  0.43200  1.0000
  O   O15       1.0  0.69400  0.76800  0.46000  1.0000
  O   O16       1.0  0.05320  0.67600  0.49900  1.0000
  O   O17       1.0  0.94700  0.32400  0.50100  1.0000
  O   O18       1.0  0.30600  0.23200  0.54000  1.0000
  O   O19       1.0  0.65800  0.12100  0.56800  1.0000
  O   O20       1.0  0.73600  0.55000  0.59500  1.0000
  O   O21       1.0  0.35500  0.61900  0.61600  1.0000
  O   O22       1.0  0.04230  0.03050  0.63900  1.0000
  O   O23       1.0  0.68600  0.92900  0.71400  1.0000
  O   O24       1.0  0.88900  0.31100  0.76200  1.0000
  O   O25       1.0  0.34100  0.92700  0.77500  1.0000
  O   O26       1.0  0.96900  0.70800  0.78600  1.0000
  O   O27       1.0  0.31500  0.54400  0.79900  1.0000
  O   O28       1.0  0.67300  0.83000  0.89200  1.0000
  O   O29       1.0  0.77000  0.50100  0.92400  1.0000
  O   O30       1.0  0.00462  0.15000  0.93200  1.0000
  O   O31       1.0  0.40500  0.28600  0.93600  1.0000
  O   O32       1.0  0.28900  0.84700  0.95600  1.0000
