data_image0
_chemical_formula_structural       Cl4Cu4H4Na12O20P4
_chemical_formula_sum              "Cl4 Cu4 H4 Na12 O20 P4"
_cell_length_a       10.8921
_cell_length_b       6.74498
_cell_length_c       8.3666
_cell_angle_alpha    90
_cell_angle_beta     90
_cell_angle_gamma    90

_space_group_name_H-M_alt    "P 1"
_space_group_IT_number       1

loop_
  _space_group_symop_operation_xyz
  'x, y, z'

loop_
  _atom_site_type_symbol
  _atom_site_label
  _atom_site_symmetry_multiplicity
  _atom_site_fract_x
  _atom_site_fract_y
  _atom_site_fract_z
  _atom_site_occupancy
  Cl  Cl1       1.0  0.77800  0.75000  0.13300  1.0000
  Cl  Cl2       1.0  0.27800  0.75000  0.36700  1.0000
  Cl  Cl3       1.0  0.72200  0.25000  0.63300  1.0000
  Cl  Cl4       1.0  0.22200  0.25000  0.86700  1.0000
  Cu  Cu1       1.0  0.00000  0.00000  0.00000  1.0000
  Cu  Cu2       1.0  0.00000  0.50000  0.00000  1.0000
  Cu  Cu3       1.0  0.50000  0.00000  0.50000  1.0000
  Cu  Cu4       1.0  0.50000  0.50000  0.50000  1.0000
  H   H1        1.0  0.36600  0.25000  0.03660  1.0000
  H   H2        1.0  0.86600  0.25000  0.46300  1.0000
  H   H3        1.0  0.13400  0.75000  0.53700  1.0000
  H   H4        1.0  0.63400  0.75000  0.96300  1.0000
  Na  Na1       1.0  0.24700  0.54200  0.09080  1.0000
  Na  Na2       1.0  0.24700  0.95800  0.09080  1.0000
  Na  Na3       1.0  0.51500  0.75000  0.21900  1.0000
  Na  Na4       1.0  0.01520  0.75000  0.28100  1.0000
  Na  Na5       1.0  0.74700  0.54200  0.40900  1.0000
  Na  Na6       1.0  0.74700  0.95800  0.40900  1.0000
  Na  Na7       1.0  0.25300  0.04150  0.59100  1.0000
  Na  Na8       1.0  0.25300  0.45800  0.59100  1.0000
  Na  Na9       1.0  0.98500  0.25000  0.71900  1.0000
  Na  Na10      1.0  0.48500  0.25000  0.78100  1.0000
  Na  Na11      1.0  0.75300  0.04150  0.90900  1.0000
  Na  Na12      1.0  0.75300  0.45800  0.90900  1.0000
  O   O1        1.0  0.59600  0.25000  0.01410  1.0000
  O   O2        1.0  0.07890  0.75000  0.02010  1.0000
  O   O3        1.0  0.38800  0.25000  0.15200  1.0000
  O   O4        1.0  0.06780  0.06220  0.22400  1.0000
  O   O5        1.0  0.06780  0.43800  0.22400  1.0000
  O   O6        1.0  0.56800  0.06220  0.27600  1.0000
  O   O7        1.0  0.56800  0.43800  0.27600  1.0000
  O   O8        1.0  0.88800  0.25000  0.34800  1.0000
  O   O9        1.0  0.57900  0.75000  0.48000  1.0000
  O   O10       1.0  0.09570  0.25000  0.48600  1.0000
  O   O11       1.0  0.90400  0.75000  0.51400  1.0000
  O   O12       1.0  0.42100  0.25000  0.52000  1.0000
  O   O13       1.0  0.11200  0.75000  0.65200  1.0000
  O   O14       1.0  0.43200  0.56200  0.72400  1.0000
  O   O15       1.0  0.43200  0.93800  0.72400  1.0000
  O   O16       1.0  0.93200  0.56200  0.77600  1.0000
  O   O17       1.0  0.93200  0.93800  0.77600  1.0000
  O   O18       1.0  0.61200  0.75000  0.84800  1.0000
  O   O19       1.0  0.92100  0.25000  0.98000  1.0000
  O   O20       1.0  0.40400  0.75000  0.98600  1.0000
  P   P1        1.0  0.53800  0.25000  0.18100  1.0000
  P   P2        1.0  0.03750  0.25000  0.31900  1.0000
  P   P3        1.0  0.96200  0.75000  0.68100  1.0000
  P   P4        1.0  0.46200  0.75000  0.81900  1.0000
