data_image0
_chemical_formula_structural       Ni4O4Sn4Te4
_chemical_formula_sum              "Ni4 O4 Sn4 Te4"
_cell_length_a       6.16524
_cell_length_b       3.72078
_cell_length_c       14.0855
_cell_angle_alpha    90
_cell_angle_beta     90
_cell_angle_gamma    90

_space_group_name_H-M_alt    "P 1"
_space_group_IT_number       1

loop_
  _space_group_symop_operation_xyz
  'x, y, z'

loop_
  _atom_site_type_symbol
  _atom_site_label
  _atom_site_symmetry_multiplicity
  _atom_site_fract_x
  _atom_site_fract_y
  _atom_site_fract_z
  _atom_site_occupancy
  Ni  Ni1       1.0  0.59600  0.25000  0.22200  1.0000
  Ni  Ni2       1.0  0.09600  0.25000  0.27800  1.0000
  Ni  Ni3       1.0  0.90400  0.75000  0.72200  1.0000
  Ni  Ni4       1.0  0.40400  0.75000  0.77800  1.0000
  O   O1        1.0  0.29500  0.25000  0.16700  1.0000
  O   O2        1.0  0.79500  0.25000  0.33300  1.0000
  O   O3        1.0  0.20500  0.75000  0.66700  1.0000
  O   O4        1.0  0.70500  0.75000  0.83300  1.0000
  Sn  Sn1       1.0  0.26500  0.75000  0.08260  1.0000
  Sn  Sn2       1.0  0.76500  0.75000  0.41700  1.0000
  Sn  Sn3       1.0  0.23500  0.25000  0.58300  1.0000
  Sn  Sn4       1.0  0.73500  0.25000  0.91700  1.0000
  Te  Te1       1.0  0.77100  0.75000  0.11600  1.0000
  Te  Te2       1.0  0.27100  0.75000  0.38400  1.0000
  Te  Te3       1.0  0.72900  0.25000  0.61600  1.0000
  Te  Te4       1.0  0.22900  0.25000  0.88400  1.0000
