data_image0
_chemical_formula_structural       Gd8P8S32
_chemical_formula_sum              "Gd8 P8 S32"
_cell_length_a       12.2392
_cell_length_b       10.8068
_cell_length_c       10.8068
_cell_angle_alpha    90
_cell_angle_beta     116.199
_cell_angle_gamma    116.199

_space_group_name_H-M_alt    "P 1"
_space_group_IT_number       1

loop_
  _space_group_symop_operation_xyz
  'x, y, z'

loop_
  _atom_site_type_symbol
  _atom_site_label
  _atom_site_symmetry_multiplicity
  _atom_site_fract_x
  _atom_site_fract_y
  _atom_site_fract_z
  _atom_site_occupancy
  Gd  Gd1       1.0  0.75000  0.37500  0.12500  1.0000
  Gd  Gd2       1.0  0.75000  0.87500  0.12500  1.0000
  Gd  Gd3       1.0  0.25000  0.12500  0.37500  1.0000
  Gd  Gd4       1.0  0.25000  0.62500  0.37500  1.0000
  Gd  Gd5       1.0  0.75000  0.37500  0.62500  1.0000
  Gd  Gd6       1.0  0.75000  0.87500  0.62500  1.0000
  Gd  Gd7       1.0  0.25000  0.12500  0.87500  1.0000
  Gd  Gd8       1.0  0.25000  0.62500  0.87500  1.0000
  P   P1        1.0  0.00000  0.25000  0.21200  1.0000
  P   P2        1.0  0.50000  0.21200  0.25000  1.0000
  P   P3        1.0  0.50000  0.71200  0.25000  1.0000
  P   P4        1.0  0.00000  0.75000  0.28800  1.0000
  P   P5        1.0  0.00000  0.25000  0.71200  1.0000
  P   P6        1.0  0.50000  0.28800  0.75000  1.0000
  P   P7        1.0  0.50000  0.78800  0.75000  1.0000
  P   P8        1.0  0.00000  0.75000  0.78800  1.0000
  S   S1        1.0  0.49500  0.11100  0.08590  1.0000
  S   S2        1.0  0.50500  0.61600  0.09090  1.0000
  S   S3        1.0  0.82100  0.65800  0.09440  1.0000
  S   S4        1.0  0.99500  0.08590  0.11100  1.0000
  S   S5        1.0  0.00499  0.41400  0.11600  1.0000
  S   S6        1.0  0.32100  0.72700  0.15800  1.0000
  S   S7        1.0  0.32100  0.22700  0.16400  1.0000
  S   S8        1.0  0.82100  0.16400  0.22700  1.0000
  S   S9        1.0  0.17900  0.84200  0.27300  1.0000
  S   S10       1.0  0.67900  0.40600  0.33600  1.0000
  S   S11       1.0  0.67900  0.90600  0.34200  1.0000
  S   S12       1.0  0.99500  0.90900  0.38400  1.0000
  S   S13       1.0  0.00499  0.59100  0.38900  1.0000
  S   S14       1.0  0.17900  0.33600  0.40600  1.0000
  S   S15       1.0  0.49500  0.61100  0.40900  1.0000
  S   S16       1.0  0.50500  0.11600  0.41400  1.0000
  S   S17       1.0  0.49500  0.88400  0.58600  1.0000
  S   S18       1.0  0.50500  0.38900  0.59100  1.0000
  S   S19       1.0  0.82100  0.66400  0.59400  1.0000
  S   S20       1.0  0.99500  0.40900  0.61100  1.0000
  S   S21       1.0  0.00499  0.09090  0.61600  1.0000
  S   S22       1.0  0.32100  0.09440  0.65800  1.0000
  S   S23       1.0  0.32100  0.59400  0.66400  1.0000
  S   S24       1.0  0.82100  0.15800  0.72700  1.0000
  S   S25       1.0  0.17900  0.83600  0.77300  1.0000
  S   S26       1.0  0.67900  0.77300  0.83600  1.0000
  S   S27       1.0  0.67900  0.27300  0.84200  1.0000
  S   S28       1.0  0.99500  0.58600  0.88400  1.0000
  S   S29       1.0  0.00499  0.91400  0.88900  1.0000
  S   S30       1.0  0.17900  0.34200  0.90600  1.0000
  S   S31       1.0  0.49500  0.38400  0.90900  1.0000
  S   S32       1.0  0.50500  0.88900  0.91400  1.0000
