data_image0
_chemical_formula_structural       Li4O32Pr4S8
_chemical_formula_sum              "Li4 O32 Pr4 S8"
_cell_length_a       13.5934
_cell_length_b       6.9804
_cell_length_c       6.65806
_cell_angle_alpha    90
_cell_angle_beta     90
_cell_angle_gamma    105.477

_space_group_name_H-M_alt    "P 1"
_space_group_IT_number       1

loop_
  _space_group_symop_operation_xyz
  'x, y, z'

loop_
  _atom_site_type_symbol
  _atom_site_label
  _atom_site_symmetry_multiplicity
  _atom_site_fract_x
  _atom_site_fract_y
  _atom_site_fract_z
  _atom_site_occupancy
  Li  Li1       1.0  0.44600  0.45400  0.24300  1.0000
  Li  Li2       1.0  0.44600  0.95400  0.25700  1.0000
  Li  Li3       1.0  0.55400  0.04590  0.74300  1.0000
  Li  Li4       1.0  0.55400  0.54600  0.75700  1.0000
  O   O1        1.0  0.37700  0.49800  0.00841  1.0000
  O   O2        1.0  0.35800  0.83800  0.03420  1.0000
  O   O3        1.0  0.87200  0.51100  0.05410  1.0000
  O   O4        1.0  0.86200  0.84100  0.05460  1.0000
  O   O5        1.0  0.99700  0.23700  0.12100  1.0000
  O   O6        1.0  0.51200  0.23500  0.18300  1.0000
  O   O7        1.0  0.69300  0.84900  0.23800  1.0000
  O   O8        1.0  0.16700  0.84700  0.24200  1.0000
  O   O9        1.0  0.16700  0.34700  0.25800  1.0000
  O   O10       1.0  0.69300  0.34900  0.26200  1.0000
  O   O11       1.0  0.51200  0.73500  0.31700  1.0000
  O   O12       1.0  0.99700  0.73700  0.37900  1.0000
  O   O13       1.0  0.86200  0.34100  0.44500  1.0000
  O   O14       1.0  0.87200  0.01100  0.44600  1.0000
  O   O15       1.0  0.35800  0.33800  0.46600  1.0000
  O   O16       1.0  0.37700  0.99800  0.49200  1.0000
  O   O17       1.0  0.62300  0.00193  0.50800  1.0000
  O   O18       1.0  0.64200  0.66200  0.53400  1.0000
  O   O19       1.0  0.12800  0.98900  0.55400  1.0000
  O   O20       1.0  0.13800  0.65900  0.55500  1.0000
  O   O21       1.0  0.00271  0.26300  0.62100  1.0000
  O   O22       1.0  0.48800  0.26500  0.68300  1.0000
  O   O23       1.0  0.30700  0.65100  0.73800  1.0000
  O   O24       1.0  0.83300  0.65300  0.74200  1.0000
  O   O25       1.0  0.83300  0.15300  0.75800  1.0000
  O   O26       1.0  0.30700  0.15100  0.76200  1.0000
  O   O27       1.0  0.48800  0.76500  0.81700  1.0000
  O   O28       1.0  0.00271  0.76300  0.87900  1.0000
  O   O29       1.0  0.13800  0.15900  0.94500  1.0000
  O   O30       1.0  0.12800  0.48900  0.94600  1.0000
  O   O31       1.0  0.64200  0.16200  0.96600  1.0000
  O   O32       1.0  0.62300  0.50200  0.99200  1.0000
  Pr  Pr1       1.0  0.81400  0.15200  0.11300  1.0000
  Pr  Pr2       1.0  0.81400  0.65200  0.38700  1.0000
  Pr  Pr3       1.0  0.18600  0.34800  0.61300  1.0000
  Pr  Pr4       1.0  0.18600  0.84800  0.88700  1.0000
  S   S1        1.0  0.10600  0.30700  0.07450  1.0000
  S   S2        1.0  0.61400  0.31500  0.09650  1.0000
  S   S3        1.0  0.61400  0.81500  0.40400  1.0000
  S   S4        1.0  0.10600  0.80700  0.42500  1.0000
  S   S5        1.0  0.89400  0.19300  0.57500  1.0000
  S   S6        1.0  0.38600  0.18500  0.59600  1.0000
  S   S7        1.0  0.38600  0.68500  0.90400  1.0000
  S   S8        1.0  0.89400  0.69300  0.92500  1.0000
