data_image0
_chemical_formula_structural       C4F2H24N12O6P2
_chemical_formula_sum              "C4 F2 H24 N12 O6 P2"
_cell_length_a       7.13118
_cell_length_b       7.34692
_cell_length_c       10.3554
_cell_angle_alpha    105.082
_cell_angle_beta     110.14
_cell_angle_gamma    60.9667

_space_group_name_H-M_alt    "P 1"
_space_group_IT_number       1

loop_
  _space_group_symop_operation_xyz
  'x, y, z'

loop_
  _atom_site_type_symbol
  _atom_site_label
  _atom_site_symmetry_multiplicity
  _atom_site_fract_x
  _atom_site_fract_y
  _atom_site_fract_z
  _atom_site_occupancy
  C   C1        1.0  0.59300  0.95100  0.13700  1.0000
  C   C2        1.0  0.86900  0.26700  0.50000  1.0000
  C   C3        1.0  0.36500  0.26700  0.50000  1.0000
  C   C4        1.0  0.11800  0.61400  0.85100  1.0000
  F   F1        1.0  0.86200  0.32700  0.05020  1.0000
  F   F2        1.0  0.31700  0.54300  0.17700  1.0000
  H   H1        1.0  0.62300  0.09260  0.00193  1.0000
  H   H2        1.0  0.28600  0.09260  0.00193  1.0000
  H   H3        1.0  0.86700  0.96400  0.12300  1.0000
  H   H4        1.0  0.29200  0.96400  0.12300  1.0000
  H   H5        1.0  0.87000  0.79300  0.28700  1.0000
  H   H6        1.0  0.62300  0.79300  0.28700  1.0000
  H   H7        1.0  0.92600  0.14400  0.30800  1.0000
  H   H8        1.0  0.23700  0.14400  0.30800  1.0000
  H   H9        1.0  0.72900  0.40700  0.32500  1.0000
  H   H10       1.0  0.18900  0.40700  0.32500  1.0000
  H   H11       1.0  0.50100  0.94800  0.49800  1.0000
  H   H12       1.0  0.04870  0.94800  0.49800  1.0000
  H   H13       1.0  0.67500  0.57600  0.52100  1.0000
  H   H14       1.0  0.27100  0.57600  0.52100  1.0000
  H   H15       1.0  0.55000  0.09390  0.66300  1.0000
  H   H16       1.0  0.01930  0.09390  0.66300  1.0000
  H   H17       1.0  0.76400  0.45300  0.67100  1.0000
  H   H18       1.0  0.45300  0.45300  0.67100  1.0000
  H   H19       1.0  0.38600  0.32400  0.84900  1.0000
  H   H20       1.0  0.13900  0.32400  0.84900  1.0000
  H   H21       1.0  0.82500  0.87800  0.85100  1.0000
  H   H22       1.0  0.14800  0.87800  0.85100  1.0000
  H   H23       1.0  0.82000  0.64200  0.85600  1.0000
  H   H24       1.0  0.39400  0.64200  0.85600  1.0000
  N   N1        1.0  0.70000  0.00825  0.08430  1.0000
  N   N2        1.0  0.37600  0.00825  0.08430  1.0000
  N   N3        1.0  0.70400  0.83500  0.24300  1.0000
  N   N4        1.0  0.82800  0.26700  0.36400  1.0000
  N   N5        1.0  0.27000  0.26700  0.36400  1.0000
  N   N6        1.0  0.99200  0.08870  0.55900  1.0000
  N   N7        1.0  0.47800  0.08870  0.55900  1.0000
  N   N8        1.0  0.78400  0.45000  0.57700  1.0000
  N   N9        1.0  0.34300  0.45000  0.57700  1.0000
  N   N10       1.0  0.90300  0.71800  0.84900  1.0000
  N   N11       1.0  0.22700  0.71800  0.84900  1.0000
  N   N12       1.0  0.22300  0.40700  0.85300  1.0000
  O   O1        1.0  0.14200  0.93300  0.21700  1.0000
  O   O2        1.0  0.51000  0.71600  0.37600  1.0000
  O   O3        1.0  0.15000  0.71600  0.37600  1.0000
  O   O4        1.0  0.66900  0.49300  0.83100  1.0000
  O   O5        1.0  0.66800  0.15500  0.84900  1.0000
  O   O6        1.0  0.02570  0.15500  0.84900  1.0000
  P   P1        1.0  0.27800  0.73900  0.29500  1.0000
  P   P2        1.0  0.80300  0.28000  0.88500  1.0000
