data_image0
_chemical_formula_structural       B24Ca2H24
_chemical_formula_sum              "B24 Ca2 H24"
_cell_length_a       7.00781
_cell_length_b       7.00781
_cell_length_c       10.5008
_cell_angle_alpha    89.8084
_cell_angle_beta     89.8084
_cell_angle_gamma    120.875

_space_group_name_H-M_alt    "P 1"
_space_group_IT_number       1

loop_
  _space_group_symop_operation_xyz
  'x, y, z'

loop_
  _atom_site_type_symbol
  _atom_site_label
  _atom_site_symmetry_multiplicity
  _atom_site_fract_x
  _atom_site_fract_y
  _atom_site_fract_z
  _atom_site_occupancy
  B   B1        1.0  0.20100  0.87300  0.09090  1.0000
  B   B2        1.0  0.93100  0.75000  0.16000  1.0000
  B   B3        1.0  0.07980  0.60800  0.16200  1.0000
  B   B4        1.0  0.36500  0.80200  0.18500  1.0000
  B   B5        1.0  0.13000  0.03640  0.18600  1.0000
  B   B6        1.0  0.39400  0.06760  0.20000  1.0000
  B   B7        1.0  0.93200  0.60600  0.30000  1.0000
  B   B8        1.0  0.96400  0.87000  0.31400  1.0000
  B   B9        1.0  0.19800  0.63500  0.31500  1.0000
  B   B10       1.0  0.39200  0.92000  0.33800  1.0000
  B   B11       1.0  0.25000  0.06870  0.34000  1.0000
  B   B12       1.0  0.12700  0.79900  0.40900  1.0000
  B   B13       1.0  0.87300  0.20100  0.59100  1.0000
  B   B14       1.0  0.75000  0.93100  0.66000  1.0000
  B   B15       1.0  0.60800  0.07980  0.66200  1.0000
  B   B16       1.0  0.80200  0.36500  0.68500  1.0000
  B   B17       1.0  0.03640  0.13000  0.68600  1.0000
  B   B18       1.0  0.06760  0.39400  0.70000  1.0000
  B   B19       1.0  0.60600  0.93200  0.80000  1.0000
  B   B20       1.0  0.87000  0.96400  0.81400  1.0000
  B   B21       1.0  0.63500  0.19800  0.81500  1.0000
  B   B22       1.0  0.92000  0.39200  0.83800  1.0000
  B   B23       1.0  0.06870  0.25000  0.84000  1.0000
  B   B24       1.0  0.79900  0.12700  0.90900  1.0000
  Ca  Ca1       1.0  0.82900  0.17100  0.25000  1.0000
  Ca  Ca2       1.0  0.17100  0.82900  0.75000  1.0000
  H   H1        1.0  0.76900  0.09500  0.02160  1.0000
  H   H2        1.0  0.76800  0.68700  0.09730  1.0000
  H   H3        1.0  0.02290  0.44500  0.09770  1.0000
  H   H4        1.0  0.11700  0.18500  0.13600  1.0000
  H   H5        1.0  0.51000  0.77800  0.14100  1.0000
  H   H6        1.0  0.55600  0.23400  0.16100  1.0000
  H   H7        1.0  0.76600  0.44400  0.33900  1.0000
  H   H8        1.0  0.22200  0.49000  0.35900  1.0000
  H   H9        1.0  0.81500  0.88300  0.36400  1.0000
  H   H10       1.0  0.55500  0.97700  0.40200  1.0000
  H   H11       1.0  0.31300  0.23200  0.40300  1.0000
  H   H12       1.0  0.90500  0.23100  0.47800  1.0000
  H   H13       1.0  0.09500  0.76900  0.52200  1.0000
  H   H14       1.0  0.68700  0.76800  0.59700  1.0000
  H   H15       1.0  0.44500  0.02290  0.59800  1.0000
  H   H16       1.0  0.18500  0.11700  0.63600  1.0000
  H   H17       1.0  0.77800  0.51000  0.64100  1.0000
  H   H18       1.0  0.23400  0.55600  0.66100  1.0000
  H   H19       1.0  0.44400  0.76600  0.83900  1.0000
  H   H20       1.0  0.49000  0.22200  0.85900  1.0000
  H   H21       1.0  0.88300  0.81500  0.86400  1.0000
  H   H22       1.0  0.97700  0.55500  0.90200  1.0000
  H   H23       1.0  0.23200  0.31300  0.90300  1.0000
  H   H24       1.0  0.23100  0.90500  0.97800  1.0000
