data_image0
_chemical_formula_structural       Er4Ge4H8O16
_chemical_formula_sum              "Er4 Ge4 H8 O16"
_cell_length_a       11.9186
_cell_length_b       6.13106
_cell_length_c       4.99454
_cell_angle_alpha    90
_cell_angle_beta     102.961
_cell_angle_gamma    90

_space_group_name_H-M_alt    "P 1"
_space_group_IT_number       1

loop_
  _space_group_symop_operation_xyz
  'x, y, z'

loop_
  _atom_site_type_symbol
  _atom_site_label
  _atom_site_symmetry_multiplicity
  _atom_site_fract_x
  _atom_site_fract_y
  _atom_site_fract_z
  _atom_site_occupancy
  Er  Er1       1.0  0.83900  0.27800  0.05040  1.0000
  Er  Er2       1.0  0.33900  0.22200  0.05040  1.0000
  Er  Er3       1.0  0.66100  0.77800  0.95000  1.0000
  Er  Er4       1.0  0.16100  0.72200  0.95000  1.0000
  Ge  Ge1       1.0  0.60200  0.29100  0.28600  1.0000
  Ge  Ge2       1.0  0.10200  0.20900  0.28600  1.0000
  Ge  Ge3       1.0  0.89800  0.79100  0.71400  1.0000
  Ge  Ge4       1.0  0.39800  0.70900  0.71400  1.0000
  H   H1        1.0  0.01070  0.75500  0.34900  1.0000
  H   H2        1.0  0.51100  0.74500  0.34900  1.0000
  H   H3        1.0  0.74300  0.02650  0.47500  1.0000
  H   H4        1.0  0.24300  0.47300  0.47500  1.0000
  H   H5        1.0  0.75700  0.52700  0.52500  1.0000
  H   H6        1.0  0.25700  0.97300  0.52500  1.0000
  H   H7        1.0  0.48900  0.25500  0.65100  1.0000
  H   H8        1.0  0.98900  0.24500  0.65100  1.0000
  O   O1        1.0  0.48900  0.75000  0.04550  1.0000
  O   O2        1.0  0.98900  0.75000  0.04550  1.0000
  O   O3        1.0  0.21800  0.99800  0.22400  1.0000
  O   O4        1.0  0.71800  0.50200  0.22400  1.0000
  O   O5        1.0  0.71400  0.05110  0.26400  1.0000
  O   O6        1.0  0.21400  0.44900  0.26400  1.0000
  O   O7        1.0  0.96500  0.24500  0.43900  1.0000
  O   O8        1.0  0.46500  0.25500  0.43900  1.0000
  O   O9        1.0  0.53500  0.74500  0.56100  1.0000
  O   O10       1.0  0.03510  0.75500  0.56100  1.0000
  O   O11       1.0  0.28600  0.94900  0.73600  1.0000
  O   O12       1.0  0.78600  0.55100  0.73600  1.0000
  O   O13       1.0  0.78200  0.00168  0.77600  1.0000
  O   O14       1.0  0.28200  0.49800  0.77600  1.0000
  O   O15       1.0  0.01070  0.25000  0.95400  1.0000
  O   O16       1.0  0.51100  0.25000  0.95400  1.0000
