data_image0
_chemical_formula_structural       Cu20K12O16
_chemical_formula_sum              "Cu20 K12 O16"
_cell_length_a       9.37806
_cell_length_b       7.2579
_cell_length_c       13.8812
_cell_angle_alpha    90
_cell_angle_beta     107.012
_cell_angle_gamma    90

_space_group_name_H-M_alt    "P 1"
_space_group_IT_number       1

loop_
  _space_group_symop_operation_xyz
  'x, y, z'

loop_
  _atom_site_type_symbol
  _atom_site_label
  _atom_site_symmetry_multiplicity
  _atom_site_fract_x
  _atom_site_fract_y
  _atom_site_fract_z
  _atom_site_occupancy
  Cu  Cu1       1.0  0.44600  0.30800  0.11300  1.0000
  Cu  Cu2       1.0  0.93700  0.58700  0.11600  1.0000
  Cu  Cu3       1.0  0.69300  0.45200  0.12500  1.0000
  Cu  Cu4       1.0  0.43600  0.05390  0.23400  1.0000
  Cu  Cu5       1.0  0.06390  0.83400  0.24500  1.0000
  Cu  Cu6       1.0  0.93600  0.33400  0.25500  1.0000
  Cu  Cu7       1.0  0.56400  0.55400  0.26600  1.0000
  Cu  Cu8       1.0  0.30700  0.95200  0.37500  1.0000
  Cu  Cu9       1.0  0.06300  0.08670  0.38400  1.0000
  Cu  Cu10      1.0  0.55400  0.80800  0.38700  1.0000
  Cu  Cu11      1.0  0.44600  0.19200  0.61300  1.0000
  Cu  Cu12      1.0  0.93700  0.91300  0.61600  1.0000
  Cu  Cu13      1.0  0.69300  0.04830  0.62500  1.0000
  Cu  Cu14      1.0  0.43600  0.44600  0.73400  1.0000
  Cu  Cu15      1.0  0.06390  0.66600  0.74500  1.0000
  Cu  Cu16      1.0  0.93600  0.16600  0.75500  1.0000
  Cu  Cu17      1.0  0.56400  0.94600  0.76600  1.0000
  Cu  Cu18      1.0  0.30700  0.54800  0.87500  1.0000
  Cu  Cu19      1.0  0.06300  0.41300  0.88400  1.0000
  Cu  Cu20      1.0  0.55400  0.69200  0.88700  1.0000
  K   K1        1.0  0.26500  0.73100  0.08180  1.0000
  K   K2        1.0  0.09920  0.16200  0.09240  1.0000
  K   K3        1.0  0.67600  0.92100  0.10600  1.0000
  K   K4        1.0  0.32400  0.42100  0.39400  1.0000
  K   K5        1.0  0.90100  0.66200  0.40800  1.0000
  K   K6        1.0  0.73500  0.23100  0.41800  1.0000
  K   K7        1.0  0.26500  0.76900  0.58200  1.0000
  K   K8        1.0  0.09920  0.33800  0.59200  1.0000
  K   K9        1.0  0.67600  0.57900  0.60600  1.0000
  K   K10       1.0  0.32400  0.07920  0.89400  1.0000
  K   K11       1.0  0.90100  0.83800  0.90800  1.0000
  K   K12       1.0  0.73500  0.26900  0.91800  1.0000
  O   O1        1.0  0.38700  0.06800  0.09690  1.0000
  O   O2        1.0  0.99500  0.82300  0.10900  1.0000
  O   O3        1.0  0.86800  0.34700  0.11500  1.0000
  O   O4        1.0  0.51300  0.55000  0.12800  1.0000
  O   O5        1.0  0.48700  0.05010  0.37200  1.0000
  O   O6        1.0  0.13200  0.84700  0.38500  1.0000
  O   O7        1.0  0.00454  0.32300  0.39100  1.0000
  O   O8        1.0  0.61300  0.56800  0.40300  1.0000
  O   O9        1.0  0.38700  0.43200  0.59700  1.0000
  O   O10       1.0  0.99500  0.67700  0.60900  1.0000
  O   O11       1.0  0.86800  0.15300  0.61500  1.0000
  O   O12       1.0  0.51300  0.95000  0.62800  1.0000
  O   O13       1.0  0.48700  0.45000  0.87200  1.0000
  O   O14       1.0  0.13200  0.65300  0.88500  1.0000
  O   O15       1.0  0.00454  0.17700  0.89100  1.0000
  O   O16       1.0  0.61300  0.93200  0.90300  1.0000
