data_image0
_chemical_formula_structural       Mn4O32Pb4S8
_chemical_formula_sum              "Mn4 O32 Pb4 S8"
_cell_length_a       6.71949
_cell_length_b       6.71949
_cell_length_c       13.7236
_cell_angle_alpha    90
_cell_angle_beta     90
_cell_angle_gamma    90

_space_group_name_H-M_alt    "P 1"
_space_group_IT_number       1

loop_
  _space_group_symop_operation_xyz
  'x, y, z'

loop_
  _atom_site_type_symbol
  _atom_site_label
  _atom_site_symmetry_multiplicity
  _atom_site_fract_x
  _atom_site_fract_y
  _atom_site_fract_z
  _atom_site_occupancy
  Mn  Mn1       1.0  0.83400  0.83400  0.00000  1.0000
  Mn  Mn2       1.0  0.33400  0.66600  0.25000  1.0000
  Mn  Mn3       1.0  0.16600  0.16600  0.50000  1.0000
  Mn  Mn4       1.0  0.66600  0.33400  0.75000  1.0000
  O   O1        1.0  0.86400  0.51100  0.00524  1.0000
  O   O2        1.0  0.15800  0.89000  0.01440  1.0000
  O   O3        1.0  0.61300  0.29200  0.07820  1.0000
  O   O4        1.0  0.33100  0.61900  0.09510  1.0000
  O   O5        1.0  0.83100  0.88100  0.15500  1.0000
  O   O6        1.0  0.11300  0.20800  0.17200  1.0000
  O   O7        1.0  0.65800  0.61000  0.23600  1.0000
  O   O8        1.0  0.36400  0.98900  0.24500  1.0000
  O   O9        1.0  0.01110  0.63600  0.25500  1.0000
  O   O10       1.0  0.39000  0.34200  0.26400  1.0000
  O   O11       1.0  0.79200  0.88700  0.32800  1.0000
  O   O12       1.0  0.11900  0.16900  0.34500  1.0000
  O   O13       1.0  0.38100  0.66900  0.40500  1.0000
  O   O14       1.0  0.70800  0.38700  0.42200  1.0000
  O   O15       1.0  0.11000  0.84200  0.48600  1.0000
  O   O16       1.0  0.48900  0.13600  0.49500  1.0000
  O   O17       1.0  0.13600  0.48900  0.50500  1.0000
  O   O18       1.0  0.84200  0.11000  0.51400  1.0000
  O   O19       1.0  0.38700  0.70800  0.57800  1.0000
  O   O20       1.0  0.66900  0.38100  0.59500  1.0000
  O   O21       1.0  0.16900  0.11900  0.65500  1.0000
  O   O22       1.0  0.88700  0.79200  0.67200  1.0000
  O   O23       1.0  0.34200  0.39000  0.73600  1.0000
  O   O24       1.0  0.63600  0.01110  0.74500  1.0000
  O   O25       1.0  0.98900  0.36400  0.75500  1.0000
  O   O26       1.0  0.61000  0.65800  0.76400  1.0000
  O   O27       1.0  0.20800  0.11300  0.82800  1.0000
  O   O28       1.0  0.88100  0.83100  0.84500  1.0000
  O   O29       1.0  0.61900  0.33100  0.90500  1.0000
  O   O30       1.0  0.29200  0.61300  0.92200  1.0000
  O   O31       1.0  0.89000  0.15800  0.98600  1.0000
  O   O32       1.0  0.51100  0.86400  0.99500  1.0000
  Pb  Pb1       1.0  0.25400  0.25400  0.00000  1.0000
  Pb  Pb2       1.0  0.75400  0.24600  0.25000  1.0000
  Pb  Pb3       1.0  0.74600  0.74600  0.50000  1.0000
  Pb  Pb4       1.0  0.24600  0.75400  0.75000  1.0000
  S   S1        1.0  0.32600  0.74600  0.00683  1.0000
  S   S2        1.0  0.82600  0.75400  0.24300  1.0000
  S   S3        1.0  0.24600  0.17400  0.25700  1.0000
  S   S4        1.0  0.25400  0.67400  0.49300  1.0000
  S   S5        1.0  0.67400  0.25400  0.50700  1.0000
  S   S6        1.0  0.17400  0.24600  0.74300  1.0000
  S   S7        1.0  0.75400  0.82600  0.75700  1.0000
  S   S8        1.0  0.74600  0.32600  0.99300  1.0000
