data_image0
_chemical_formula_structural       C12Fe8La21Sb7
_chemical_formula_sum              "C12 Fe8 La21 Sb7"
_cell_length_a       11.6243
_cell_length_b       11.6243
_cell_length_c       11.6243
_cell_angle_alpha    120
_cell_angle_beta     90
_cell_angle_gamma    120

_space_group_name_H-M_alt    "P 1"
_space_group_IT_number       1

loop_
  _space_group_symop_operation_xyz
  'x, y, z'

loop_
  _atom_site_type_symbol
  _atom_site_label
  _atom_site_symmetry_multiplicity
  _atom_site_fract_x
  _atom_site_fract_y
  _atom_site_fract_z
  _atom_site_occupancy
  C   C1        1.0  0.89000  0.50000  0.11000  1.0000
  C   C2        1.0  0.61000  0.22000  0.11000  1.0000
  C   C3        1.0  0.61000  0.50000  0.11000  1.0000
  C   C4        1.0  0.61000  0.50000  0.39000  1.0000
  C   C5        1.0  0.89000  0.50000  0.39000  1.0000
  C   C6        1.0  0.89000  0.78000  0.39000  1.0000
  C   C7        1.0  0.11000  0.22000  0.61000  1.0000
  C   C8        1.0  0.11000  0.50000  0.61000  1.0000
  C   C9        1.0  0.39000  0.50000  0.61000  1.0000
  C   C10       1.0  0.11000  0.50000  0.89000  1.0000
  C   C11       1.0  0.39000  0.50000  0.89000  1.0000
  C   C12       1.0  0.39000  0.78000  0.89000  1.0000
  Fe  Fe1       1.0  0.69700  0.39300  0.08960  1.0000
  Fe  Fe2       1.0  0.69700  0.39300  0.30300  1.0000
  Fe  Fe3       1.0  0.69700  0.60700  0.30300  1.0000
  Fe  Fe4       1.0  0.91000  0.60700  0.30300  1.0000
  Fe  Fe5       1.0  0.08960  0.39300  0.69700  1.0000
  Fe  Fe6       1.0  0.30300  0.39300  0.69700  1.0000
  Fe  Fe7       1.0  0.30300  0.60700  0.69700  1.0000
  Fe  Fe8       1.0  0.30300  0.60700  0.91000  1.0000
  La  La1       1.0  0.39800  0.26500  0.13300  1.0000
  La  La2       1.0  0.86700  0.26500  0.13300  1.0000
  La  La3       1.0  0.86700  0.73500  0.13300  1.0000
  La  La4       1.0  0.50000  0.00000  0.15600  1.0000
  La  La5       1.0  0.15600  0.65600  0.15600  1.0000
  La  La6       1.0  0.50000  0.65600  0.15600  1.0000
  La  La7       1.0  0.13300  0.26500  0.39800  1.0000
  La  La8       1.0  0.84400  0.00000  0.50000  1.0000
  La  La9       1.0  0.50000  0.00000  0.50000  1.0000
  La  La10      1.0  0.84400  0.34400  0.50000  1.0000
  La  La11      1.0  0.15600  0.00000  0.50000  1.0000
  La  La12      1.0  0.50000  0.34400  0.50000  1.0000
  La  La13      1.0  0.15600  0.65600  0.50000  1.0000
  La  La14      1.0  0.50000  0.65600  0.50000  1.0000
  La  La15      1.0  0.86700  0.73500  0.60200  1.0000
  La  La16      1.0  0.50000  1.00000  0.84400  1.0000
  La  La17      1.0  0.84400  0.34400  0.84400  1.0000
  La  La18      1.0  0.50000  0.34400  0.84400  1.0000
  La  La19      1.0  0.13300  0.26500  0.86700  1.0000
  La  La20      1.0  0.13300  0.73500  0.86700  1.0000
  La  La21      1.0  0.60200  0.73500  0.86700  1.0000
  Sb  Sb1       1.0  0.00000  0.00000  0.00000  1.0000
  Sb  Sb2       1.0  0.22600  0.00000  0.22600  1.0000
  Sb  Sb3       1.0  0.22600  0.45200  0.22600  1.0000
  Sb  Sb4       1.0  0.77400  0.00000  0.22600  1.0000
  Sb  Sb5       1.0  0.22600  0.00000  0.77400  1.0000
  Sb  Sb6       1.0  0.77400  0.54800  0.77400  1.0000
  Sb  Sb7       1.0  0.77400  0.00000  0.77400  1.0000
