data_image0
_chemical_formula_structural       Gd12O32Re4
_chemical_formula_sum              "Gd12 O32 Re4"
_cell_length_a       7.23703
_cell_length_b       6.0378
_cell_length_c       13.6789
_cell_angle_alpha    90
_cell_angle_beta     98.6706
_cell_angle_gamma    90

_space_group_name_H-M_alt    "P 1"
_space_group_IT_number       1

loop_
  _space_group_symop_operation_xyz
  'x, y, z'

loop_
  _atom_site_type_symbol
  _atom_site_label
  _atom_site_symmetry_multiplicity
  _atom_site_fract_x
  _atom_site_fract_y
  _atom_site_fract_z
  _atom_site_occupancy
  Gd  Gd1       1.0  0.21600  0.79900  0.05410  1.0000
  Gd  Gd2       1.0  0.56100  0.31300  0.16600  1.0000
  Gd  Gd3       1.0  0.10600  0.25800  0.20200  1.0000
  Gd  Gd4       1.0  0.39400  0.75800  0.29800  1.0000
  Gd  Gd5       1.0  0.93900  0.81300  0.33400  1.0000
  Gd  Gd6       1.0  0.28400  0.29900  0.44600  1.0000
  Gd  Gd7       1.0  0.71600  0.70100  0.55400  1.0000
  Gd  Gd8       1.0  0.06110  0.18700  0.66600  1.0000
  Gd  Gd9       1.0  0.60600  0.24200  0.70200  1.0000
  Gd  Gd10      1.0  0.89400  0.74200  0.79800  1.0000
  Gd  Gd11      1.0  0.43900  0.68700  0.83400  1.0000
  Gd  Gd12      1.0  0.78400  0.20100  0.94600  1.0000
  O   O1        1.0  0.54000  0.69500  0.01970  1.0000
  O   O2        1.0  0.10700  0.19600  0.02060  1.0000
  O   O3        1.0  0.70800  0.05210  0.08890  1.0000
  O   O4        1.0  0.84800  0.45300  0.09630  1.0000
  O   O5        1.0  0.30400  0.52800  0.15800  1.0000
  O   O6        1.0  0.00361  0.85100  0.17000  1.0000
  O   O7        1.0  0.36200  0.02810  0.17300  1.0000
  O   O8        1.0  0.67900  0.70200  0.21300  1.0000
  O   O9        1.0  0.82100  0.20200  0.28700  1.0000
  O   O10       1.0  0.13800  0.52800  0.32700  1.0000
  O   O11       1.0  0.49600  0.35100  0.33000  1.0000
  O   O12       1.0  0.19600  0.02800  0.34200  1.0000
  O   O13       1.0  0.65200  0.95300  0.40400  1.0000
  O   O14       1.0  0.79200  0.55200  0.41100  1.0000
  O   O15       1.0  0.39300  0.69600  0.47900  1.0000
  O   O16       1.0  0.96000  0.19500  0.48000  1.0000
  O   O17       1.0  0.04030  0.80500  0.52000  1.0000
  O   O18       1.0  0.60700  0.30400  0.52100  1.0000
  O   O19       1.0  0.20800  0.44800  0.58900  1.0000
  O   O20       1.0  0.34800  0.04720  0.59600  1.0000
  O   O21       1.0  0.80400  0.97200  0.65800  1.0000
  O   O22       1.0  0.50400  0.64900  0.67000  1.0000
  O   O23       1.0  0.86200  0.47200  0.67300  1.0000
  O   O24       1.0  0.17900  0.79800  0.71300  1.0000
  O   O25       1.0  0.32100  0.29800  0.78700  1.0000
  O   O26       1.0  0.63800  0.97200  0.82700  1.0000
  O   O27       1.0  0.99600  0.14900  0.83000  1.0000
  O   O28       1.0  0.69600  0.47200  0.84200  1.0000
  O   O29       1.0  0.15200  0.54700  0.90400  1.0000
  O   O30       1.0  0.29200  0.94800  0.91100  1.0000
  O   O31       1.0  0.89300  0.80400  0.97900  1.0000
  O   O32       1.0  0.46000  0.30500  0.98000  1.0000
  Re  Re1       1.0  0.77000  0.75300  0.09050  1.0000
  Re  Re2       1.0  0.73000  0.25300  0.41000  1.0000
  Re  Re3       1.0  0.27000  0.74700  0.59000  1.0000
  Re  Re4       1.0  0.23000  0.24700  0.91000  1.0000
