data_image0
_chemical_formula_structural       Dy8P8S32
_chemical_formula_sum              "Dy8 P8 S32"
_cell_length_a       12.1745
_cell_length_b       10.7484
_cell_length_c       10.7484
_cell_angle_alpha    90
_cell_angle_beta     116.195
_cell_angle_gamma    116.195

_space_group_name_H-M_alt    "P 1"
_space_group_IT_number       1

loop_
  _space_group_symop_operation_xyz
  'x, y, z'

loop_
  _atom_site_type_symbol
  _atom_site_label
  _atom_site_symmetry_multiplicity
  _atom_site_fract_x
  _atom_site_fract_y
  _atom_site_fract_z
  _atom_site_occupancy
  Dy  Dy1       1.0  0.75000  0.37500  0.12500  1.0000
  Dy  Dy2       1.0  0.75000  0.87500  0.12500  1.0000
  Dy  Dy3       1.0  0.25000  0.12500  0.37500  1.0000
  Dy  Dy4       1.0  0.25000  0.62500  0.37500  1.0000
  Dy  Dy5       1.0  0.75000  0.37500  0.62500  1.0000
  Dy  Dy6       1.0  0.75000  0.87500  0.62500  1.0000
  Dy  Dy7       1.0  0.25000  0.12500  0.87500  1.0000
  Dy  Dy8       1.0  0.25000  0.62500  0.87500  1.0000
  P   P1        1.0  0.00000  0.25000  0.21200  1.0000
  P   P2        1.0  0.50000  0.21200  0.25000  1.0000
  P   P3        1.0  0.50000  0.71200  0.25000  1.0000
  P   P4        1.0  0.00000  0.75000  0.28800  1.0000
  P   P5        1.0  0.00000  0.25000  0.71200  1.0000
  P   P6        1.0  0.50000  0.28800  0.75000  1.0000
  P   P7        1.0  0.50000  0.78800  0.75000  1.0000
  P   P8        1.0  0.00000  0.75000  0.78800  1.0000
  S   S1        1.0  0.49400  0.11000  0.08420  1.0000
  S   S2        1.0  0.50600  0.61600  0.09010  1.0000
  S   S3        1.0  0.82000  0.65600  0.09400  1.0000
  S   S4        1.0  0.99400  0.08420  0.11000  1.0000
  S   S5        1.0  0.00597  0.41600  0.11600  1.0000
  S   S6        1.0  0.32000  0.72600  0.15600  1.0000
  S   S7        1.0  0.32000  0.22600  0.16400  1.0000
  S   S8        1.0  0.82000  0.16400  0.22600  1.0000
  S   S9        1.0  0.18000  0.84400  0.27400  1.0000
  S   S10       1.0  0.68000  0.40600  0.33600  1.0000
  S   S11       1.0  0.68000  0.90600  0.34400  1.0000
  S   S12       1.0  0.99400  0.91000  0.38400  1.0000
  S   S13       1.0  0.00597  0.59000  0.39000  1.0000
  S   S14       1.0  0.18000  0.33600  0.40600  1.0000
  S   S15       1.0  0.49400  0.61000  0.41000  1.0000
  S   S16       1.0  0.50600  0.11600  0.41600  1.0000
  S   S17       1.0  0.49400  0.88400  0.58400  1.0000
  S   S18       1.0  0.50600  0.39000  0.59000  1.0000
  S   S19       1.0  0.82000  0.66400  0.59400  1.0000
  S   S20       1.0  0.99400  0.41000  0.61000  1.0000
  S   S21       1.0  0.00597  0.09010  0.61600  1.0000
  S   S22       1.0  0.32000  0.09400  0.65600  1.0000
  S   S23       1.0  0.32000  0.59400  0.66400  1.0000
  S   S24       1.0  0.82000  0.15600  0.72600  1.0000
  S   S25       1.0  0.18000  0.83600  0.77400  1.0000
  S   S26       1.0  0.68000  0.77400  0.83600  1.0000
  S   S27       1.0  0.68000  0.27400  0.84400  1.0000
  S   S28       1.0  0.99400  0.58400  0.88400  1.0000
  S   S29       1.0  0.00597  0.91600  0.89000  1.0000
  S   S30       1.0  0.18000  0.34400  0.90600  1.0000
  S   S31       1.0  0.49400  0.38400  0.91000  1.0000
  S   S32       1.0  0.50600  0.89000  0.91600  1.0000
