data_image0
_chemical_formula_structural       Br12H20O10Pb4Sr2
_chemical_formula_sum              "Br12 H20 O10 Pb4 Sr2"
_cell_length_a       9.27238
_cell_length_b       9.76987
_cell_length_c       9.76987
_cell_angle_alpha    102.419
_cell_angle_beta     108.881
_cell_angle_gamma    71.119

_space_group_name_H-M_alt    "P 1"
_space_group_IT_number       1

loop_
  _space_group_symop_operation_xyz
  'x, y, z'

loop_
  _atom_site_type_symbol
  _atom_site_label
  _atom_site_symmetry_multiplicity
  _atom_site_fract_x
  _atom_site_fract_y
  _atom_site_fract_z
  _atom_site_occupancy
  Br  Br1       1.0  0.53100  0.31200  0.01570  1.0000
  Br  Br2       1.0  0.18200  0.56400  0.17800  1.0000
  Br  Br3       1.0  0.89000  0.43700  0.30100  1.0000
  Br  Br4       1.0  0.96900  0.01570  0.31200  1.0000
  Br  Br5       1.0  0.68200  0.82200  0.43600  1.0000
  Br  Br6       1.0  0.61000  0.30100  0.43700  1.0000
  Br  Br7       1.0  0.39000  0.69900  0.56300  1.0000
  Br  Br8       1.0  0.31800  0.17800  0.56400  1.0000
  Br  Br9       1.0  0.03110  0.98400  0.68800  1.0000
  Br  Br10      1.0  0.11000  0.56300  0.69900  1.0000
  Br  Br11      1.0  0.81800  0.43600  0.82200  1.0000
  Br  Br12      1.0  0.46900  0.68800  0.98400  1.0000
  H   H1        1.0  0.12000  0.77000  0.05910  1.0000
  H   H2        1.0  0.72200  0.70100  0.06310  1.0000
  H   H3        1.0  0.90600  0.66200  0.08900  1.0000
  H   H4        1.0  0.93800  0.22900  0.10800  1.0000
  H   H5        1.0  0.22600  0.32800  0.21600  1.0000
  H   H6        1.0  0.56200  0.10800  0.22900  1.0000
  H   H7        1.0  0.62000  0.94100  0.23000  1.0000
  H   H8        1.0  0.22200  0.93700  0.29900  1.0000
  H   H9        1.0  0.27400  0.21600  0.32800  1.0000
  H   H10       1.0  0.40600  0.91100  0.33800  1.0000
  H   H11       1.0  0.59400  0.08900  0.66200  1.0000
  H   H12       1.0  0.72600  0.78400  0.67200  1.0000
  H   H13       1.0  0.77800  0.06310  0.70100  1.0000
  H   H14       1.0  0.38000  0.05910  0.77000  1.0000
  H   H15       1.0  0.43800  0.89200  0.77100  1.0000
  H   H16       1.0  0.77400  0.67200  0.78400  1.0000
  H   H17       1.0  0.06220  0.77100  0.89200  1.0000
  H   H18       1.0  0.09360  0.33800  0.91100  1.0000
  H   H19       1.0  0.27800  0.29900  0.93700  1.0000
  H   H20       1.0  0.88000  0.23000  0.94100  1.0000
  O   O1        1.0  0.93400  0.16200  0.01580  1.0000
  O   O2        1.0  0.81200  0.74400  0.09640  1.0000
  O   O3        1.0  0.56600  0.01580  0.16200  1.0000
  O   O4        1.0  0.25000  0.22300  0.22300  1.0000
  O   O5        1.0  0.31200  0.90400  0.25600  1.0000
  O   O6        1.0  0.68800  0.09640  0.74400  1.0000
  O   O7        1.0  0.75000  0.77700  0.77700  1.0000
  O   O8        1.0  0.43400  0.98400  0.83800  1.0000
  O   O9        1.0  0.18800  0.25600  0.90400  1.0000
  O   O10       1.0  0.06620  0.83800  0.98400  1.0000
  Pb  Pb1       1.0  0.53200  0.55800  0.27100  1.0000
  Pb  Pb2       1.0  0.03160  0.72900  0.44200  1.0000
  Pb  Pb3       1.0  0.96800  0.27100  0.55800  1.0000
  Pb  Pb4       1.0  0.46800  0.44200  0.72900  1.0000
  Sr  Sr1       1.0  0.25000  0.01820  0.01820  1.0000
  Sr  Sr2       1.0  0.75000  0.98200  0.98200  1.0000
