data_image0
_chemical_formula_structural       B24H24Na4
_chemical_formula_sum              "B24 H24 Na4"
_cell_length_a       6.83662
_cell_length_b       10.3827
_cell_length_c       6.79458
_cell_angle_alpha    90
_cell_angle_beta     94.779
_cell_angle_gamma    90

_space_group_name_H-M_alt    "P 1"
_space_group_IT_number       1

loop_
  _space_group_symop_operation_xyz
  'x, y, z'

loop_
  _atom_site_type_symbol
  _atom_site_label
  _atom_site_symmetry_multiplicity
  _atom_site_fract_x
  _atom_site_fract_y
  _atom_site_fract_z
  _atom_site_occupancy
  B   B1        1.0  0.42200  0.34600  0.01640  1.0000
  B   B2        1.0  0.27300  0.47900  0.07450  1.0000
  B   B3        1.0  0.67100  0.39000  0.07980  1.0000
  B   B4        1.0  0.42900  0.60500  0.17000  1.0000
  B   B5        1.0  0.67500  0.54900  0.17500  1.0000
  B   B6        1.0  0.48600  0.44200  0.23000  1.0000
  B   B7        1.0  0.01440  0.94200  0.27000  1.0000
  B   B8        1.0  0.82500  0.04900  0.32500  1.0000
  B   B9        1.0  0.07120  0.10500  0.33000  1.0000
  B   B10       1.0  0.82900  0.89000  0.42000  1.0000
  B   B11       1.0  0.22700  0.97900  0.42500  1.0000
  B   B12       1.0  0.07770  0.84600  0.48400  1.0000
  B   B13       1.0  0.92200  0.15400  0.51600  1.0000
  B   B14       1.0  0.77300  0.02140  0.57500  1.0000
  B   B15       1.0  0.17100  0.11000  0.58000  1.0000
  B   B16       1.0  0.92900  0.89500  0.67000  1.0000
  B   B17       1.0  0.17500  0.95100  0.67500  1.0000
  B   B18       1.0  0.98600  0.05810  0.73000  1.0000
  B   B19       1.0  0.51400  0.55800  0.77000  1.0000
  B   B20       1.0  0.32500  0.45100  0.82500  1.0000
  B   B21       1.0  0.57100  0.39500  0.83000  1.0000
  B   B22       1.0  0.32900  0.61000  0.92000  1.0000
  B   B23       1.0  0.72700  0.52100  0.92500  1.0000
  B   B24       1.0  0.57800  0.65400  0.98400  1.0000
  H   H1        1.0  0.36700  0.23600  0.02530  1.0000
  H   H2        1.0  0.02710  0.90500  0.10400  1.0000
  H   H3        1.0  0.11300  0.46200  0.13200  1.0000
  H   H4        1.0  0.79100  0.31200  0.13900  1.0000
  H   H5        1.0  0.70300  0.08140  0.19700  1.0000
  H   H6        1.0  0.12300  0.18000  0.21000  1.0000
  H   H7        1.0  0.37700  0.68000  0.29000  1.0000
  H   H8        1.0  0.79700  0.58100  0.30300  1.0000
  H   H9        1.0  0.70900  0.81200  0.36100  1.0000
  H   H10       1.0  0.38700  0.96200  0.36800  1.0000
  H   H11       1.0  0.47300  0.40500  0.39600  1.0000
  H   H12       1.0  0.13300  0.73600  0.47500  1.0000
  H   H13       1.0  0.86700  0.26400  0.52500  1.0000
  H   H14       1.0  0.52700  0.59500  0.60400  1.0000
  H   H15       1.0  0.61300  0.03760  0.63200  1.0000
  H   H16       1.0  0.29100  0.18800  0.63900  1.0000
  H   H17       1.0  0.20300  0.41900  0.69700  1.0000
  H   H18       1.0  0.62300  0.32000  0.71000  1.0000
  H   H19       1.0  0.87700  0.82000  0.79000  1.0000
  H   H20       1.0  0.29700  0.91900  0.80300  1.0000
  H   H21       1.0  0.20900  0.68800  0.86100  1.0000
  H   H22       1.0  0.88700  0.53800  0.86800  1.0000
  H   H23       1.0  0.97300  0.09530  0.89600  1.0000
  H   H24       1.0  0.63300  0.76400  0.97500  1.0000
  Na  Na1       1.0  0.01210  0.69200  0.12700  1.0000
  Na  Na2       1.0  0.48800  0.19200  0.37300  1.0000
  Na  Na3       1.0  0.51200  0.80800  0.62700  1.0000
  Na  Na4       1.0  0.98800  0.30800  0.87300  1.0000
