data_image0
_chemical_formula_structural       Mo6N24Sr18
_chemical_formula_sum              "Mo6 N24 Sr18"
_cell_length_a       9.88679
_cell_length_b       10.2853
_cell_length_c       10.2853
_cell_angle_alpha    60.0168
_cell_angle_beta     96.9105
_cell_angle_gamma    96.9105

_space_group_name_H-M_alt    "P 1"
_space_group_IT_number       1

loop_
  _space_group_symop_operation_xyz
  'x, y, z'

loop_
  _atom_site_type_symbol
  _atom_site_label
  _atom_site_symmetry_multiplicity
  _atom_site_fract_x
  _atom_site_fract_y
  _atom_site_fract_z
  _atom_site_occupancy
  Mo  Mo1       1.0  0.28800  0.32400  0.02730  1.0000
  Mo  Mo2       1.0  0.78800  0.02730  0.32400  1.0000
  Mo  Mo3       1.0  0.25000  0.66600  0.33400  1.0000
  Mo  Mo4       1.0  0.75000  0.33400  0.66600  1.0000
  Mo  Mo5       1.0  0.21200  0.97300  0.67600  1.0000
  Mo  Mo6       1.0  0.71200  0.67600  0.97300  1.0000
  N   N1        1.0  0.81700  0.51600  0.01520  1.0000
  N   N2        1.0  0.19000  0.14100  0.13800  1.0000
  N   N3        1.0  0.69000  0.13800  0.14100  1.0000
  N   N4        1.0  0.44400  0.33500  0.14600  1.0000
  N   N5        1.0  0.66300  0.65000  0.15700  1.0000
  N   N6        1.0  0.12200  0.72900  0.16900  1.0000
  N   N7        1.0  0.37800  0.83100  0.27100  1.0000
  N   N8        1.0  0.94400  0.14600  0.33500  1.0000
  N   N9        1.0  0.83700  0.84300  0.35000  1.0000
  N   N10       1.0  0.34500  0.50100  0.36800  1.0000
  N   N11       1.0  0.68300  0.98500  0.48400  1.0000
  N   N12       1.0  0.15500  0.63200  0.49900  1.0000
  N   N13       1.0  0.84500  0.36800  0.50100  1.0000
  N   N14       1.0  0.31700  0.01520  0.51600  1.0000
  N   N15       1.0  0.65500  0.49900  0.63200  1.0000
  N   N16       1.0  0.16300  0.15700  0.65000  1.0000
  N   N17       1.0  0.05590  0.85400  0.66500  1.0000
  N   N18       1.0  0.62200  0.16900  0.72900  1.0000
  N   N19       1.0  0.87800  0.27100  0.83100  1.0000
  N   N20       1.0  0.33700  0.35000  0.84300  1.0000
  N   N21       1.0  0.55600  0.66500  0.85400  1.0000
  N   N22       1.0  0.31000  0.86200  0.85900  1.0000
  N   N23       1.0  0.81000  0.85900  0.86200  1.0000
  N   N24       1.0  0.18300  0.48400  0.98500  1.0000
  Sr  Sr1       1.0  0.25000  0.98800  0.01170  1.0000
  Sr  Sr2       1.0  0.95500  0.30500  0.05060  1.0000
  Sr  Sr3       1.0  0.40000  0.61300  0.08090  1.0000
  Sr  Sr4       1.0  0.70000  0.34900  0.28100  1.0000
  Sr  Sr5       1.0  0.45500  0.05060  0.30500  1.0000
  Sr  Sr6       1.0  0.91200  0.63800  0.31600  1.0000
  Sr  Sr7       1.0  0.20000  0.28100  0.34900  1.0000
  Sr  Sr8       1.0  0.58800  0.68400  0.36200  1.0000
  Sr  Sr9       1.0  0.09990  0.91900  0.38700  1.0000
  Sr  Sr10      1.0  0.90000  0.08090  0.61300  1.0000
  Sr  Sr11      1.0  0.41200  0.31600  0.63800  1.0000
  Sr  Sr12      1.0  0.80000  0.71900  0.65100  1.0000
  Sr  Sr13      1.0  0.08750  0.36200  0.68400  1.0000
  Sr  Sr14      1.0  0.54500  0.94900  0.69500  1.0000
  Sr  Sr15      1.0  0.30000  0.65100  0.71900  1.0000
  Sr  Sr16      1.0  0.60000  0.38700  0.91900  1.0000
  Sr  Sr17      1.0  0.04510  0.69500  0.94900  1.0000
  Sr  Sr18      1.0  0.75000  0.01170  0.98800  1.0000
