data_image0
_chemical_formula_structural       Ba4Gd8Mn8O28
_chemical_formula_sum              "Ba4 Gd8 Mn8 O28"
_cell_length_a       5.55846
_cell_length_b       5.55846
_cell_length_c       19.995
_cell_angle_alpha    90
_cell_angle_beta     90
_cell_angle_gamma    90

_space_group_name_H-M_alt    "P 1"
_space_group_IT_number       1

loop_
  _space_group_symop_operation_xyz
  'x, y, z'

loop_
  _atom_site_type_symbol
  _atom_site_label
  _atom_site_symmetry_multiplicity
  _atom_site_fract_x
  _atom_site_fract_y
  _atom_site_fract_z
  _atom_site_occupancy
  Ba  Ba1       1.0  0.24400  0.24400  0.00000  1.0000
  Ba  Ba2       1.0  0.75600  0.75600  0.00000  1.0000
  Ba  Ba3       1.0  0.74400  0.25600  0.50000  1.0000
  Ba  Ba4       1.0  0.25600  0.74400  0.50000  1.0000
  Gd  Gd1       1.0  0.22600  0.22600  0.18400  1.0000
  Gd  Gd2       1.0  0.77400  0.77400  0.18400  1.0000
  Gd  Gd3       1.0  0.72600  0.27400  0.31600  1.0000
  Gd  Gd4       1.0  0.27400  0.72600  0.31600  1.0000
  Gd  Gd5       1.0  0.72600  0.27400  0.68400  1.0000
  Gd  Gd6       1.0  0.27400  0.72600  0.68400  1.0000
  Gd  Gd7       1.0  0.22600  0.22600  0.81600  1.0000
  Gd  Gd8       1.0  0.77400  0.77400  0.81600  1.0000
  Mn  Mn1       1.0  0.74600  0.25400  0.10300  1.0000
  Mn  Mn2       1.0  0.25400  0.74600  0.10300  1.0000
  Mn  Mn3       1.0  0.24600  0.24600  0.39700  1.0000
  Mn  Mn4       1.0  0.75400  0.75400  0.39700  1.0000
  Mn  Mn5       1.0  0.24600  0.24600  0.60300  1.0000
  Mn  Mn6       1.0  0.75400  0.75400  0.60300  1.0000
  Mn  Mn7       1.0  0.74600  0.25400  0.89700  1.0000
  Mn  Mn8       1.0  0.25400  0.74600  0.89700  1.0000
  O   O1        1.0  0.72900  0.27100  0.00000  1.0000
  O   O2        1.0  0.27100  0.72900  0.00000  1.0000
  O   O3        1.0  0.00000  0.00000  0.09830  1.0000
  O   O4        1.0  0.50000  0.00000  0.11300  1.0000
  O   O5        1.0  0.00000  0.50000  0.11300  1.0000
  O   O6        1.0  0.50000  0.50000  0.12600  1.0000
  O   O7        1.0  0.80800  0.19200  0.21000  1.0000
  O   O8        1.0  0.19200  0.80800  0.21000  1.0000
  O   O9        1.0  0.30800  0.30800  0.29000  1.0000
  O   O10       1.0  0.69200  0.69200  0.29000  1.0000
  O   O11       1.0  0.00000  0.00000  0.37400  1.0000
  O   O12       1.0  0.50000  0.00000  0.38700  1.0000
  O   O13       1.0  0.00000  0.50000  0.38700  1.0000
  O   O14       1.0  0.50000  0.50000  0.40200  1.0000
  O   O15       1.0  0.22900  0.22900  0.50000  1.0000
  O   O16       1.0  0.77100  0.77100  0.50000  1.0000
  O   O17       1.0  0.50000  0.50000  0.59800  1.0000
  O   O18       1.0  0.50000  0.00000  0.61300  1.0000
  O   O19       1.0  0.00000  0.50000  0.61300  1.0000
  O   O20       1.0  0.00000  0.00000  0.62600  1.0000
  O   O21       1.0  0.30800  0.30800  0.71000  1.0000
  O   O22       1.0  0.69200  0.69200  0.71000  1.0000
  O   O23       1.0  0.80800  0.19200  0.79000  1.0000
  O   O24       1.0  0.19200  0.80800  0.79000  1.0000
  O   O25       1.0  0.50000  0.50000  0.87400  1.0000
  O   O26       1.0  0.50000  0.00000  0.88700  1.0000
  O   O27       1.0  0.00000  0.50000  0.88700  1.0000
  O   O28       1.0  0.00000  0.00000  0.90200  1.0000
