data_image0
_chemical_formula_structural       P8S32Sm8
_chemical_formula_sum              "P8 S32 Sm8"
_cell_length_a       12.3184
_cell_length_b       10.8843
_cell_length_c       10.8843
_cell_angle_alpha    90
_cell_angle_beta     116.218
_cell_angle_gamma    116.218

_space_group_name_H-M_alt    "P 1"
_space_group_IT_number       1

loop_
  _space_group_symop_operation_xyz
  'x, y, z'

loop_
  _atom_site_type_symbol
  _atom_site_label
  _atom_site_symmetry_multiplicity
  _atom_site_fract_x
  _atom_site_fract_y
  _atom_site_fract_z
  _atom_site_occupancy
  P   P1        1.0  0.00000  0.75000  0.21200  1.0000
  P   P2        1.0  0.50000  0.28800  0.25000  1.0000
  P   P3        1.0  0.50000  0.78800  0.25000  1.0000
  P   P4        1.0  0.00000  0.25000  0.28800  1.0000
  P   P5        1.0  0.00000  0.75000  0.71200  1.0000
  P   P6        1.0  0.50000  0.21200  0.75000  1.0000
  P   P7        1.0  0.50000  0.71200  0.75000  1.0000
  P   P8        1.0  0.00000  0.25000  0.78800  1.0000
  S   S1        1.0  0.49600  0.38600  0.08790  1.0000
  S   S2        1.0  0.50400  0.89000  0.09200  1.0000
  S   S3        1.0  0.82300  0.16400  0.09560  1.0000
  S   S4        1.0  0.99600  0.90800  0.11000  1.0000
  S   S5        1.0  0.00402  0.59200  0.11400  1.0000
  S   S6        1.0  0.32300  0.59600  0.15900  1.0000
  S   S7        1.0  0.32300  0.09560  0.16400  1.0000
  S   S8        1.0  0.82300  0.65900  0.22700  1.0000
  S   S9        1.0  0.17700  0.33600  0.27300  1.0000
  S   S10       1.0  0.67700  0.27300  0.33600  1.0000
  S   S11       1.0  0.67700  0.77300  0.34100  1.0000
  S   S12       1.0  0.99600  0.08790  0.38600  1.0000
  S   S13       1.0  0.00402  0.41200  0.39000  1.0000
  S   S14       1.0  0.17700  0.84100  0.40400  1.0000
  S   S15       1.0  0.49600  0.88600  0.40800  1.0000
  S   S16       1.0  0.50400  0.39000  0.41200  1.0000
  S   S17       1.0  0.49600  0.61000  0.58800  1.0000
  S   S18       1.0  0.50400  0.11400  0.59200  1.0000
  S   S19       1.0  0.82300  0.15900  0.59600  1.0000
  S   S20       1.0  0.99600  0.58800  0.61000  1.0000
  S   S21       1.0  0.00402  0.91200  0.61400  1.0000
  S   S22       1.0  0.32300  0.22700  0.65900  1.0000
  S   S23       1.0  0.32300  0.72700  0.66400  1.0000
  S   S24       1.0  0.82300  0.66400  0.72700  1.0000
  S   S25       1.0  0.17700  0.34100  0.77300  1.0000
  S   S26       1.0  0.67700  0.90400  0.83600  1.0000
  S   S27       1.0  0.67700  0.40400  0.84100  1.0000
  S   S28       1.0  0.99600  0.40800  0.88600  1.0000
  S   S29       1.0  0.00402  0.09200  0.89000  1.0000
  S   S30       1.0  0.17700  0.83600  0.90400  1.0000
  S   S31       1.0  0.49600  0.11000  0.90800  1.0000
  S   S32       1.0  0.50400  0.61400  0.91200  1.0000
  Sm  Sm1       1.0  0.75000  0.37500  0.12500  1.0000
  Sm  Sm2       1.0  0.75000  0.87500  0.12500  1.0000
  Sm  Sm3       1.0  0.25000  0.12500  0.37500  1.0000
  Sm  Sm4       1.0  0.25000  0.62500  0.37500  1.0000
  Sm  Sm5       1.0  0.75000  0.37500  0.62500  1.0000
  Sm  Sm6       1.0  0.75000  0.87500  0.62500  1.0000
  Sm  Sm7       1.0  0.25000  0.12500  0.87500  1.0000
  Sm  Sm8       1.0  0.25000  0.62500  0.87500  1.0000
