data_image0
_chemical_formula_structural       Np8P8S32
_chemical_formula_sum              "Np8 P8 S32"
_cell_length_a       12.2325
_cell_length_b       10.9184
_cell_length_c       10.9184
_cell_angle_alpha    90
_cell_angle_beta     116.506
_cell_angle_gamma    116.506

_space_group_name_H-M_alt    "P 1"
_space_group_IT_number       1

loop_
  _space_group_symop_operation_xyz
  'x, y, z'

loop_
  _atom_site_type_symbol
  _atom_site_label
  _atom_site_symmetry_multiplicity
  _atom_site_fract_x
  _atom_site_fract_y
  _atom_site_fract_z
  _atom_site_occupancy
  Np  Np1       1.0  0.75000  0.37500  0.12500  1.0000
  Np  Np2       1.0  0.75000  0.87500  0.12500  1.0000
  Np  Np3       1.0  0.25000  0.12500  0.37500  1.0000
  Np  Np4       1.0  0.25000  0.62500  0.37500  1.0000
  Np  Np5       1.0  0.75000  0.37500  0.62500  1.0000
  Np  Np6       1.0  0.75000  0.87500  0.62500  1.0000
  Np  Np7       1.0  0.25000  0.12500  0.87500  1.0000
  Np  Np8       1.0  0.25000  0.62500  0.87500  1.0000
  P   P1        1.0  0.00000  0.25000  0.21300  1.0000
  P   P2        1.0  0.50000  0.21300  0.25000  1.0000
  P   P3        1.0  0.50000  0.71300  0.25000  1.0000
  P   P4        1.0  0.00000  0.75000  0.28700  1.0000
  P   P5        1.0  0.00000  0.25000  0.71300  1.0000
  P   P6        1.0  0.50000  0.28700  0.75000  1.0000
  P   P7        1.0  0.50000  0.78700  0.75000  1.0000
  P   P8        1.0  0.00000  0.75000  0.78700  1.0000
  S   S1        1.0  0.49500  0.11200  0.08700  1.0000
  S   S2        1.0  0.50500  0.61800  0.09210  1.0000
  S   S3        1.0  0.82000  0.65600  0.09330  1.0000
  S   S4        1.0  0.99500  0.08700  0.11200  1.0000
  S   S5        1.0  0.00519  0.41300  0.11800  1.0000
  S   S6        1.0  0.32000  0.72600  0.15600  1.0000
  S   S7        1.0  0.32000  0.22600  0.16300  1.0000
  S   S8        1.0  0.82000  0.16300  0.22600  1.0000
  S   S9        1.0  0.18000  0.84400  0.27400  1.0000
  S   S10       1.0  0.68000  0.40700  0.33700  1.0000
  S   S11       1.0  0.68000  0.90700  0.34400  1.0000
  S   S12       1.0  0.99500  0.90800  0.38200  1.0000
  S   S13       1.0  0.00519  0.59200  0.38800  1.0000
  S   S14       1.0  0.18000  0.33700  0.40700  1.0000
  S   S15       1.0  0.49500  0.61200  0.40800  1.0000
  S   S16       1.0  0.50500  0.11800  0.41300  1.0000
  S   S17       1.0  0.49500  0.88200  0.58700  1.0000
  S   S18       1.0  0.50500  0.38800  0.59200  1.0000
  S   S19       1.0  0.82000  0.66300  0.59300  1.0000
  S   S20       1.0  0.99500  0.40800  0.61200  1.0000
  S   S21       1.0  0.00519  0.09210  0.61800  1.0000
  S   S22       1.0  0.32000  0.09330  0.65600  1.0000
  S   S23       1.0  0.32000  0.59300  0.66300  1.0000
  S   S24       1.0  0.82000  0.15600  0.72600  1.0000
  S   S25       1.0  0.18000  0.83700  0.77400  1.0000
  S   S26       1.0  0.68000  0.77400  0.83700  1.0000
  S   S27       1.0  0.68000  0.27400  0.84400  1.0000
  S   S28       1.0  0.99500  0.58700  0.88200  1.0000
  S   S29       1.0  0.00519  0.91300  0.88800  1.0000
  S   S30       1.0  0.18000  0.34400  0.90700  1.0000
  S   S31       1.0  0.49500  0.38200  0.90800  1.0000
  S   S32       1.0  0.50500  0.88800  0.91300  1.0000
