data_image0
_chemical_formula_structural       Al4H8K2Ni2O28P6
_chemical_formula_sum              "Al4 H8 K2 Ni2 O28 P6"
_cell_length_a       8.1836
_cell_length_b       8.1836
_cell_length_c       8.68065
_cell_angle_alpha    104.31
_cell_angle_beta     75.6902
_cell_angle_gamma    104.591

_space_group_name_H-M_alt    "P 1"
_space_group_IT_number       1

loop_
  _space_group_symop_operation_xyz
  'x, y, z'

loop_
  _atom_site_type_symbol
  _atom_site_label
  _atom_site_symmetry_multiplicity
  _atom_site_fract_x
  _atom_site_fract_y
  _atom_site_fract_z
  _atom_site_occupancy
  Al  Al1       1.0  0.25200  0.59600  0.07260  1.0000
  Al  Al2       1.0  0.59600  0.25200  0.42700  1.0000
  Al  Al3       1.0  0.40400  0.74800  0.57300  1.0000
  Al  Al4       1.0  0.74800  0.40400  0.92700  1.0000
  H   H1        1.0  0.72500  0.02840  0.00045  1.0000
  H   H2        1.0  0.57300  0.87100  0.04880  1.0000
  H   H3        1.0  0.87100  0.57300  0.45100  1.0000
  H   H4        1.0  0.02840  0.72500  0.50000  1.0000
  H   H5        1.0  0.97200  0.27500  0.50000  1.0000
  H   H6        1.0  0.12900  0.42700  0.54900  1.0000
  H   H7        1.0  0.42700  0.12900  0.95100  1.0000
  H   H8        1.0  0.27500  0.97200  1.00000  1.0000
  K   K1        1.0  0.86200  0.86200  0.25000  1.0000
  K   K2        1.0  0.13800  0.13800  0.75000  1.0000
  Ni  Ni1       1.0  0.22200  0.22200  0.25000  1.0000
  Ni  Ni2       1.0  0.77800  0.77800  0.75000  1.0000
  O   O1        1.0  0.30700  0.09860  0.01210  1.0000
  O   O2        1.0  0.81700  0.26500  0.03260  1.0000
  O   O3        1.0  0.65300  0.53000  0.11200  1.0000
  O   O4        1.0  0.03720  0.50700  0.15500  1.0000
  O   O5        1.0  0.38100  0.78900  0.16400  1.0000
  O   O6        1.0  0.00064  0.18900  0.18000  1.0000
  O   O7        1.0  0.32400  0.47300  0.19700  1.0000
  O   O8        1.0  0.47300  0.32400  0.30300  1.0000
  O   O9        1.0  0.18900  0.00064  0.32000  1.0000
  O   O10       1.0  0.78900  0.38100  0.33600  1.0000
  O   O11       1.0  0.50700  0.03720  0.34500  1.0000
  O   O12       1.0  0.53000  0.65300  0.38800  1.0000
  O   O13       1.0  0.26500  0.81700  0.46700  1.0000
  O   O14       1.0  0.09860  0.30700  0.48800  1.0000
  O   O15       1.0  0.90100  0.69300  0.51200  1.0000
  O   O16       1.0  0.73500  0.18300  0.53300  1.0000
  O   O17       1.0  0.47000  0.34700  0.61200  1.0000
  O   O18       1.0  0.49300  0.96300  0.65500  1.0000
  O   O19       1.0  0.21100  0.61900  0.66400  1.0000
  O   O20       1.0  0.81100  0.99900  0.68000  1.0000
  O   O21       1.0  0.52700  0.67600  0.69700  1.0000
  O   O22       1.0  0.67600  0.52700  0.80300  1.0000
  O   O23       1.0  0.99900  0.81100  0.82000  1.0000
  O   O24       1.0  0.61900  0.21100  0.83600  1.0000
  O   O25       1.0  0.96300  0.49300  0.84500  1.0000
  O   O26       1.0  0.34700  0.47000  0.88800  1.0000
  O   O27       1.0  0.18300  0.73500  0.96700  1.0000
  O   O28       1.0  0.69300  0.90100  0.98800  1.0000
  P   P1        1.0  0.91600  0.33200  0.17400  1.0000
  P   P2        1.0  0.49800  0.49800  0.25000  1.0000
  P   P3        1.0  0.33200  0.91600  0.32600  1.0000
  P   P4        1.0  0.66800  0.08390  0.67400  1.0000
  P   P5        1.0  0.50200  0.50200  0.75000  1.0000
  P   P6        1.0  0.08390  0.66800  0.82600  1.0000
