data_image0
_chemical_formula_structural       Ag4Be4O4Te4
_chemical_formula_sum              "Ag4 Be4 O4 Te4"
_cell_length_a       5.0323
_cell_length_b       5.95307
_cell_length_c       10.059
_cell_angle_alpha    90
_cell_angle_beta     90
_cell_angle_gamma    90

_space_group_name_H-M_alt    "P 1"
_space_group_IT_number       1

loop_
  _space_group_symop_operation_xyz
  'x, y, z'

loop_
  _atom_site_type_symbol
  _atom_site_label
  _atom_site_symmetry_multiplicity
  _atom_site_fract_x
  _atom_site_fract_y
  _atom_site_fract_z
  _atom_site_occupancy
  Ag  Ag1       1.0  0.49900  0.78400  0.08100  1.0000
  Ag  Ag2       1.0  0.50100  0.28400  0.41900  1.0000
  Ag  Ag3       1.0  0.00085  0.21600  0.58100  1.0000
  Ag  Ag4       1.0  0.99900  0.71600  0.91900  1.0000
  Be  Be1       1.0  0.20800  0.24900  0.03730  1.0000
  Be  Be2       1.0  0.79200  0.74900  0.46300  1.0000
  Be  Be3       1.0  0.29200  0.75100  0.53700  1.0000
  Be  Be4       1.0  0.70800  0.25100  0.96300  1.0000
  O   O1        1.0  0.49000  0.20300  0.05340  1.0000
  O   O2        1.0  0.51000  0.70300  0.44700  1.0000
  O   O3        1.0  0.00972  0.79700  0.55300  1.0000
  O   O4        1.0  0.99000  0.29700  0.94700  1.0000
  Te  Te1       1.0  0.99400  0.74200  0.21200  1.0000
  Te  Te2       1.0  0.00612  0.24200  0.28800  1.0000
  Te  Te3       1.0  0.50600  0.25800  0.71200  1.0000
  Te  Te4       1.0  0.49400  0.75800  0.78800  1.0000
