data_image0
_chemical_formula_structural       O32Te12Zr4
_chemical_formula_sum              "O32 Te12 Zr4"
_cell_length_a       9.67728
_cell_length_b       9.67728
_cell_length_c       9.67728
_cell_angle_alpha    109.471
_cell_angle_beta     109.471
_cell_angle_gamma    109.471

_space_group_name_H-M_alt    "P 1"
_space_group_IT_number       1

loop_
  _space_group_symop_operation_xyz
  'x, y, z'

loop_
  _atom_site_type_symbol
  _atom_site_label
  _atom_site_symmetry_multiplicity
  _atom_site_fract_x
  _atom_site_fract_y
  _atom_site_fract_z
  _atom_site_occupancy
  O   O1        1.0  0.33800  0.50000  0.00000  1.0000
  O   O2        1.0  0.66200  0.50000  0.00000  1.0000
  O   O3        1.0  0.06540  0.32000  0.02210  1.0000
  O   O4        1.0  0.47800  0.79800  0.04330  1.0000
  O   O5        1.0  0.32000  0.02210  0.06540  1.0000
  O   O6        1.0  0.16200  0.16200  0.16200  1.0000
  O   O7        1.0  0.24600  0.70200  0.18000  1.0000
  O   O8        1.0  0.95700  0.52200  0.20200  1.0000
  O   O9        1.0  0.70200  0.18000  0.24600  1.0000
  O   O10       1.0  0.43500  0.45700  0.25400  1.0000
  O   O11       1.0  0.82000  0.75400  0.29800  1.0000
  O   O12       1.0  0.02210  0.06540  0.32000  1.0000
  O   O13       1.0  0.50000  0.00000  0.33800  1.0000
  O   O14       1.0  0.45700  0.25400  0.43500  1.0000
  O   O15       1.0  0.25400  0.43500  0.45700  1.0000
  O   O16       1.0  0.79800  0.04330  0.47800  1.0000
  O   O17       1.0  0.00000  0.33800  0.50000  1.0000
  O   O18       1.0  0.00000  0.66200  0.50000  1.0000
  O   O19       1.0  0.20200  0.95700  0.52200  1.0000
  O   O20       1.0  0.74600  0.56500  0.54300  1.0000
  O   O21       1.0  0.54300  0.74600  0.56500  1.0000
  O   O22       1.0  0.50000  0.00000  0.66200  1.0000
  O   O23       1.0  0.97800  0.93500  0.68000  1.0000
  O   O24       1.0  0.18000  0.24600  0.70200  1.0000
  O   O25       1.0  0.56500  0.54300  0.74600  1.0000
  O   O26       1.0  0.29800  0.82000  0.75400  1.0000
  O   O27       1.0  0.04330  0.47800  0.79800  1.0000
  O   O28       1.0  0.75400  0.29800  0.82000  1.0000
  O   O29       1.0  0.83800  0.83800  0.83800  1.0000
  O   O30       1.0  0.68000  0.97800  0.93500  1.0000
  O   O31       1.0  0.52200  0.20200  0.95700  1.0000
  O   O32       1.0  0.93500  0.68000  0.97800  1.0000
  Te  Te1       1.0  0.25000  0.28400  0.03370  1.0000
  Te  Te2       1.0  0.46600  0.75000  0.21600  1.0000
  Te  Te3       1.0  0.28400  0.03370  0.25000  1.0000
  Te  Te4       1.0  0.78400  0.53400  0.25000  1.0000
  Te  Te5       1.0  0.03370  0.25000  0.28400  1.0000
  Te  Te6       1.0  0.75000  0.21600  0.46600  1.0000
  Te  Te7       1.0  0.25000  0.78400  0.53400  1.0000
  Te  Te8       1.0  0.96600  0.75000  0.71600  1.0000
  Te  Te9       1.0  0.21600  0.46600  0.75000  1.0000
  Te  Te10      1.0  0.71600  0.96600  0.75000  1.0000
  Te  Te11      1.0  0.53400  0.25000  0.78400  1.0000
  Te  Te12      1.0  0.75000  0.71600  0.96600  1.0000
  Zr  Zr1       1.0  0.50000  0.00000  0.00000  1.0000
  Zr  Zr2       1.0  0.00000  0.50000  0.00000  1.0000
  Zr  Zr3       1.0  0.00000  0.00000  0.50000  1.0000
  Zr  Zr4       1.0  0.50000  0.50000  0.50000  1.0000
