data_image0
_chemical_formula_structural       K16P8Se24
_chemical_formula_sum              "K16 P8 Se24"
_cell_length_a       13.9466
_cell_length_b       12.5398
_cell_length_c       8.88356
_cell_angle_alpha    90
_cell_angle_beta     91.1413
_cell_angle_gamma    90

_space_group_name_H-M_alt    "P 1"
_space_group_IT_number       1

loop_
  _space_group_symop_operation_xyz
  'x, y, z'

loop_
  _atom_site_type_symbol
  _atom_site_label
  _atom_site_symmetry_multiplicity
  _atom_site_fract_x
  _atom_site_fract_y
  _atom_site_fract_z
  _atom_site_occupancy
  K   K1        1.0  0.43800  0.29000  0.16900  1.0000
  K   K2        1.0  0.18700  0.93500  0.17700  1.0000
  K   K3        1.0  0.29300  0.60300  0.21600  1.0000
  K   K4        1.0  0.92100  0.76500  0.22500  1.0000
  K   K5        1.0  0.07900  0.26500  0.27500  1.0000
  K   K6        1.0  0.70700  0.10300  0.28400  1.0000
  K   K7        1.0  0.81300  0.43500  0.32300  1.0000
  K   K8        1.0  0.56200  0.79000  0.33100  1.0000
  K   K9        1.0  0.43800  0.21000  0.66900  1.0000
  K   K10       1.0  0.18700  0.56500  0.67700  1.0000
  K   K11       1.0  0.29300  0.89700  0.71600  1.0000
  K   K12       1.0  0.92100  0.73500  0.72500  1.0000
  K   K13       1.0  0.07900  0.23500  0.77500  1.0000
  K   K14       1.0  0.70700  0.39700  0.78400  1.0000
  K   K15       1.0  0.81300  0.06520  0.82300  1.0000
  K   K16       1.0  0.56200  0.71000  0.83100  1.0000
  P   P1        1.0  0.06940  0.52900  0.06290  1.0000
  P   P2        1.0  0.43200  0.99200  0.07220  1.0000
  P   P3        1.0  0.56800  0.49200  0.42800  1.0000
  P   P4        1.0  0.93100  0.02860  0.43700  1.0000
  P   P5        1.0  0.06940  0.97100  0.56300  1.0000
  P   P6        1.0  0.43200  0.50800  0.57200  1.0000
  P   P7        1.0  0.56800  0.00767  0.92800  1.0000
  P   P8        1.0  0.93100  0.47100  0.93700  1.0000
  Se  Se1       1.0  0.18400  0.41500  0.00199  1.0000
  Se  Se2       1.0  0.90100  0.30800  0.02050  1.0000
  Se  Se3       1.0  0.67700  0.90000  0.03070  1.0000
  Se  Se4       1.0  0.39000  0.82300  0.04770  1.0000
  Se  Se5       1.0  0.96000  0.02960  0.19300  1.0000
  Se  Se6       1.0  0.53200  0.53500  0.19400  1.0000
  Se  Se7       1.0  0.46800  0.03500  0.30600  1.0000
  Se  Se8       1.0  0.04050  0.53000  0.30700  1.0000
  Se  Se9       1.0  0.61000  0.32300  0.45200  1.0000
  Se  Se10      1.0  0.32300  0.40000  0.46900  1.0000
  Se  Se11      1.0  0.09860  0.80800  0.48000  1.0000
  Se  Se12      1.0  0.81600  0.91500  0.49800  1.0000
  Se  Se13      1.0  0.18400  0.08450  0.50200  1.0000
  Se  Se14      1.0  0.90100  0.19200  0.52000  1.0000
  Se  Se15      1.0  0.67700  0.60000  0.53100  1.0000
  Se  Se16      1.0  0.39000  0.67700  0.54800  1.0000
  Se  Se17      1.0  0.96000  0.47000  0.69300  1.0000
  Se  Se18      1.0  0.53200  0.96500  0.69400  1.0000
  Se  Se19      1.0  0.46800  0.46500  0.80600  1.0000
  Se  Se20      1.0  0.04050  0.97000  0.80700  1.0000
  Se  Se21      1.0  0.61000  0.17700  0.95200  1.0000
  Se  Se22      1.0  0.32300  0.09960  0.96900  1.0000
  Se  Se23      1.0  0.09860  0.69200  0.98000  1.0000
  Se  Se24      1.0  0.81600  0.58500  0.99800  1.0000
