data_image0
_chemical_formula_structural       C8Ge4H24MnN2S10
_chemical_formula_sum              "C8 Ge4 H24 Mn1 N2 S10"
_cell_length_a       9.55328
_cell_length_b       9.55328
_cell_length_c       9.85064
_cell_angle_alpha    119.006
_cell_angle_beta     119.006
_cell_angle_gamma    90

_space_group_name_H-M_alt    "P 1"
_space_group_IT_number       1

loop_
  _space_group_symop_operation_xyz
  'x, y, z'

loop_
  _atom_site_type_symbol
  _atom_site_label
  _atom_site_symmetry_multiplicity
  _atom_site_fract_x
  _atom_site_fract_y
  _atom_site_fract_z
  _atom_site_occupancy
  C   C1        1.0  0.09870  0.18200  0.12200  1.0000
  C   C2        1.0  0.02290  0.94000  0.12200  1.0000
  C   C3        1.0  0.26700  0.58800  0.38000  1.0000
  C   C4        1.0  0.11300  0.79200  0.38000  1.0000
  C   C5        1.0  0.20800  0.73300  0.62000  1.0000
  C   C6        1.0  0.41200  0.88700  0.62000  1.0000
  C   C7        1.0  0.06040  0.90100  0.87800  1.0000
  C   C8        1.0  0.81800  0.97700  0.87800  1.0000
  Ge  Ge1       1.0  0.65700  0.41200  0.17800  1.0000
  Ge  Ge2       1.0  0.52200  0.76600  0.17800  1.0000
  Ge  Ge3       1.0  0.23400  0.34300  0.82200  1.0000
  Ge  Ge4       1.0  0.58800  0.47800  0.82200  1.0000
  H   H1        1.0  0.07900  0.22600  0.03170  1.0000
  H   H2        1.0  0.95300  0.80500  0.03170  1.0000
  H   H3        1.0  0.97500  0.01130  0.20600  1.0000
  H   H4        1.0  0.23200  0.19500  0.20600  1.0000
  H   H5        1.0  0.05220  0.24900  0.21000  1.0000
  H   H6        1.0  0.15800  0.96200  0.21000  1.0000
  H   H7        1.0  0.14500  0.49200  0.29100  1.0000
  H   H8        1.0  0.14700  0.79900  0.29100  1.0000
  H   H9        1.0  0.29900  0.60100  0.29300  1.0000
  H   H10       1.0  0.99400  0.69100  0.29300  1.0000
  H   H11       1.0  0.36500  0.55600  0.46800  1.0000
  H   H12       1.0  0.10300  0.91200  0.46800  1.0000
  H   H13       1.0  0.08770  0.63500  0.53200  1.0000
  H   H14       1.0  0.44400  0.89700  0.53200  1.0000
  H   H15       1.0  0.39900  0.00592  0.70700  1.0000
  H   H16       1.0  0.30900  0.70100  0.70700  1.0000
  H   H17       1.0  0.50800  0.85300  0.70900  1.0000
  H   H18       1.0  0.20100  0.85500  0.70900  1.0000
  H   H19       1.0  0.75100  0.84200  0.79000  1.0000
  H   H20       1.0  0.03810  0.94800  0.79000  1.0000
  H   H21       1.0  0.80500  0.02540  0.79400  1.0000
  H   H22       1.0  0.98900  0.76800  0.79400  1.0000
  H   H23       1.0  0.77400  0.04740  0.96800  1.0000
  H   H24       1.0  0.19500  0.92100  0.96800  1.0000
  Mn  Mn1       1.0  0.75000  0.25000  0.50000  1.0000
  N   N1        1.0  0.00000  0.00000  0.00000  1.0000
  N   N2        1.0  0.25000  0.75000  0.50000  1.0000
  S   S1        1.0  0.38900  0.25100  0.00357  1.0000
  S   S2        1.0  0.61500  0.75300  0.00357  1.0000
  S   S3        1.0  0.51200  0.01700  0.34300  1.0000
  S   S4        1.0  0.83100  0.32600  0.34300  1.0000
  S   S5        1.0  0.68400  0.68400  0.36700  1.0000
  S   S6        1.0  0.31600  0.31600  0.63300  1.0000
  S   S7        1.0  0.98300  0.16900  0.65700  1.0000
  S   S8        1.0  0.67400  0.48800  0.65700  1.0000
  S   S9        1.0  0.74900  0.38500  0.99600  1.0000
  S   S10       1.0  0.24700  0.61100  0.99600  1.0000
