data_image0
_chemical_formula_structural       Ca2O2Sn2Te2
_chemical_formula_sum              "Ca2 O2 Sn2 Te2"
_cell_length_a       3.97088
_cell_length_b       3.97392
_cell_length_c       14.3705
_cell_angle_alpha    90
_cell_angle_beta     90
_cell_angle_gamma    119.975

_space_group_name_H-M_alt    "P 1"
_space_group_IT_number       1

loop_
  _space_group_symop_operation_xyz
  'x, y, z'

loop_
  _atom_site_type_symbol
  _atom_site_label
  _atom_site_symmetry_multiplicity
  _atom_site_fract_x
  _atom_site_fract_y
  _atom_site_fract_z
  _atom_site_occupancy
  Ca  Ca1       1.0  0.33300  0.66700  0.27500  1.0000
  Ca  Ca2       1.0  0.66700  0.33300  0.77500  1.0000
  O   O1        1.0  0.00000  0.00013  0.32200  1.0000
  O   O2        1.0  0.00000  0.00000  0.82200  1.0000
  Sn  Sn1       1.0  0.00018  0.00037  0.47700  1.0000
  Sn  Sn2       1.0  0.00000  0.00000  0.97700  1.0000
  Te  Te1       1.0  0.66700  0.33400  0.11400  1.0000
  Te  Te2       1.0  0.33300  0.66600  0.61400  1.0000
