data_image0
_chemical_formula_structural       B8Bi8Ca4O28
_chemical_formula_sum              "B8 Bi8 Ca4 O28"
_cell_length_a       8.88841
_cell_length_b       5.43264
_cell_length_c       12.4385
_cell_angle_alpha    90
_cell_angle_beta     90
_cell_angle_gamma    90

_space_group_name_H-M_alt    "P 1"
_space_group_IT_number       1

loop_
  _space_group_symop_operation_xyz
  'x, y, z'

loop_
  _atom_site_type_symbol
  _atom_site_label
  _atom_site_symmetry_multiplicity
  _atom_site_fract_x
  _atom_site_fract_y
  _atom_site_fract_z
  _atom_site_occupancy
  B   B1        1.0  0.52200  0.51100  0.13400  1.0000
  B   B2        1.0  0.02210  0.98900  0.13400  1.0000
  B   B3        1.0  0.97800  0.01130  0.37000  1.0000
  B   B4        1.0  0.47800  0.48900  0.37000  1.0000
  B   B5        1.0  0.97800  0.01080  0.63400  1.0000
  B   B6        1.0  0.47800  0.48900  0.63400  1.0000
  B   B7        1.0  0.52200  0.51100  0.87000  1.0000
  B   B8        1.0  0.02200  0.98900  0.87000  1.0000
  Bi  Bi1       1.0  0.83500  0.55700  0.16400  1.0000
  Bi  Bi2       1.0  0.33500  0.94300  0.16400  1.0000
  Bi  Bi3       1.0  0.66600  0.05700  0.33900  1.0000
  Bi  Bi4       1.0  0.16600  0.44300  0.33900  1.0000
  Bi  Bi5       1.0  0.66500  0.05730  0.66400  1.0000
  Bi  Bi6       1.0  0.16500  0.44300  0.66400  1.0000
  Bi  Bi7       1.0  0.83400  0.55700  0.83900  1.0000
  Bi  Bi8       1.0  0.33400  0.94300  0.83900  1.0000
  Ca  Ca1       1.0  0.67400  0.04740  0.00182  1.0000
  Ca  Ca2       1.0  0.17400  0.45300  0.00182  1.0000
  Ca  Ca3       1.0  0.82600  0.54700  0.50200  1.0000
  Ca  Ca4       1.0  0.32600  0.95300  0.50200  1.0000
  O   O1        1.0  0.37200  0.04060  0.00169  1.0000
  O   O2        1.0  0.87200  0.45900  0.00169  1.0000
  O   O3        1.0  0.36900  0.53300  0.13000  1.0000
  O   O4        1.0  0.86900  0.96700  0.13000  1.0000
  O   O5        1.0  0.60700  0.72900  0.13200  1.0000
  O   O6        1.0  0.10700  0.77100  0.13200  1.0000
  O   O7        1.0  0.09970  0.20600  0.14400  1.0000
  O   O8        1.0  0.60000  0.29400  0.14400  1.0000
  O   O9        1.0  0.40000  0.70500  0.36000  1.0000
  O   O10       1.0  0.90000  0.79500  0.36000  1.0000
  O   O11       1.0  0.89300  0.22900  0.37100  1.0000
  O   O12       1.0  0.39300  0.27100  0.37100  1.0000
  O   O13       1.0  0.13200  0.03370  0.37400  1.0000
  O   O14       1.0  0.63200  0.46600  0.37400  1.0000
  O   O15       1.0  0.12800  0.54100  0.50200  1.0000
  O   O16       1.0  0.62800  0.95900  0.50200  1.0000
  O   O17       1.0  0.13100  0.03350  0.63000  1.0000
  O   O18       1.0  0.63100  0.46700  0.63000  1.0000
  O   O19       1.0  0.89300  0.22900  0.63200  1.0000
  O   O20       1.0  0.39300  0.27100  0.63200  1.0000
  O   O21       1.0  0.40000  0.70600  0.64400  1.0000
  O   O22       1.0  0.90000  0.79400  0.64400  1.0000
  O   O23       1.0  0.09960  0.20500  0.86000  1.0000
  O   O24       1.0  0.60000  0.29500  0.86000  1.0000
  O   O25       1.0  0.60700  0.72900  0.87100  1.0000
  O   O26       1.0  0.10700  0.77100  0.87100  1.0000
  O   O27       1.0  0.36800  0.53400  0.87400  1.0000
  O   O28       1.0  0.86800  0.96600  0.87400  1.0000
