data_image0
_chemical_formula_structural       C8FeH24N2Se10Sn4
_chemical_formula_sum              "C8 Fe1 H24 N2 Se10 Sn4"
_cell_length_a       10.4878
_cell_length_b       9.97608
_cell_length_c       9.97608
_cell_angle_alpha    90
_cell_angle_beta     118.399
_cell_angle_gamma    118.399

_space_group_name_H-M_alt    "P 1"
_space_group_IT_number       1

loop_
  _space_group_symop_operation_xyz
  'x, y, z'

loop_
  _atom_site_type_symbol
  _atom_site_label
  _atom_site_symmetry_multiplicity
  _atom_site_fract_x
  _atom_site_fract_y
  _atom_site_fract_z
  _atom_site_occupancy
  C   C1        1.0  0.88900  0.05110  0.00558  1.0000
  C   C2        1.0  0.11100  0.99400  0.16200  1.0000
  C   C3        1.0  0.38700  0.15900  0.57700  1.0000
  C   C4        1.0  0.61300  0.42300  0.77200  1.0000
  C   C5        1.0  0.38700  0.22800  0.81100  1.0000
  C   C6        1.0  0.61300  0.18900  0.84100  1.0000
  C   C7        1.0  0.88900  0.83800  0.88300  1.0000
  C   C8        1.0  0.11100  0.11700  0.94900  1.0000
  Fe  Fe1       1.0  0.00000  0.50000  0.50000  1.0000
  H   H1        1.0  0.19300  0.23500  0.03490  1.0000
  H   H2        1.0  0.80700  0.96500  0.04240  1.0000
  H   H3        1.0  0.97200  0.17000  0.09110  1.0000
  H   H4        1.0  0.19300  0.95800  0.15800  1.0000
  H   H5        1.0  0.02750  0.90900  0.19800  1.0000
  H   H6        1.0  0.19100  0.11400  0.24500  1.0000
  H   H7        1.0  0.30600  0.20600  0.51500  1.0000
  H   H8        1.0  0.47000  0.17700  0.53200  1.0000
  H   H9        1.0  0.30800  0.03280  0.56400  1.0000
  H   H10       1.0  0.53000  0.46800  0.70700  1.0000
  H   H11       1.0  0.69200  0.43600  0.72500  1.0000
  H   H12       1.0  0.30800  0.27500  0.74400  1.0000
  H   H13       1.0  0.80700  0.84200  0.76500  1.0000
  H   H14       1.0  0.30600  0.09960  0.79100  1.0000
  H   H15       1.0  0.69400  0.20900  0.79400  1.0000
  H   H16       1.0  0.53000  0.06210  0.82300  1.0000
  H   H17       1.0  0.02750  0.11900  0.83000  1.0000
  H   H18       1.0  0.97200  0.80200  0.88100  1.0000
  H   H19       1.0  0.80900  0.05330  0.88600  1.0000
  H   H20       1.0  0.69400  0.48500  0.90000  1.0000
  H   H21       1.0  0.80900  0.75500  0.92300  1.0000
  H   H22       1.0  0.47000  0.29300  0.93800  1.0000
  H   H23       1.0  0.19100  0.07690  0.94700  1.0000
  H   H24       1.0  0.69200  0.25600  0.96700  1.0000
  N   N1        1.0  0.00000  0.00000  0.00000  1.0000
  N   N2        1.0  0.50000  0.25000  0.75000  1.0000
  Se  Se1       1.0  0.10900  0.55400  0.05440  1.0000
  Se  Se2       1.0  0.50100  0.02920  0.13400  1.0000
  Se  Se3       1.0  0.85700  0.54600  0.25100  1.0000
  Se  Se4       1.0  0.50100  0.47100  0.36700  1.0000
  Se  Se5       1.0  0.89100  0.94600  0.44600  1.0000
  Se  Se6       1.0  0.14300  0.39400  0.45400  1.0000
  Se  Se7       1.0  0.49900  0.86600  0.52900  1.0000
  Se  Se8       1.0  0.85700  0.31000  0.60600  1.0000
  Se  Se9       1.0  0.14300  0.74900  0.69000  1.0000
  Se  Se10      1.0  0.49900  0.63300  0.97100  1.0000
  Sn  Sn1       1.0  0.68700  0.65300  0.26600  1.0000
  Sn  Sn2       1.0  0.31300  0.57900  0.34700  1.0000
  Sn  Sn3       1.0  0.68700  0.03420  0.42100  1.0000
  Sn  Sn4       1.0  0.31300  0.73400  0.96600  1.0000
