data_image0
_chemical_formula_structural       Ba4O32Se4V8
_chemical_formula_sum              "Ba4 O32 Se4 V8"
_cell_length_a       13.8203
_cell_length_b       5.38194
_cell_length_c       8.90025
_cell_angle_alpha    90
_cell_angle_beta     90
_cell_angle_gamma    90

_space_group_name_H-M_alt    "P 1"
_space_group_IT_number       1

loop_
  _space_group_symop_operation_xyz
  'x, y, z'

loop_
  _atom_site_type_symbol
  _atom_site_label
  _atom_site_symmetry_multiplicity
  _atom_site_fract_x
  _atom_site_fract_y
  _atom_site_fract_z
  _atom_site_occupancy
  Ba  Ba1       1.0  0.07910  0.25000  0.18900  1.0000
  Ba  Ba2       1.0  0.57900  0.25000  0.31100  1.0000
  Ba  Ba3       1.0  0.42100  0.75000  0.68900  1.0000
  Ba  Ba4       1.0  0.92100  0.75000  0.81100  1.0000
  O   O1        1.0  0.46000  0.25000  0.07640  1.0000
  O   O2        1.0  0.68900  0.01460  0.08580  1.0000
  O   O3        1.0  0.68900  0.48500  0.08580  1.0000
  O   O4        1.0  0.89000  0.50400  0.09780  1.0000
  O   O5        1.0  0.89000  0.99600  0.09780  1.0000
  O   O6        1.0  0.19800  0.75000  0.11300  1.0000
  O   O7        1.0  0.27900  0.25000  0.18500  1.0000
  O   O8        1.0  0.02040  0.75000  0.24300  1.0000
  O   O9        1.0  0.52000  0.75000  0.25700  1.0000
  O   O10       1.0  0.77900  0.25000  0.31500  1.0000
  O   O11       1.0  0.69800  0.75000  0.38700  1.0000
  O   O12       1.0  0.39000  0.50400  0.40200  1.0000
  O   O13       1.0  0.39000  0.99600  0.40200  1.0000
  O   O14       1.0  0.18900  0.01460  0.41400  1.0000
  O   O15       1.0  0.18900  0.48500  0.41400  1.0000
  O   O16       1.0  0.96000  0.25000  0.42400  1.0000
  O   O17       1.0  0.03980  0.75000  0.57600  1.0000
  O   O18       1.0  0.81100  0.51500  0.58600  1.0000
  O   O19       1.0  0.81100  0.98500  0.58600  1.0000
  O   O20       1.0  0.61000  0.00380  0.59800  1.0000
  O   O21       1.0  0.61000  0.49600  0.59800  1.0000
  O   O22       1.0  0.30200  0.25000  0.61300  1.0000
  O   O23       1.0  0.22100  0.75000  0.68500  1.0000
  O   O24       1.0  0.48000  0.25000  0.74300  1.0000
  O   O25       1.0  0.98000  0.25000  0.75700  1.0000
  O   O26       1.0  0.72100  0.75000  0.81500  1.0000
  O   O27       1.0  0.80200  0.25000  0.88700  1.0000
  O   O28       1.0  0.11000  0.00380  0.90200  1.0000
  O   O29       1.0  0.11000  0.49600  0.90200  1.0000
  O   O30       1.0  0.31100  0.51500  0.91400  1.0000
  O   O31       1.0  0.31100  0.98500  0.91400  1.0000
  O   O32       1.0  0.54000  0.75000  0.92400  1.0000
  Se  Se1       1.0  0.90000  0.75000  0.23000  1.0000
  Se  Se2       1.0  0.40000  0.75000  0.27000  1.0000
  Se  Se3       1.0  0.60000  0.25000  0.73000  1.0000
  Se  Se4       1.0  0.10000  0.25000  0.77000  1.0000
  V   V1        1.0  0.34500  0.25000  0.02380  1.0000
  V   V2        1.0  0.78700  0.25000  0.06830  1.0000
  V   V3        1.0  0.28700  0.25000  0.43200  1.0000
  V   V4        1.0  0.84500  0.25000  0.47600  1.0000
  V   V5        1.0  0.15500  0.75000  0.52400  1.0000
  V   V6        1.0  0.71300  0.75000  0.56800  1.0000
  V   V7        1.0  0.21300  0.75000  0.93200  1.0000
  V   V8        1.0  0.65500  0.75000  0.97600  1.0000
