data_image0
_chemical_formula_structural       Hg4Mg4O4Te4
_chemical_formula_sum              "Hg4 Mg4 O4 Te4"
_cell_length_a       6.05959
_cell_length_b       3.77499
_cell_length_c       15.1097
_cell_angle_alpha    90
_cell_angle_beta     90
_cell_angle_gamma    90

_space_group_name_H-M_alt    "P 1"
_space_group_IT_number       1

loop_
  _space_group_symop_operation_xyz
  'x, y, z'

loop_
  _atom_site_type_symbol
  _atom_site_label
  _atom_site_symmetry_multiplicity
  _atom_site_fract_x
  _atom_site_fract_y
  _atom_site_fract_z
  _atom_site_occupancy
  Hg  Hg1       1.0  0.68400  0.25000  0.19600  1.0000
  Hg  Hg2       1.0  0.18400  0.25000  0.30400  1.0000
  Hg  Hg3       1.0  0.81600  0.75000  0.69600  1.0000
  Hg  Hg4       1.0  0.31600  0.75000  0.80400  1.0000
  Mg  Mg1       1.0  0.22900  0.75000  0.11400  1.0000
  Mg  Mg2       1.0  0.72900  0.75000  0.38600  1.0000
  Mg  Mg3       1.0  0.27100  0.25000  0.61400  1.0000
  Mg  Mg4       1.0  0.77100  0.25000  0.88600  1.0000
  O   O1        1.0  0.25000  0.25000  0.16100  1.0000
  O   O2        1.0  0.75000  0.25000  0.33900  1.0000
  O   O3        1.0  0.25000  0.75000  0.66100  1.0000
  O   O4        1.0  0.75000  0.75000  0.83900  1.0000
  Te  Te1       1.0  0.75800  0.75000  0.06180  1.0000
  Te  Te2       1.0  0.25800  0.75000  0.43800  1.0000
  Te  Te3       1.0  0.74200  0.25000  0.56200  1.0000
  Te  Te4       1.0  0.24200  0.25000  0.93800  1.0000
