data_image0
_chemical_formula_structural       B16Ba4O28
_chemical_formula_sum              "B16 Ba4 O28"
_cell_length_a       10.9782
_cell_length_b       9.00427
_cell_length_c       4.29848
_cell_angle_alpha    90
_cell_angle_beta     90
_cell_angle_gamma    90

_space_group_name_H-M_alt    "P 1"
_space_group_IT_number       1

loop_
  _space_group_symop_operation_xyz
  'x, y, z'

loop_
  _atom_site_type_symbol
  _atom_site_label
  _atom_site_symmetry_multiplicity
  _atom_site_fract_x
  _atom_site_fract_y
  _atom_site_fract_z
  _atom_site_occupancy
  B   B1        1.0  0.62700  0.41100  0.20600  1.0000
  B   B2        1.0  0.87300  0.41100  0.20600  1.0000
  B   B3        1.0  0.50100  0.15800  0.22000  1.0000
  B   B4        1.0  0.99900  0.15800  0.22000  1.0000
  B   B5        1.0  0.50100  0.65800  0.28000  1.0000
  B   B6        1.0  0.99900  0.65800  0.28000  1.0000
  B   B7        1.0  0.62700  0.91100  0.29400  1.0000
  B   B8        1.0  0.87300  0.91100  0.29400  1.0000
  B   B9        1.0  0.12700  0.08940  0.70600  1.0000
  B   B10       1.0  0.37300  0.08940  0.70600  1.0000
  B   B11       1.0  0.00052  0.34200  0.72000  1.0000
  B   B12       1.0  0.49900  0.34200  0.72000  1.0000
  B   B13       1.0  0.00052  0.84200  0.78000  1.0000
  B   B14       1.0  0.49900  0.84200  0.78000  1.0000
  B   B15       1.0  0.12700  0.58900  0.79400  1.0000
  B   B16       1.0  0.37300  0.58900  0.79400  1.0000
  Ba  Ba1       1.0  0.25000  0.35300  0.23000  1.0000
  Ba  Ba2       1.0  0.25000  0.85300  0.27000  1.0000
  Ba  Ba3       1.0  0.75000  0.14700  0.73000  1.0000
  Ba  Ba4       1.0  0.75000  0.64700  0.77000  1.0000
  O   O1        1.0  0.53700  0.80500  0.12400  1.0000
  O   O2        1.0  0.96300  0.80500  0.12400  1.0000
  O   O3        1.0  0.10700  0.60800  0.12800  1.0000
  O   O4        1.0  0.39300  0.60800  0.12800  1.0000
  O   O5        1.0  0.60500  0.06400  0.20400  1.0000
  O   O6        1.0  0.89500  0.06400  0.20400  1.0000
  O   O7        1.0  0.75000  0.86500  0.21300  1.0000
  O   O8        1.0  0.75000  0.36500  0.28700  1.0000
  O   O9        1.0  0.60500  0.56400  0.29600  1.0000
  O   O10       1.0  0.89500  0.56400  0.29600  1.0000
  O   O11       1.0  0.10700  0.10800  0.37200  1.0000
  O   O12       1.0  0.39300  0.10800  0.37200  1.0000
  O   O13       1.0  0.53700  0.30500  0.37600  1.0000
  O   O14       1.0  0.96300  0.30500  0.37600  1.0000
  O   O15       1.0  0.03740  0.69500  0.62400  1.0000
  O   O16       1.0  0.46300  0.69500  0.62400  1.0000
  O   O17       1.0  0.60700  0.89200  0.62800  1.0000
  O   O18       1.0  0.89300  0.89200  0.62800  1.0000
  O   O19       1.0  0.10500  0.43600  0.70400  1.0000
  O   O20       1.0  0.39500  0.43600  0.70400  1.0000
  O   O21       1.0  0.25000  0.63500  0.71300  1.0000
  O   O22       1.0  0.25000  0.13500  0.78700  1.0000
  O   O23       1.0  0.10500  0.93600  0.79600  1.0000
  O   O24       1.0  0.39500  0.93600  0.79600  1.0000
  O   O25       1.0  0.60700  0.39200  0.87200  1.0000
  O   O26       1.0  0.89300  0.39200  0.87200  1.0000
  O   O27       1.0  0.03740  0.19500  0.87600  1.0000
  O   O28       1.0  0.46300  0.19500  0.87600  1.0000
