data_image0
_chemical_formula_structural       Ga27Mn8Zn14
_chemical_formula_sum              "Ga27 Mn8 Zn14"
_cell_length_a       9.19616
_cell_length_b       9.19616
_cell_length_c       9.19616
_cell_angle_alpha    94.7761
_cell_angle_beta     94.7761
_cell_angle_gamma    94.7761

_space_group_name_H-M_alt    "P 1"
_space_group_IT_number       1

loop_
  _space_group_symop_operation_xyz
  'x, y, z'

loop_
  _atom_site_type_symbol
  _atom_site_label
  _atom_site_symmetry_multiplicity
  _atom_site_fract_x
  _atom_site_fract_y
  _atom_site_fract_z
  _atom_site_occupancy
  Ga  Ga1       1.0  0.50000  0.50000  0.00000  1.0000
  Ga  Ga2       1.0  0.22100  0.39900  0.04350  1.0000
  Ga  Ga3       1.0  0.73200  0.88000  0.05240  1.0000
  Ga  Ga4       1.0  0.44600  0.77400  0.08570  1.0000
  Ga  Ga5       1.0  0.94800  0.26800  0.12000  1.0000
  Ga  Ga6       1.0  0.17700  0.67200  0.14200  1.0000
  Ga  Ga7       1.0  0.67200  0.14200  0.17700  1.0000
  Ga  Ga8       1.0  0.39900  0.04350  0.22100  1.0000
  Ga  Ga9       1.0  0.91400  0.55400  0.22600  1.0000
  Ga  Ga10      1.0  0.12000  0.94800  0.26800  1.0000
  Ga  Ga11      1.0  0.85800  0.82300  0.32800  1.0000
  Ga  Ga12      1.0  0.04350  0.22100  0.39900  1.0000
  Ga  Ga13      1.0  0.77400  0.08570  0.44600  1.0000
  Ga  Ga14      1.0  0.50000  0.00000  0.50000  1.0000
  Ga  Ga15      1.0  1.00000  0.50000  0.50000  1.0000
  Ga  Ga16      1.0  0.22600  0.91400  0.55400  1.0000
  Ga  Ga17      1.0  0.95700  0.77900  0.60100  1.0000
  Ga  Ga18      1.0  0.14200  0.17700  0.67200  1.0000
  Ga  Ga19      1.0  0.88000  0.05240  0.73200  1.0000
  Ga  Ga20      1.0  0.08570  0.44600  0.77400  1.0000
  Ga  Ga21      1.0  0.60100  0.95700  0.77900  1.0000
  Ga  Ga22      1.0  0.32800  0.85800  0.82300  1.0000
  Ga  Ga23      1.0  0.82300  0.32800  0.85800  1.0000
  Ga  Ga24      1.0  0.05240  0.73200  0.88000  1.0000
  Ga  Ga25      1.0  0.55400  0.22600  0.91400  1.0000
  Ga  Ga26      1.0  0.26800  0.12000  0.94800  1.0000
  Ga  Ga27      1.0  0.77900  0.60100  0.95700  1.0000
  Mn  Mn1       1.0  0.71900  0.38600  0.09580  1.0000
  Mn  Mn2       1.0  0.18600  0.18600  0.18600  1.0000
  Mn  Mn3       1.0  0.61400  0.90400  0.28100  1.0000
  Mn  Mn4       1.0  0.09580  0.71900  0.38600  1.0000
  Mn  Mn5       1.0  0.90400  0.28100  0.61400  1.0000
  Mn  Mn6       1.0  0.38600  0.09580  0.71900  1.0000
  Mn  Mn7       1.0  0.81400  0.81400  0.81400  1.0000
  Mn  Mn8       1.0  0.28100  0.61400  0.90400  1.0000
  Zn  Zn1       1.0  0.00000  0.00000  0.00000  1.0000
  Zn  Zn2       1.0  0.46300  0.34000  0.23100  1.0000
  Zn  Zn3       1.0  0.62600  0.61300  0.26500  1.0000
  Zn  Zn4       1.0  0.23100  0.46300  0.34000  1.0000
  Zn  Zn5       1.0  0.38700  0.73500  0.37400  1.0000
  Zn  Zn6       1.0  0.73500  0.37400  0.38700  1.0000
  Zn  Zn7       1.0  0.34000  0.23100  0.46300  1.0000
  Zn  Zn8       1.0  0.50000  0.50000  0.50000  1.0000
  Zn  Zn9       1.0  0.66000  0.76900  0.53700  1.0000
  Zn  Zn10      1.0  0.26500  0.62600  0.61300  1.0000
  Zn  Zn11      1.0  0.61300  0.26500  0.62600  1.0000
  Zn  Zn12      1.0  0.76900  0.53700  0.66000  1.0000
  Zn  Zn13      1.0  0.37400  0.38700  0.73500  1.0000
  Zn  Zn14      1.0  0.53700  0.66000  0.76900  1.0000
