data_image0
_chemical_formula_structural       Cl10Sb2
_chemical_formula_sum              "Cl10 Sb2"
_cell_length_a       7.52356
_cell_length_b       7.52387
_cell_length_c       8.04285
_cell_angle_alpha    90
_cell_angle_beta     90
_cell_angle_gamma    119.999

_space_group_name_H-M_alt    "P 1"
_space_group_IT_number       1

loop_
  _space_group_symop_operation_xyz
  'x, y, z'

loop_
  _atom_site_type_symbol
  _atom_site_label
  _atom_site_symmetry_multiplicity
  _atom_site_fract_x
  _atom_site_fract_y
  _atom_site_fract_z
  _atom_site_occupancy
  Cl  Cl1       1.0  0.66700  0.33300  0.04530  1.0000
  Cl  Cl2       1.0  0.15500  0.30900  0.25000  1.0000
  Cl  Cl3       1.0  0.15500  0.84500  0.25000  1.0000
  Cl  Cl4       1.0  0.69100  0.84500  0.25000  1.0000
  Cl  Cl5       1.0  0.66700  0.33300  0.45500  1.0000
  Cl  Cl6       1.0  0.33300  0.66700  0.54500  1.0000
  Cl  Cl7       1.0  0.30900  0.15500  0.75000  1.0000
  Cl  Cl8       1.0  0.84500  0.15500  0.75000  1.0000
  Cl  Cl9       1.0  0.84500  0.69100  0.75000  1.0000
  Cl  Cl10      1.0  0.33300  0.66700  0.95500  1.0000
  Sb  Sb1       1.0  0.33300  0.66700  0.25000  1.0000
  Sb  Sb2       1.0  0.66700  0.33300  0.75000  1.0000
