data_image0
_chemical_formula_structural       Be4O4Pb4Te4
_chemical_formula_sum              "Be4 O4 Pb4 Te4"
_cell_length_a       7.7555
_cell_length_b       7.80592
_cell_length_c       6.52658
_cell_angle_alpha    90
_cell_angle_beta     90
_cell_angle_gamma    90

_space_group_name_H-M_alt    "P 1"
_space_group_IT_number       1

loop_
  _space_group_symop_operation_xyz
  'x, y, z'

loop_
  _atom_site_type_symbol
  _atom_site_label
  _atom_site_symmetry_multiplicity
  _atom_site_fract_x
  _atom_site_fract_y
  _atom_site_fract_z
  _atom_site_occupancy
  Be  Be1       1.0  0.59200  0.32800  0.10100  1.0000
  Be  Be2       1.0  0.40800  0.82800  0.39900  1.0000
  Be  Be3       1.0  0.90800  0.67200  0.60100  1.0000
  Be  Be4       1.0  0.09230  0.17200  0.89900  1.0000
  O   O1        1.0  0.43600  0.71900  0.22900  1.0000
  O   O2        1.0  0.56400  0.21900  0.27100  1.0000
  O   O3        1.0  0.06410  0.28100  0.72900  1.0000
  O   O4        1.0  0.93600  0.78100  0.77100  1.0000
  Pb  Pb1       1.0  0.72000  0.80600  0.02270  1.0000
  Pb  Pb2       1.0  0.28000  0.30600  0.47700  1.0000
  Pb  Pb3       1.0  0.78000  0.19400  0.52300  1.0000
  Pb  Pb4       1.0  0.22000  0.69400  0.97700  1.0000
  Te  Te1       1.0  0.07560  0.02620  0.20500  1.0000
  Te  Te2       1.0  0.92400  0.52600  0.29500  1.0000
  Te  Te3       1.0  0.42400  0.97400  0.70500  1.0000
  Te  Te4       1.0  0.57600  0.47400  0.79500  1.0000
