data_image0
_chemical_formula_structural       H8O32P8Ti4
_chemical_formula_sum              "H8 O32 P8 Ti4"
_cell_length_a       18.8393
_cell_length_b       6.28576
_cell_length_c       5.10791
_cell_angle_alpha    90
_cell_angle_beta     106.442
_cell_angle_gamma    90

_space_group_name_H-M_alt    "P 1"
_space_group_IT_number       1

loop_
  _space_group_symop_operation_xyz
  'x, y, z'

loop_
  _atom_site_type_symbol
  _atom_site_label
  _atom_site_symmetry_multiplicity
  _atom_site_fract_x
  _atom_site_fract_y
  _atom_site_fract_z
  _atom_site_occupancy
  H   H1        1.0  0.44500  0.84800  0.06810  1.0000
  H   H2        1.0  0.93600  0.68400  0.12500  1.0000
  H   H3        1.0  0.56400  0.18400  0.37500  1.0000
  H   H4        1.0  0.05490  0.34800  0.43200  1.0000
  H   H5        1.0  0.94500  0.65200  0.56800  1.0000
  H   H6        1.0  0.43600  0.81600  0.62500  1.0000
  H   H7        1.0  0.06400  0.31600  0.87500  1.0000
  H   H8        1.0  0.55500  0.15200  0.93200  1.0000
  O   O1        1.0  0.07190  0.76300  0.03470  1.0000
  O   O2        1.0  0.60400  0.72500  0.05440  1.0000
  O   O3        1.0  0.83600  0.92700  0.07370  1.0000
  O   O4        1.0  0.83800  0.54200  0.08040  1.0000
  O   O5        1.0  0.74400  0.23600  0.18200  1.0000
  O   O6        1.0  0.27800  0.26500  0.19500  1.0000
  O   O7        1.0  0.52500  0.22500  0.20800  1.0000
  O   O8        1.0  0.43100  0.92700  0.21600  1.0000
  O   O9        1.0  0.06870  0.42700  0.28400  1.0000
  O   O10       1.0  0.97500  0.72500  0.29200  1.0000
  O   O11       1.0  0.22200  0.76500  0.30500  1.0000
  O   O12       1.0  0.75600  0.73600  0.31800  1.0000
  O   O13       1.0  0.66200  0.04170  0.42000  1.0000
  O   O14       1.0  0.66400  0.42700  0.42600  1.0000
  O   O15       1.0  0.89600  0.22500  0.44600  1.0000
  O   O16       1.0  0.42800  0.26300  0.46500  1.0000
  O   O17       1.0  0.57200  0.73700  0.53500  1.0000
  O   O18       1.0  0.10400  0.77500  0.55400  1.0000
  O   O19       1.0  0.33600  0.57300  0.57400  1.0000
  O   O20       1.0  0.33800  0.95800  0.58000  1.0000
  O   O21       1.0  0.24400  0.26400  0.68200  1.0000
  O   O22       1.0  0.77800  0.23500  0.69500  1.0000
  O   O23       1.0  0.02470  0.27500  0.70800  1.0000
  O   O24       1.0  0.93100  0.57300  0.71600  1.0000
  O   O25       1.0  0.56900  0.07290  0.78400  1.0000
  O   O26       1.0  0.47500  0.77500  0.79200  1.0000
  O   O27       1.0  0.72200  0.73500  0.80500  1.0000
  O   O28       1.0  0.25600  0.76400  0.81800  1.0000
  O   O29       1.0  0.16200  0.45800  0.92000  1.0000
  O   O30       1.0  0.16400  0.07260  0.92600  1.0000
  O   O31       1.0  0.39600  0.27500  0.94600  1.0000
  O   O32       1.0  0.92800  0.23700  0.96500  1.0000
  P   P1        1.0  0.78600  0.73400  0.06790  1.0000
  P   P2        1.0  0.44200  0.17600  0.20800  1.0000
  P   P3        1.0  0.05810  0.67600  0.29200  1.0000
  P   P4        1.0  0.71400  0.23400  0.43200  1.0000
  P   P5        1.0  0.28600  0.76600  0.56800  1.0000
  P   P6        1.0  0.94200  0.32400  0.70800  1.0000
  P   P7        1.0  0.55800  0.82400  0.79200  1.0000
  P   P8        1.0  0.21400  0.26600  0.93200  1.0000
  Ti  Ti1       1.0  0.83400  0.23000  0.06930  1.0000
  Ti  Ti2       1.0  0.66600  0.73000  0.43100  1.0000
  Ti  Ti3       1.0  0.33400  0.27000  0.56900  1.0000
  Ti  Ti4       1.0  0.16600  0.77000  0.93100  1.0000
