data_image0
_chemical_formula_structural       K4O36S8V4
_chemical_formula_sum              "K4 O36 S8 V4"
_cell_length_a       5.01608
_cell_length_b       8.5364
_cell_length_c       15.6635
_cell_angle_alpha    90
_cell_angle_beta     90
_cell_angle_gamma    90

_space_group_name_H-M_alt    "P 1"
_space_group_IT_number       1

loop_
  _space_group_symop_operation_xyz
  'x, y, z'

loop_
  _atom_site_type_symbol
  _atom_site_label
  _atom_site_symmetry_multiplicity
  _atom_site_fract_x
  _atom_site_fract_y
  _atom_site_fract_z
  _atom_site_occupancy
  K   K1        1.0  0.24900  0.08840  0.05520  1.0000
  K   K2        1.0  0.75100  0.58800  0.44500  1.0000
  K   K3        1.0  0.25100  0.91200  0.55500  1.0000
  K   K4        1.0  0.74900  0.41200  0.94500  1.0000
  O   O1        1.0  0.74900  0.97900  0.00642  1.0000
  O   O2        1.0  0.24400  0.78700  0.05680  1.0000
  O   O3        1.0  0.76800  0.26700  0.09480  1.0000
  O   O4        1.0  0.98700  0.57000  0.11800  1.0000
  O   O5        1.0  0.45900  0.56400  0.12800  1.0000
  O   O6        1.0  0.72900  0.82600  0.17100  1.0000
  O   O7        1.0  0.51500  0.15000  0.20700  1.0000
  O   O8        1.0  0.99500  0.14900  0.21300  1.0000
  O   O9        1.0  0.75400  0.39200  0.23800  1.0000
  O   O10       1.0  0.24600  0.89200  0.26200  1.0000
  O   O11       1.0  0.00474  0.64900  0.28700  1.0000
  O   O12       1.0  0.48500  0.65000  0.29300  1.0000
  O   O13       1.0  0.27100  0.32600  0.32900  1.0000
  O   O14       1.0  0.54100  0.06410  0.37200  1.0000
  O   O15       1.0  0.01260  0.06980  0.38200  1.0000
  O   O16       1.0  0.23200  0.76700  0.40500  1.0000
  O   O17       1.0  0.75600  0.28700  0.44300  1.0000
  O   O18       1.0  0.25100  0.47900  0.49400  1.0000
  O   O19       1.0  0.75100  0.02080  0.50600  1.0000
  O   O20       1.0  0.25600  0.21300  0.55700  1.0000
  O   O21       1.0  0.73200  0.73300  0.59500  1.0000
  O   O22       1.0  0.51300  0.43000  0.61800  1.0000
  O   O23       1.0  0.04100  0.43600  0.62800  1.0000
  O   O24       1.0  0.77100  0.17400  0.67100  1.0000
  O   O25       1.0  0.98500  0.85000  0.70700  1.0000
  O   O26       1.0  0.50500  0.85100  0.71300  1.0000
  O   O27       1.0  0.74600  0.60800  0.73800  1.0000
  O   O28       1.0  0.25400  0.10800  0.76200  1.0000
  O   O29       1.0  0.49500  0.35100  0.78700  1.0000
  O   O30       1.0  0.01500  0.35000  0.79300  1.0000
  O   O31       1.0  0.22900  0.67400  0.82900  1.0000
  O   O32       1.0  0.95900  0.93600  0.87200  1.0000
  O   O33       1.0  0.48700  0.93000  0.88200  1.0000
  O   O34       1.0  0.26800  0.23300  0.90500  1.0000
  O   O35       1.0  0.74400  0.71300  0.94300  1.0000
  O   O36       1.0  0.24900  0.52100  0.99400  1.0000
  S   S1        1.0  0.23600  0.62000  0.06810  1.0000
  S   S2        1.0  0.75900  0.24900  0.18700  1.0000
  S   S3        1.0  0.24100  0.74900  0.31300  1.0000
  S   S4        1.0  0.76400  0.12000  0.43200  1.0000
  S   S5        1.0  0.26400  0.38000  0.56800  1.0000
  S   S6        1.0  0.74100  0.75100  0.68700  1.0000
  S   S7        1.0  0.25900  0.25100  0.81300  1.0000
  S   S8        1.0  0.73600  0.88000  0.93200  1.0000
  V   V1        1.0  0.73500  0.64600  0.19700  1.0000
  V   V2        1.0  0.26500  0.14600  0.30300  1.0000
  V   V3        1.0  0.76500  0.35400  0.69700  1.0000
  V   V4        1.0  0.23500  0.85400  0.80300  1.0000
