data_image0
_chemical_formula_structural       O36P16
_chemical_formula_sum              "O36 P16"
_cell_length_a       9.71167
_cell_length_b       9.71167
_cell_length_c       9.71167
_cell_angle_alpha    57.682
_cell_angle_beta     57.6819
_cell_angle_gamma    57.682

_space_group_name_H-M_alt    "P 1"
_space_group_IT_number       1

loop_
  _space_group_symop_operation_xyz
  'x, y, z'

loop_
  _atom_site_type_symbol
  _atom_site_label
  _atom_site_symmetry_multiplicity
  _atom_site_fract_x
  _atom_site_fract_y
  _atom_site_fract_z
  _atom_site_occupancy
  O   O1        1.0  0.19800  0.66200  0.05500  1.0000
  O   O2        1.0  0.84100  0.77000  0.06940  1.0000
  O   O3        1.0  0.36600  0.13800  0.07120  1.0000
  O   O4        1.0  0.42900  0.36200  0.13400  1.0000
  O   O5        1.0  0.07120  0.36600  0.13800  1.0000
  O   O6        1.0  0.23000  0.93100  0.15900  1.0000
  O   O7        1.0  0.69800  0.55500  0.16200  1.0000
  O   O8        1.0  0.66200  0.05500  0.19800  1.0000
  O   O9        1.0  0.93100  0.15900  0.23000  1.0000
  O   O10       1.0  0.34100  0.56900  0.27000  1.0000
  O   O11       1.0  0.44500  0.83800  0.30200  1.0000
  O   O12       1.0  0.94500  0.80200  0.33800  1.0000
  O   O13       1.0  0.56900  0.27000  0.34100  1.0000
  O   O14       1.0  0.13400  0.42900  0.36200  1.0000
  O   O15       1.0  0.13800  0.07120  0.36600  1.0000
  O   O16       1.0  0.36200  0.13400  0.42900  1.0000
  O   O17       1.0  0.73000  0.65900  0.43100  1.0000
  O   O18       1.0  0.83800  0.30200  0.44500  1.0000
  O   O19       1.0  0.16200  0.69800  0.55500  1.0000
  O   O20       1.0  0.27000  0.34100  0.56900  1.0000
  O   O21       1.0  0.63800  0.86600  0.57100  1.0000
  O   O22       1.0  0.86200  0.92900  0.63400  1.0000
  O   O23       1.0  0.86600  0.57100  0.63800  1.0000
  O   O24       1.0  0.43100  0.73000  0.65900  1.0000
  O   O25       1.0  0.05500  0.19800  0.66200  1.0000
  O   O26       1.0  0.55500  0.16200  0.69800  1.0000
  O   O27       1.0  0.65900  0.43100  0.73000  1.0000
  O   O28       1.0  0.06940  0.84100  0.77000  1.0000
  O   O29       1.0  0.33800  0.94500  0.80200  1.0000
  O   O30       1.0  0.30200  0.44500  0.83800  1.0000
  O   O31       1.0  0.77000  0.06940  0.84100  1.0000
  O   O32       1.0  0.92900  0.63400  0.86200  1.0000
  O   O33       1.0  0.57100  0.63800  0.86600  1.0000
  O   O34       1.0  0.63400  0.86200  0.92900  1.0000
  O   O35       1.0  0.15900  0.23000  0.93100  1.0000
  O   O36       1.0  0.80200  0.33800  0.94500  1.0000
  P   P1        1.0  0.76700  0.69300  0.02540  1.0000
  P   P2        1.0  0.07150  0.07150  0.07150  1.0000
  P   P3        1.0  0.26700  0.52500  0.19300  1.0000
  P   P4        1.0  0.30700  0.97500  0.23300  1.0000
  P   P5        1.0  0.52500  0.19300  0.26700  1.0000
  P   P6        1.0  0.97500  0.23300  0.30700  1.0000
  P   P7        1.0  0.42900  0.42900  0.42900  1.0000
  P   P8        1.0  0.80700  0.73300  0.47500  1.0000
  P   P9        1.0  0.19300  0.26700  0.52500  1.0000
  P   P10       1.0  0.57100  0.57100  0.57100  1.0000
  P   P11       1.0  0.02540  0.76700  0.69300  1.0000
  P   P12       1.0  0.47500  0.80700  0.73300  1.0000
  P   P13       1.0  0.69300  0.02540  0.76700  1.0000
  P   P14       1.0  0.73300  0.47500  0.80700  1.0000
  P   P15       1.0  0.92900  0.92900  0.92900  1.0000
  P   P16       1.0  0.23300  0.30700  0.97500  1.0000
