data_image0
_chemical_formula_structural       K6Li4Nb10O30
_chemical_formula_sum              "K6 Li4 Nb10 O30"
_cell_length_a       12.7132
_cell_length_b       12.7132
_cell_length_c       4.00509
_cell_angle_alpha    90
_cell_angle_beta     90
_cell_angle_gamma    90

_space_group_name_H-M_alt    "P 1"
_space_group_IT_number       1

loop_
  _space_group_symop_operation_xyz
  'x, y, z'

loop_
  _atom_site_type_symbol
  _atom_site_label
  _atom_site_symmetry_multiplicity
  _atom_site_fract_x
  _atom_site_fract_y
  _atom_site_fract_z
  _atom_site_occupancy
  K   K1        1.0  0.00000  0.00000  0.50000  1.0000
  K   K2        1.0  0.67100  0.17100  0.50000  1.0000
  K   K3        1.0  0.17100  0.32900  0.50000  1.0000
  K   K4        1.0  0.50000  0.50000  0.50000  1.0000
  K   K5        1.0  0.82900  0.67100  0.50000  1.0000
  K   K6        1.0  0.32900  0.82900  0.50000  1.0000
  Li  Li1       1.0  0.37700  0.12300  0.50000  1.0000
  Li  Li2       1.0  0.87700  0.37700  0.50000  1.0000
  Li  Li3       1.0  0.12300  0.62300  0.50000  1.0000
  Li  Li4       1.0  0.62300  0.87700  0.50000  1.0000
  Nb  Nb1       1.0  0.50000  0.00000  0.00000  1.0000
  Nb  Nb2       1.0  0.20700  0.07760  0.00000  1.0000
  Nb  Nb3       1.0  0.92200  0.20700  0.00000  1.0000
  Nb  Nb4       1.0  0.42200  0.29300  0.00000  1.0000
  Nb  Nb5       1.0  0.70700  0.42200  0.00000  1.0000
  Nb  Nb6       1.0  0.00000  0.50000  0.00000  1.0000
  Nb  Nb7       1.0  0.29300  0.57800  0.00000  1.0000
  Nb  Nb8       1.0  0.57800  0.70700  0.00000  1.0000
  Nb  Nb9       1.0  0.07760  0.79300  0.00000  1.0000
  Nb  Nb10      1.0  0.79300  0.92200  0.00000  1.0000
  O   O1        1.0  0.34500  0.00187  0.00000  1.0000
  O   O2        1.0  0.85900  0.06690  0.00000  1.0000
  O   O3        1.0  0.06690  0.14100  0.00000  1.0000
  O   O4        1.0  0.49800  0.15500  0.00000  1.0000
  O   O5        1.0  0.28600  0.21400  0.00000  1.0000
  O   O6        1.0  0.78600  0.28600  0.00000  1.0000
  O   O7        1.0  0.99800  0.34500  0.00000  1.0000
  O   O8        1.0  0.56700  0.35900  0.00000  1.0000
  O   O9        1.0  0.35900  0.43300  0.00000  1.0000
  O   O10       1.0  0.84500  0.49800  0.00000  1.0000
  O   O11       1.0  0.15500  0.50200  0.00000  1.0000
  O   O12       1.0  0.64100  0.56700  0.00000  1.0000
  O   O13       1.0  0.43300  0.64100  0.00000  1.0000
  O   O14       1.0  0.00187  0.65500  0.00000  1.0000
  O   O15       1.0  0.21400  0.71400  0.00000  1.0000
  O   O16       1.0  0.71400  0.78600  0.00000  1.0000
  O   O17       1.0  0.50200  0.84500  0.00000  1.0000
  O   O18       1.0  0.93300  0.85900  0.00000  1.0000
  O   O19       1.0  0.14100  0.93300  0.00000  1.0000
  O   O20       1.0  0.65500  0.99800  0.00000  1.0000
  O   O21       1.0  0.50000  0.00000  0.50000  1.0000
  O   O22       1.0  0.21600  0.08130  0.50000  1.0000
  O   O23       1.0  0.91900  0.21600  0.50000  1.0000
  O   O24       1.0  0.41900  0.28400  0.50000  1.0000
  O   O25       1.0  0.71600  0.41900  0.50000  1.0000
  O   O26       1.0  0.00000  0.50000  0.50000  1.0000
  O   O27       1.0  0.28400  0.58100  0.50000  1.0000
  O   O28       1.0  0.58100  0.71600  0.50000  1.0000
  O   O29       1.0  0.08130  0.78400  0.50000  1.0000
  O   O30       1.0  0.78400  0.91900  0.50000  1.0000
