data_image0
_chemical_formula_structural       Be4F16H24N8
_chemical_formula_sum              "Be4 F16 H24 N8"
_cell_length_a       5.29788
_cell_length_b       7.24804
_cell_length_c       9.51753
_cell_angle_alpha    90
_cell_angle_beta     91.262
_cell_angle_gamma    90

_space_group_name_H-M_alt    "P 1"
_space_group_IT_number       1

loop_
  _space_group_symop_operation_xyz
  'x, y, z'

loop_
  _atom_site_type_symbol
  _atom_site_label
  _atom_site_symmetry_multiplicity
  _atom_site_fract_x
  _atom_site_fract_y
  _atom_site_fract_z
  _atom_site_occupancy
  Be  Be1       1.0  0.77600  0.28400  0.07930  1.0000
  Be  Be2       1.0  0.22400  0.78400  0.42100  1.0000
  Be  Be3       1.0  0.77600  0.21600  0.57900  1.0000
  Be  Be4       1.0  0.22400  0.71600  0.92100  1.0000
  F   F1        1.0  0.25900  0.61700  0.06170  1.0000
  F   F2        1.0  0.00693  0.15800  0.08790  1.0000
  F   F3        1.0  0.53100  0.16900  0.10600  1.0000
  F   F4        1.0  0.79200  0.42100  0.20600  1.0000
  F   F5        1.0  0.20800  0.92100  0.29400  1.0000
  F   F6        1.0  0.46900  0.66900  0.39400  1.0000
  F   F7        1.0  0.99300  0.65800  0.41200  1.0000
  F   F8        1.0  0.74100  0.11700  0.43800  1.0000
  F   F9        1.0  0.25900  0.88300  0.56200  1.0000
  F   F10       1.0  0.00693  0.34200  0.58800  1.0000
  F   F11       1.0  0.53100  0.33100  0.60600  1.0000
  F   F12       1.0  0.79200  0.07860  0.70600  1.0000
  F   F13       1.0  0.20800  0.57900  0.79400  1.0000
  F   F14       1.0  0.46900  0.83100  0.89400  1.0000
  F   F15       1.0  0.99300  0.84200  0.91200  1.0000
  F   F16       1.0  0.74100  0.38300  0.93800  1.0000
  H   H1        1.0  0.82700  0.80400  0.03780  1.0000
  H   H2        1.0  0.53600  0.72600  0.09740  1.0000
  H   H3        1.0  0.79900  0.63200  0.16600  1.0000
  H   H4        1.0  0.35600  0.33500  0.18000  1.0000
  H   H5        1.0  0.62900  0.00914  0.19600  1.0000
  H   H6        1.0  0.08190  0.42600  0.24300  1.0000
  H   H7        1.0  0.91800  0.92600  0.25700  1.0000
  H   H8        1.0  0.37100  0.50900  0.30400  1.0000
  H   H9        1.0  0.64400  0.83500  0.32000  1.0000
  H   H10       1.0  0.20100  0.13200  0.33400  1.0000
  H   H11       1.0  0.46400  0.22600  0.40300  1.0000
  H   H12       1.0  0.17300  0.30400  0.46200  1.0000
  H   H13       1.0  0.82700  0.69600  0.53800  1.0000
  H   H14       1.0  0.53600  0.77400  0.59700  1.0000
  H   H15       1.0  0.79900  0.86800  0.66600  1.0000
  H   H16       1.0  0.35600  0.16500  0.68000  1.0000
  H   H17       1.0  0.62900  0.49100  0.69600  1.0000
  H   H18       1.0  0.08190  0.07410  0.74300  1.0000
  H   H19       1.0  0.91800  0.57400  0.75700  1.0000
  H   H20       1.0  0.37100  0.99100  0.80400  1.0000
  H   H21       1.0  0.64400  0.66500  0.82000  1.0000
  H   H22       1.0  0.20100  0.36800  0.83400  1.0000
  H   H23       1.0  0.46400  0.27400  0.90300  1.0000
  H   H24       1.0  0.17300  0.19600  0.96200  1.0000
  N   N1        1.0  0.72400  0.75600  0.12600  1.0000
  N   N2        1.0  0.72900  0.89300  0.23400  1.0000
  N   N3        1.0  0.27100  0.39300  0.26600  1.0000
  N   N4        1.0  0.27600  0.25600  0.37400  1.0000
  N   N5        1.0  0.72400  0.74400  0.62600  1.0000
  N   N6        1.0  0.72900  0.60700  0.73400  1.0000
  N   N7        1.0  0.27100  0.10700  0.76600  1.0000
  N   N8        1.0  0.27600  0.24400  0.87400  1.0000
