data_image0
_chemical_formula_structural       Be4Mn4O4Te4
_chemical_formula_sum              "Be4 Mn4 O4 Te4"
_cell_length_a       4.95944
_cell_length_b       8.04003
_cell_length_c       7.75642
_cell_angle_alpha    90
_cell_angle_beta     90
_cell_angle_gamma    90

_space_group_name_H-M_alt    "P 1"
_space_group_IT_number       1

loop_
  _space_group_symop_operation_xyz
  'x, y, z'

loop_
  _atom_site_type_symbol
  _atom_site_label
  _atom_site_symmetry_multiplicity
  _atom_site_fract_x
  _atom_site_fract_y
  _atom_site_fract_z
  _atom_site_occupancy
  Be  Be1       1.0  0.19600  0.18500  0.03270  1.0000
  Be  Be2       1.0  0.80400  0.68500  0.46700  1.0000
  Be  Be3       1.0  0.30400  0.81500  0.53300  1.0000
  Be  Be4       1.0  0.69600  0.31500  0.96700  1.0000
  Mn  Mn1       1.0  0.36300  0.62200  0.20500  1.0000
  Mn  Mn2       1.0  0.63700  0.12200  0.29500  1.0000
  Mn  Mn3       1.0  0.13700  0.37800  0.70500  1.0000
  Mn  Mn4       1.0  0.86300  0.87800  0.79500  1.0000
  O   O1        1.0  0.48700  0.22300  0.07440  1.0000
  O   O2        1.0  0.51300  0.72300  0.42600  1.0000
  O   O3        1.0  0.01250  0.77700  0.57400  1.0000
  O   O4        1.0  0.98700  0.27700  0.92600  1.0000
  Te  Te1       1.0  0.02540  0.91400  0.13600  1.0000
  Te  Te2       1.0  0.97500  0.41400  0.36400  1.0000
  Te  Te3       1.0  0.47500  0.08620  0.63600  1.0000
  Te  Te4       1.0  0.52500  0.58600  0.86400  1.0000
