data_image0
_chemical_formula_structural       O38P4W10
_chemical_formula_sum              "O38 P4 W10"
_cell_length_a       6.59046
_cell_length_b       5.30522
_cell_length_c       20.7009
_cell_angle_alpha    90
_cell_angle_beta     96.2255
_cell_angle_gamma    90

_space_group_name_H-M_alt    "P 1"
_space_group_IT_number       1

loop_
  _space_group_symop_operation_xyz
  'x, y, z'

loop_
  _atom_site_type_symbol
  _atom_site_label
  _atom_site_symmetry_multiplicity
  _atom_site_fract_x
  _atom_site_fract_y
  _atom_site_fract_z
  _atom_site_occupancy
  O   O1        1.0  0.98100  0.46300  0.00360  1.0000
  O   O2        1.0  0.35200  0.24700  0.03430  1.0000
  O   O3        1.0  0.71400  0.02220  0.07450  1.0000
  O   O4        1.0  0.67800  0.51800  0.08270  1.0000
  O   O5        1.0  0.04360  0.74200  0.11900  1.0000
  O   O6        1.0  0.38700  0.94500  0.14000  1.0000
  O   O7        1.0  0.34900  0.47100  0.15100  1.0000
  O   O8        1.0  0.70400  0.22900  0.19300  1.0000
  O   O9        1.0  0.22400  0.76400  0.23100  1.0000
  O   O10       1.0  0.89300  0.52200  0.27100  1.0000
  O   O11       1.0  0.93800  0.04700  0.28200  1.0000
  O   O12       1.0  0.61100  0.25200  0.30600  1.0000
  O   O13       1.0  0.26200  0.47100  0.34100  1.0000
  O   O14       1.0  0.30900  0.97000  0.35100  1.0000
  O   O15       1.0  0.97000  0.75100  0.38800  1.0000
  O   O16       1.0  0.61800  0.53900  0.41800  1.0000
  O   O17       1.0  0.66700  0.03810  0.42900  1.0000
  O   O18       1.0  0.32300  0.25300  0.46000  1.0000
  O   O19       1.0  0.97300  0.46300  0.49400  1.0000
  O   O20       1.0  0.02670  0.96300  0.50600  1.0000
  O   O21       1.0  0.67700  0.75300  0.54000  1.0000
  O   O22       1.0  0.33300  0.53800  0.57100  1.0000
  O   O23       1.0  0.38200  0.03920  0.58200  1.0000
  O   O24       1.0  0.03040  0.25100  0.61200  1.0000
  O   O25       1.0  0.69100  0.47000  0.64900  1.0000
  O   O26       1.0  0.73800  0.97100  0.65900  1.0000
  O   O27       1.0  0.38900  0.75200  0.69400  1.0000
  O   O28       1.0  0.06180  0.54700  0.71800  1.0000
  O   O29       1.0  0.10700  0.02200  0.72900  1.0000
  O   O30       1.0  0.77600  0.26400  0.76900  1.0000
  O   O31       1.0  0.29600  0.72900  0.80700  1.0000
  O   O32       1.0  0.65100  0.97100  0.84900  1.0000
  O   O33       1.0  0.61300  0.44500  0.86000  1.0000
  O   O34       1.0  0.95600  0.24200  0.88100  1.0000
  O   O35       1.0  0.32200  0.01800  0.91700  1.0000
  O   O36       1.0  0.28600  0.52200  0.92600  1.0000
  O   O37       1.0  0.64800  0.74700  0.96600  1.0000
  O   O38       1.0  0.01940  0.96300  0.99600  1.0000
  P   P1        1.0  0.25200  0.73100  0.16000  1.0000
  P   P2        1.0  0.78900  0.26300  0.26500  1.0000
  P   P3        1.0  0.21100  0.76300  0.73500  1.0000
  P   P4        1.0  0.74800  0.23100  0.84000  1.0000
  W   W1        1.0  0.85000  0.74200  0.03810  1.0000
  W   W2        1.0  0.53900  0.24300  0.10900  1.0000
  W   W3        1.0  0.10900  0.75100  0.31600  1.0000
  W   W4        1.0  0.47200  0.25500  0.38800  1.0000
  W   W5        1.0  0.82100  0.75100  0.46500  1.0000
  W   W6        1.0  0.17900  0.25100  0.53500  1.0000
  W   W7        1.0  0.52800  0.75500  0.61200  1.0000
  W   W8        1.0  0.89100  0.25100  0.68400  1.0000
  W   W9        1.0  0.46100  0.74300  0.89100  1.0000
  W   W10       1.0  0.15000  0.24200  0.96200  1.0000
