data_image0
_chemical_formula_structural       Ba6F34Mg11
_chemical_formula_sum              "Ba6 F34 Mg11"
_cell_length_a       7.38886
_cell_length_b       9.76813
_cell_length_c       9.87353
_cell_angle_alpha    81.3162
_cell_angle_beta     72.0505
_cell_angle_gamma    71.7316

_space_group_name_H-M_alt    "P 1"
_space_group_IT_number       1

loop_
  _space_group_symop_operation_xyz
  'x, y, z'

loop_
  _atom_site_type_symbol
  _atom_site_label
  _atom_site_symmetry_multiplicity
  _atom_site_fract_x
  _atom_site_fract_y
  _atom_site_fract_z
  _atom_site_occupancy
  Ba  Ba1       1.0  0.31400  0.35100  0.03210  1.0000
  Ba  Ba2       1.0  0.64000  0.90100  0.27000  1.0000
  Ba  Ba3       1.0  0.20800  0.63400  0.34700  1.0000
  Ba  Ba4       1.0  0.79200  0.36600  0.65300  1.0000
  Ba  Ba5       1.0  0.36000  0.09910  0.73000  1.0000
  Ba  Ba6       1.0  0.68600  0.64900  0.96800  1.0000
  F   F1        1.0  0.14300  0.13600  0.02230  1.0000
  F   F2        1.0  0.33300  0.61300  0.06620  1.0000
  F   F3        1.0  0.44800  0.88000  0.09010  1.0000
  F   F4        1.0  0.73800  0.14000  0.13600  1.0000
  F   F5        1.0  0.95400  0.62500  0.14200  1.0000
  F   F6        1.0  0.84400  0.37400  0.14900  1.0000
  F   F7        1.0  0.05270  0.86500  0.17400  1.0000
  F   F8        1.0  0.32600  0.13300  0.23200  1.0000
  F   F9        1.0  0.57600  0.64100  0.25500  1.0000
  F   F10       1.0  0.44300  0.36800  0.26500  1.0000
  F   F11       1.0  0.06540  0.39600  0.32300  1.0000
  F   F12       1.0  0.94500  0.11200  0.32500  1.0000
  F   F13       1.0  0.24400  0.89400  0.36700  1.0000
  F   F14       1.0  0.67800  0.38200  0.42800  1.0000
  F   F15       1.0  0.52400  0.13500  0.43100  1.0000
  F   F16       1.0  0.79600  0.62700  0.44600  1.0000
  F   F17       1.0  0.87800  0.86000  0.47000  1.0000
  F   F18       1.0  0.12200  0.14000  0.53000  1.0000
  F   F19       1.0  0.20400  0.37300  0.55400  1.0000
  F   F20       1.0  0.47600  0.86500  0.56900  1.0000
  F   F21       1.0  0.32200  0.61800  0.57200  1.0000
  F   F22       1.0  0.75600  0.10600  0.63300  1.0000
  F   F23       1.0  0.05470  0.88800  0.67500  1.0000
  F   F24       1.0  0.93500  0.60400  0.67700  1.0000
  F   F25       1.0  0.55700  0.63200  0.73500  1.0000
  F   F26       1.0  0.42400  0.35900  0.74500  1.0000
  F   F27       1.0  0.67400  0.86700  0.76800  1.0000
  F   F28       1.0  0.94700  0.13500  0.82600  1.0000
  F   F29       1.0  0.15600  0.62600  0.85100  1.0000
  F   F30       1.0  0.04600  0.37500  0.85800  1.0000
  F   F31       1.0  0.26200  0.86000  0.86400  1.0000
  F   F32       1.0  0.55200  0.12000  0.91000  1.0000
  F   F33       1.0  0.66700  0.38700  0.93400  1.0000
  F   F34       1.0  0.85700  0.86400  0.97800  1.0000
  Mg  Mg1       1.0  0.11000  0.75200  0.01130  1.0000
  Mg  Mg2       1.0  0.19500  0.00340  0.18200  1.0000
  Mg  Mg3       1.0  0.81100  0.51100  0.29500  1.0000
  Mg  Mg4       1.0  0.69600  0.24600  0.30100  1.0000
  Mg  Mg5       1.0  0.27300  0.25100  0.39100  1.0000
  Mg  Mg6       1.0  0.00000  0.00000  0.50000  1.0000
  Mg  Mg7       1.0  0.72700  0.74900  0.60900  1.0000
  Mg  Mg8       1.0  0.30400  0.75400  0.69900  1.0000
  Mg  Mg9       1.0  0.18900  0.48900  0.70500  1.0000
  Mg  Mg10      1.0  0.80500  0.99700  0.81800  1.0000
  Mg  Mg11      1.0  0.89000  0.24800  0.98900  1.0000
