data_image0
_chemical_formula_structural       Ce6Zn44
_chemical_formula_sum              "Ce6 Zn44"
_cell_length_a       12.3769
_cell_length_b       8.91314
_cell_length_c       8.91314
_cell_angle_alpha    90
_cell_angle_beta     111.105
_cell_angle_gamma    111.105

_space_group_name_H-M_alt    "P 1"
_space_group_IT_number       1

loop_
  _space_group_symop_operation_xyz
  'x, y, z'

loop_
  _atom_site_type_symbol
  _atom_site_label
  _atom_site_symmetry_multiplicity
  _atom_site_fract_x
  _atom_site_fract_y
  _atom_site_fract_z
  _atom_site_occupancy
  Ce  Ce1       1.0  0.50800  0.25400  0.00390  1.0000
  Ce  Ce2       1.0  0.99200  0.49600  0.24600  1.0000
  Ce  Ce3       1.0  0.25000  0.12500  0.37500  1.0000
  Ce  Ce4       1.0  0.75000  0.87500  0.62500  1.0000
  Ce  Ce5       1.0  0.00781  0.50400  0.75400  1.0000
  Ce  Ce6       1.0  0.49200  0.74600  0.99600  1.0000
  Zn  Zn1       1.0  0.00000  0.00000  0.00000  1.0000
  Zn  Zn2       1.0  0.23300  0.11600  0.01300  1.0000
  Zn  Zn3       1.0  0.12200  0.31900  0.07990  1.0000
  Zn  Zn4       1.0  0.12200  0.80400  0.07990  1.0000
  Zn  Zn5       1.0  0.24600  0.62300  0.09790  1.0000
  Zn  Zn6       1.0  0.74600  0.14800  0.12300  1.0000
  Zn  Zn7       1.0  0.74600  0.59800  0.12300  1.0000
  Zn  Zn8       1.0  0.37800  0.42000  0.18100  1.0000
  Zn  Zn9       1.0  0.37800  0.95800  0.18100  1.0000
  Zn  Zn10      1.0  0.97300  0.13700  0.23600  1.0000
  Zn  Zn11      1.0  0.97300  0.83500  0.23600  1.0000
  Zn  Zn12      1.0  0.76700  0.88400  0.28000  1.0000
  Zn  Zn13      1.0  0.62200  0.04240  0.30400  1.0000
  Zn  Zn14      1.0  0.62200  0.58000  0.30400  1.0000
  Zn  Zn15      1.0  0.47300  0.73600  0.33500  1.0000
  Zn  Zn16      1.0  0.75400  0.37700  0.35200  1.0000
  Zn  Zn17      1.0  0.52700  0.26400  0.36300  1.0000
  Zn  Zn18      1.0  0.26700  0.48700  0.38400  1.0000
  Zn  Zn19      1.0  0.26700  0.78000  0.38400  1.0000
  Zn  Zn20      1.0  0.87800  0.19600  0.45800  1.0000
  Zn  Zn21      1.0  0.87800  0.68100  0.45800  1.0000
  Zn  Zn22      1.0  0.00000  0.00000  0.50000  1.0000
  Zn  Zn23      1.0  0.50000  0.00000  0.50000  1.0000
  Zn  Zn24      1.0  0.50000  0.50000  0.50000  1.0000
  Zn  Zn25      1.0  0.12200  0.31900  0.54200  1.0000
  Zn  Zn26      1.0  0.12200  0.80400  0.54200  1.0000
  Zn  Zn27      1.0  0.73300  0.22000  0.61600  1.0000
  Zn  Zn28      1.0  0.73300  0.51300  0.61600  1.0000
  Zn  Zn29      1.0  0.47300  0.73600  0.63700  1.0000
  Zn  Zn30      1.0  0.24600  0.62300  0.64800  1.0000
  Zn  Zn31      1.0  0.52700  0.26400  0.66500  1.0000
  Zn  Zn32      1.0  0.37800  0.42000  0.69600  1.0000
  Zn  Zn33      1.0  0.37800  0.95800  0.69600  1.0000
  Zn  Zn34      1.0  0.23300  0.11600  0.72000  1.0000
  Zn  Zn35      1.0  0.02740  0.16500  0.76400  1.0000
  Zn  Zn36      1.0  0.02740  0.86300  0.76400  1.0000
  Zn  Zn37      1.0  0.62200  0.04240  0.81900  1.0000
  Zn  Zn38      1.0  0.62200  0.58000  0.81900  1.0000
  Zn  Zn39      1.0  0.25400  0.40200  0.87700  1.0000
  Zn  Zn40      1.0  0.25400  0.85200  0.87700  1.0000
  Zn  Zn41      1.0  0.75400  0.37700  0.90200  1.0000
  Zn  Zn42      1.0  0.87800  0.19600  0.92000  1.0000
  Zn  Zn43      1.0  0.87800  0.68100  0.92000  1.0000
  Zn  Zn44      1.0  0.76700  0.88400  0.98700  1.0000
