data_image0
_chemical_formula_structural       K4O32Sb4V8
_chemical_formula_sum              "K4 O32 Sb4 V8"
_cell_length_a       14.5695
_cell_length_b       5.56475
_cell_length_c       8.49406
_cell_angle_alpha    90
_cell_angle_beta     90
_cell_angle_gamma    90

_space_group_name_H-M_alt    "P 1"
_space_group_IT_number       1

loop_
  _space_group_symop_operation_xyz
  'x, y, z'

loop_
  _atom_site_type_symbol
  _atom_site_label
  _atom_site_symmetry_multiplicity
  _atom_site_fract_x
  _atom_site_fract_y
  _atom_site_fract_z
  _atom_site_occupancy
  K   K1        1.0  0.12000  0.75000  0.04970  1.0000
  K   K2        1.0  0.62000  0.75000  0.45000  1.0000
  K   K3        1.0  0.38000  0.25000  0.55000  1.0000
  K   K4        1.0  0.88000  0.25000  0.95000  1.0000
  O   O1        1.0  0.54200  0.25000  0.00653  1.0000
  O   O2        1.0  0.82300  0.75000  0.10400  1.0000
  O   O3        1.0  0.29500  0.51000  0.11100  1.0000
  O   O4        1.0  0.29500  0.99000  0.11100  1.0000
  O   O5        1.0  0.63400  0.75000  0.13700  1.0000
  O   O6        1.0  0.12900  0.25000  0.20000  1.0000
  O   O7        1.0  0.96700  0.50300  0.21600  1.0000
  O   O8        1.0  0.96700  0.99700  0.21600  1.0000
  O   O9        1.0  0.46700  0.50300  0.28400  1.0000
  O   O10       1.0  0.46700  0.99700  0.28400  1.0000
  O   O11       1.0  0.62900  0.25000  0.30000  1.0000
  O   O12       1.0  0.13400  0.75000  0.36300  1.0000
  O   O13       1.0  0.79500  0.51000  0.38900  1.0000
  O   O14       1.0  0.79500  0.99000  0.38900  1.0000
  O   O15       1.0  0.32300  0.75000  0.39600  1.0000
  O   O16       1.0  0.04170  0.25000  0.49300  1.0000
  O   O17       1.0  0.95800  0.75000  0.50700  1.0000
  O   O18       1.0  0.67700  0.25000  0.60400  1.0000
  O   O19       1.0  0.20500  0.01020  0.61100  1.0000
  O   O20       1.0  0.20500  0.49000  0.61100  1.0000
  O   O21       1.0  0.86600  0.25000  0.63700  1.0000
  O   O22       1.0  0.37100  0.75000  0.70000  1.0000
  O   O23       1.0  0.53300  0.00300  0.71600  1.0000
  O   O24       1.0  0.53300  0.49700  0.71600  1.0000
  O   O25       1.0  0.03300  0.00300  0.78400  1.0000
  O   O26       1.0  0.03300  0.49700  0.78400  1.0000
  O   O27       1.0  0.87100  0.75000  0.80000  1.0000
  O   O28       1.0  0.36600  0.25000  0.86300  1.0000
  O   O29       1.0  0.70500  0.01020  0.88900  1.0000
  O   O30       1.0  0.70500  0.49000  0.88900  1.0000
  O   O31       1.0  0.17700  0.25000  0.89600  1.0000
  O   O32       1.0  0.45800  0.75000  0.99300  1.0000
  Sb  Sb1       1.0  0.38500  0.75000  0.18900  1.0000
  Sb  Sb2       1.0  0.88500  0.75000  0.31100  1.0000
  Sb  Sb3       1.0  0.11500  0.25000  0.68900  1.0000
  Sb  Sb4       1.0  0.61500  0.25000  0.81100  1.0000
  V   V1        1.0  0.71500  0.75000  0.00814  1.0000
  V   V2        1.0  0.53100  0.25000  0.21000  1.0000
  V   V3        1.0  0.03080  0.25000  0.29000  1.0000
  V   V4        1.0  0.21500  0.75000  0.49200  1.0000
  V   V5        1.0  0.78500  0.25000  0.50800  1.0000
  V   V6        1.0  0.96900  0.75000  0.71000  1.0000
  V   V7        1.0  0.46900  0.75000  0.79000  1.0000
  V   V8        1.0  0.28500  0.25000  0.99200  1.0000
