data_image0
_chemical_formula_structural       O48Sr24Te8
_chemical_formula_sum              "O48 Sr24 Te8"
_cell_length_a       11.72
_cell_length_b       11.7443
_cell_length_c       11.7626
_cell_angle_alpha    119.689
_cell_angle_beta     119.626
_cell_angle_gamma    90.4069

_space_group_name_H-M_alt    "P 1"
_space_group_IT_number       1

loop_
  _space_group_symop_operation_xyz
  'x, y, z'

loop_
  _atom_site_type_symbol
  _atom_site_label
  _atom_site_symmetry_multiplicity
  _atom_site_fract_x
  _atom_site_fract_y
  _atom_site_fract_z
  _atom_site_occupancy
  O   O1        1.0  0.60200  0.87000  0.01150  1.0000
  O   O2        1.0  0.64600  0.10200  0.01900  1.0000
  O   O3        1.0  0.08960  0.86700  0.02380  1.0000
  O   O4        1.0  0.88500  0.42500  0.03860  1.0000
  O   O5        1.0  0.66200  0.60400  0.04100  1.0000
  O   O6        1.0  0.44200  0.66300  0.06000  1.0000
  O   O7        1.0  0.89600  0.96000  0.07120  1.0000
  O   O8        1.0  0.00909  0.68100  0.15300  1.0000
  O   O9        1.0  0.16600  0.50400  0.17300  1.0000
  O   O10       1.0  0.15000  0.14800  0.21800  1.0000
  O   O11       1.0  0.60700  0.55900  0.22100  1.0000
  O   O12       1.0  0.60800  0.12500  0.23500  1.0000
  O   O13       1.0  0.40800  0.37900  0.26800  1.0000
  O   O14       1.0  0.86000  0.39500  0.26800  1.0000
  O   O15       1.0  0.88300  0.89500  0.27300  1.0000
  O   O16       1.0  0.48100  0.00955  0.33100  1.0000
  O   O17       1.0  0.33300  0.83100  0.33500  1.0000
  O   O18       1.0  0.08390  0.35700  0.46000  1.0000
  O   O19       1.0  0.62200  0.89100  0.47500  1.0000
  O   O20       1.0  0.11000  0.60900  0.48000  1.0000
  O   O21       1.0  0.32600  0.49000  0.48300  1.0000
  O   O22       1.0  0.88800  0.86900  0.49400  1.0000
  O   O23       1.0  0.49900  0.66700  0.49800  1.0000
  O   O24       1.0  0.12800  0.89100  0.49900  1.0000
  O   O25       1.0  0.87200  0.10900  0.50100  1.0000
  O   O26       1.0  0.50100  0.33300  0.50200  1.0000
  O   O27       1.0  0.11200  0.13100  0.50600  1.0000
  O   O28       1.0  0.67400  0.51000  0.51700  1.0000
  O   O29       1.0  0.89000  0.39100  0.52000  1.0000
  O   O30       1.0  0.37800  0.10900  0.52500  1.0000
  O   O31       1.0  0.91600  0.64300  0.54000  1.0000
  O   O32       1.0  0.66700  0.16900  0.66500  1.0000
  O   O33       1.0  0.51900  0.99000  0.66900  1.0000
  O   O34       1.0  0.11700  0.10500  0.72700  1.0000
  O   O35       1.0  0.14000  0.60500  0.73200  1.0000
  O   O36       1.0  0.59200  0.62100  0.73200  1.0000
  O   O37       1.0  0.39200  0.87500  0.76500  1.0000
  O   O38       1.0  0.39300  0.44100  0.77900  1.0000
  O   O39       1.0  0.85000  0.85200  0.78200  1.0000
  O   O40       1.0  0.83400  0.49600  0.82700  1.0000
  O   O41       1.0  0.99100  0.31900  0.84700  1.0000
  O   O42       1.0  0.10400  0.03970  0.92900  1.0000
  O   O43       1.0  0.55800  0.33700  0.94000  1.0000
  O   O44       1.0  0.33800  0.39600  0.95900  1.0000
  O   O45       1.0  0.11500  0.57500  0.96100  1.0000
  O   O46       1.0  0.91000  0.13300  0.97600  1.0000
  O   O47       1.0  0.35400  0.89800  0.98100  1.0000
  O   O48       1.0  0.39800  0.13000  0.98800  1.0000
  Sr  Sr1       1.0  0.78800  0.73100  0.00189  1.0000
  Sr  Sr2       1.0  0.27700  0.78000  0.05880  1.0000
  Sr  Sr3       1.0  0.36100  0.12800  0.20300  1.0000
  Sr  Sr4       1.0  0.38400  0.60900  0.22300  1.0000
  Sr  Sr5       1.0  0.62300  0.34900  0.23000  1.0000
  Sr  Sr6       1.0  0.07840  0.37000  0.24200  1.0000
  Sr  Sr7       1.0  0.64900  0.88200  0.25900  1.0000
  Sr  Sr8       1.0  0.88400  0.63100  0.27400  1.0000
  Sr  Sr9       1.0  0.86200  0.13400  0.27600  1.0000
  Sr  Sr10      1.0  0.12900  0.92600  0.28600  1.0000
  Sr  Sr11      1.0  0.27500  0.73400  0.46600  1.0000
  Sr  Sr12      1.0  0.27900  0.28100  0.49800  1.0000
  Sr  Sr13      1.0  0.72100  0.71900  0.50200  1.0000
  Sr  Sr14      1.0  0.72500  0.26600  0.53400  1.0000
  Sr  Sr15      1.0  0.87100  0.07360  0.71400  1.0000
  Sr  Sr16      1.0  0.13800  0.86600  0.72400  1.0000
  Sr  Sr17      1.0  0.11600  0.36900  0.72600  1.0000
  Sr  Sr18      1.0  0.35100  0.11800  0.74100  1.0000
  Sr  Sr19      1.0  0.92200  0.63000  0.75800  1.0000
  Sr  Sr20      1.0  0.37700  0.65100  0.77000  1.0000
  Sr  Sr21      1.0  0.61600  0.39100  0.77700  1.0000
  Sr  Sr22      1.0  0.63900  0.87200  0.79700  1.0000
  Sr  Sr23      1.0  0.72300  0.22000  0.94100  1.0000
  Sr  Sr24      1.0  0.21200  0.26900  0.99800  1.0000
  Te  Te1       1.0  0.00000  0.00000  0.00000  1.0000
  Te  Te2       1.0  0.50000  0.00000  0.00000  1.0000
  Te  Te3       1.0  0.50000  0.50000  0.00000  1.0000
  Te  Te4       1.0  0.00000  0.50000  0.00000  1.0000
  Te  Te5       1.0  0.00000  0.50000  0.50000  1.0000
  Te  Te6       1.0  0.50000  0.50000  0.50000  1.0000
  Te  Te7       1.0  0.00000  0.00000  0.50000  1.0000
  Te  Te8       1.0  0.50000  0.00000  0.50000  1.0000
