data_image0
_chemical_formula_structural       Ca10Ga12O28
_chemical_formula_sum              "Ca10 Ga12 O28"
_cell_length_a       8.03023
_cell_length_b       8.03023
_cell_length_c       10.4528
_cell_angle_alpha    90
_cell_angle_beta     90
_cell_angle_gamma    88.8332

_space_group_name_H-M_alt    "P 1"
_space_group_IT_number       1

loop_
  _space_group_symop_operation_xyz
  'x, y, z'

loop_
  _atom_site_type_symbol
  _atom_site_label
  _atom_site_symmetry_multiplicity
  _atom_site_fract_x
  _atom_site_fract_y
  _atom_site_fract_z
  _atom_site_occupancy
  Ca  Ca1       1.0  0.67400  0.04160  0.37400  1.0000
  Ca  Ca2       1.0  0.95800  0.32600  0.37400  1.0000
  Ca  Ca3       1.0  0.52700  0.47300  0.42000  1.0000
  Ca  Ca4       1.0  0.25900  0.05780  0.42400  1.0000
  Ca  Ca5       1.0  0.94200  0.74100  0.42400  1.0000
  Ca  Ca6       1.0  0.04160  0.67400  0.87400  1.0000
  Ca  Ca7       1.0  0.32600  0.95800  0.87400  1.0000
  Ca  Ca8       1.0  0.47300  0.52700  0.92000  1.0000
  Ca  Ca9       1.0  0.05780  0.25900  0.92400  1.0000
  Ca  Ca10      1.0  0.74100  0.94200  0.92400  1.0000
  Ga  Ga1       1.0  0.69900  0.30100  0.11400  1.0000
  Ga  Ga2       1.0  0.00043  0.00000  0.14200  1.0000
  Ga  Ga3       1.0  0.35400  0.16000  0.15100  1.0000
  Ga  Ga4       1.0  0.84000  0.64600  0.15100  1.0000
  Ga  Ga5       1.0  0.21100  0.50200  0.18300  1.0000
  Ga  Ga6       1.0  0.49800  0.78900  0.18300  1.0000
  Ga  Ga7       1.0  0.30100  0.69900  0.61400  1.0000
  Ga  Ga8       1.0  0.00000  0.00043  0.64200  1.0000
  Ga  Ga9       1.0  0.16000  0.35400  0.65100  1.0000
  Ga  Ga10      1.0  0.64600  0.84000  0.65100  1.0000
  Ga  Ga11      1.0  0.50200  0.21100  0.68300  1.0000
  Ga  Ga12      1.0  0.78900  0.49800  0.68300  1.0000
  O   O1        1.0  0.19100  0.48900  0.00936  1.0000
  O   O2        1.0  0.51100  0.80900  0.00936  1.0000
  O   O3        1.0  0.49800  0.25000  0.03650  1.0000
  O   O4        1.0  0.75000  0.50200  0.03650  1.0000
  O   O5        1.0  0.85300  0.14700  0.05210  1.0000
  O   O6        1.0  0.19300  0.05950  0.05280  1.0000
  O   O7        1.0  0.94000  0.80700  0.05280  1.0000
  O   O8        1.0  0.38800  0.61200  0.25100  1.0000
  O   O9        1.0  0.00765  0.56400  0.25900  1.0000
  O   O10       1.0  0.43600  0.99200  0.25900  1.0000
  O   O11       1.0  0.23700  0.29300  0.26800  1.0000
  O   O12       1.0  0.70700  0.76300  0.26800  1.0000
  O   O13       1.0  0.70000  0.30000  0.28900  1.0000
  O   O14       1.0  0.98800  0.01190  0.31400  1.0000
  O   O15       1.0  0.48900  0.19100  0.50900  1.0000
  O   O16       1.0  0.80900  0.51100  0.50900  1.0000
  O   O17       1.0  0.25000  0.49800  0.53700  1.0000
  O   O18       1.0  0.50200  0.75000  0.53700  1.0000
  O   O19       1.0  0.14700  0.85300  0.55200  1.0000
  O   O20       1.0  0.05950  0.19300  0.55300  1.0000
  O   O21       1.0  0.80700  0.94000  0.55300  1.0000
  O   O22       1.0  0.61200  0.38800  0.75100  1.0000
  O   O23       1.0  0.56400  0.00765  0.75900  1.0000
  O   O24       1.0  0.99200  0.43600  0.75900  1.0000
  O   O25       1.0  0.29300  0.23700  0.76800  1.0000
  O   O26       1.0  0.76300  0.70700  0.76800  1.0000
  O   O27       1.0  0.30000  0.70000  0.78900  1.0000
  O   O28       1.0  0.01190  0.98800  0.81400  1.0000
