data_image0
_chemical_formula_structural       H16Hg4O24Te4
_chemical_formula_sum              "H16 Hg4 O24 Te4"
_cell_length_a       10.3608
_cell_length_b       6.0806
_cell_length_c       7.91249
_cell_angle_alpha    90
_cell_angle_beta     90
_cell_angle_gamma    90

_space_group_name_H-M_alt    "P 1"
_space_group_IT_number       1

loop_
  _space_group_symop_operation_xyz
  'x, y, z'

loop_
  _atom_site_type_symbol
  _atom_site_label
  _atom_site_symmetry_multiplicity
  _atom_site_fract_x
  _atom_site_fract_y
  _atom_site_fract_z
  _atom_site_occupancy
  H   H1        1.0  0.36400  0.72300  0.19500  1.0000
  H   H2        1.0  0.86400  0.77700  0.19500  1.0000
  H   H3        1.0  0.28400  0.12800  0.36500  1.0000
  H   H4        1.0  0.78400  0.37200  0.36500  1.0000
  H   H5        1.0  0.24100  0.58300  0.38900  1.0000
  H   H6        1.0  0.74100  0.91700  0.38900  1.0000
  H   H7        1.0  0.08610  0.00879  0.39200  1.0000
  H   H8        1.0  0.58600  0.49100  0.39200  1.0000
  H   H9        1.0  0.13600  0.22300  0.69500  1.0000
  H   H10       1.0  0.63600  0.27700  0.69500  1.0000
  H   H11       1.0  0.21600  0.62800  0.86500  1.0000
  H   H12       1.0  0.71600  0.87200  0.86500  1.0000
  H   H13       1.0  0.25900  0.08260  0.88900  1.0000
  H   H14       1.0  0.75900  0.41700  0.88900  1.0000
  H   H15       1.0  0.41400  0.50900  0.89200  1.0000
  H   H16       1.0  0.91400  0.99100  0.89200  1.0000
  Hg  Hg1       1.0  0.51000  0.13600  0.11400  1.0000
  Hg  Hg2       1.0  0.00978  0.36400  0.11400  1.0000
  Hg  Hg3       1.0  0.99000  0.63600  0.61400  1.0000
  Hg  Hg4       1.0  0.49000  0.86400  0.61400  1.0000
  O   O1        1.0  0.28200  0.03490  0.00871  1.0000
  O   O2        1.0  0.78200  0.46500  0.00871  1.0000
  O   O3        1.0  0.01310  0.05200  0.01220  1.0000
  O   O4        1.0  0.51300  0.44800  0.01220  1.0000
  O   O5        1.0  0.27300  0.66000  0.19900  1.0000
  O   O6        1.0  0.77300  0.84000  0.19900  1.0000
  O   O7        1.0  0.01360  0.68100  0.21400  1.0000
  O   O8        1.0  0.51400  0.81900  0.21400  1.0000
  O   O9        1.0  0.15400  0.05350  0.30100  1.0000
  O   O10       1.0  0.65400  0.44600  0.30100  1.0000
  O   O11       1.0  0.37400  0.17900  0.40200  1.0000
  O   O12       1.0  0.87400  0.32100  0.40200  1.0000
  O   O13       1.0  0.21800  0.53500  0.50900  1.0000
  O   O14       1.0  0.71800  0.96500  0.50900  1.0000
  O   O15       1.0  0.48700  0.55200  0.51200  1.0000
  O   O16       1.0  0.98700  0.94800  0.51200  1.0000
  O   O17       1.0  0.22700  0.16000  0.69900  1.0000
  O   O18       1.0  0.72700  0.34000  0.69900  1.0000
  O   O19       1.0  0.48600  0.18100  0.71400  1.0000
  O   O20       1.0  0.98600  0.31900  0.71400  1.0000
  O   O21       1.0  0.34600  0.55400  0.80100  1.0000
  O   O22       1.0  0.84600  0.94600  0.80100  1.0000
  O   O23       1.0  0.12600  0.67900  0.90200  1.0000
  O   O24       1.0  0.62600  0.82100  0.90200  1.0000
  Te  Te1       1.0  0.64300  0.64100  0.10400  1.0000
  Te  Te2       1.0  0.14300  0.85900  0.10400  1.0000
  Te  Te3       1.0  0.85700  0.14100  0.60400  1.0000
  Te  Te4       1.0  0.35700  0.35900  0.60400  1.0000
