data_image0
_chemical_formula_structural       H24O20Rb4Te2
_chemical_formula_sum              "H24 O20 Rb4 Te2"
_cell_length_a       6.91743
_cell_length_b       8.10587
_cell_length_c       9.23324
_cell_angle_alpha    101.85
_cell_angle_beta     98.1695
_cell_angle_gamma    94.7938

_space_group_name_H-M_alt    "P 1"
_space_group_IT_number       1

loop_
  _space_group_symop_operation_xyz
  'x, y, z'

loop_
  _atom_site_type_symbol
  _atom_site_label
  _atom_site_symmetry_multiplicity
  _atom_site_fract_x
  _atom_site_fract_y
  _atom_site_fract_z
  _atom_site_occupancy
  H   H1        1.0  0.71200  0.16000  0.01730  1.0000
  H   H2        1.0  0.71000  0.87100  0.03540  1.0000
  H   H3        1.0  0.21500  0.29400  0.05580  1.0000
  H   H4        1.0  0.91200  0.38100  0.06300  1.0000
  H   H5        1.0  0.17100  0.57200  0.09060  1.0000
  H   H6        1.0  0.51100  0.05100  0.17600  1.0000
  H   H7        1.0  0.80900  0.14000  0.17800  1.0000
  H   H8        1.0  0.39300  0.14000  0.29900  1.0000
  H   H9        1.0  0.59100  0.95300  0.36600  1.0000
  H   H10       1.0  0.85400  0.23400  0.41300  1.0000
  H   H11       1.0  0.67100  0.83600  0.47800  1.0000
  H   H12       1.0  0.57800  0.35100  0.49800  1.0000
  H   H13       1.0  0.42200  0.64900  0.50200  1.0000
  H   H14       1.0  0.32900  0.16400  0.52200  1.0000
  H   H15       1.0  0.14600  0.76600  0.58700  1.0000
  H   H16       1.0  0.40900  0.04690  0.63400  1.0000
  H   H17       1.0  0.60700  0.86000  0.70100  1.0000
  H   H18       1.0  0.19100  0.86000  0.82200  1.0000
  H   H19       1.0  0.48900  0.94900  0.82400  1.0000
  H   H20       1.0  0.82900  0.42800  0.90900  1.0000
  H   H21       1.0  0.08800  0.61900  0.93700  1.0000
  H   H22       1.0  0.78500  0.70600  0.94400  1.0000
  H   H23       1.0  0.29000  0.12900  0.96500  1.0000
  H   H24       1.0  0.28800  0.84000  0.98300  1.0000
  O   O1        1.0  0.20600  0.64400  0.01940  1.0000
  O   O2        1.0  0.71600  0.74800  0.02940  1.0000
  O   O3        1.0  0.70800  0.08420  0.08870  1.0000
  O   O4        1.0  0.11600  0.42600  0.18300  1.0000
  O   O5        1.0  0.42100  0.02620  0.24600  1.0000
  O   O6        1.0  0.95100  0.21300  0.34300  1.0000
  O   O7        1.0  0.89900  0.55700  0.39800  1.0000
  O   O8        1.0  0.35900  0.31700  0.41100  1.0000
  O   O9        1.0  0.71100  0.91400  0.41500  1.0000
  O   O10       1.0  0.28600  0.65600  0.44800  1.0000
  O   O11       1.0  0.71400  0.34400  0.55200  1.0000
  O   O12       1.0  0.28900  0.08620  0.58500  1.0000
  O   O13       1.0  0.64100  0.68300  0.58900  1.0000
  O   O14       1.0  0.10100  0.44300  0.60200  1.0000
  O   O15       1.0  0.04900  0.78700  0.65700  1.0000
  O   O16       1.0  0.57900  0.97400  0.75400  1.0000
  O   O17       1.0  0.88400  0.57400  0.81700  1.0000
  O   O18       1.0  0.29200  0.91600  0.91100  1.0000
  O   O19       1.0  0.28400  0.25200  0.97100  1.0000
  O   O20       1.0  0.79400  0.35600  0.98100  1.0000
  Rb  Rb1       1.0  0.55700  0.54200  0.20000  1.0000
  Rb  Rb2       1.0  0.05700  0.86900  0.28700  1.0000
  Rb  Rb3       1.0  0.94300  0.13100  0.71300  1.0000
  Rb  Rb4       1.0  0.44300  0.45800  0.80000  1.0000
  Te  Te1       1.0  0.13300  0.42800  0.38700  1.0000
  Te  Te2       1.0  0.86700  0.57200  0.61300  1.0000
