data_image0
_chemical_formula_structural       Na2Nb6O32Te8
_chemical_formula_sum              "Na2 Nb6 O32 Te8"
_cell_length_a       6.55882
_cell_length_b       7.4313
_cell_length_c       14.045
_cell_angle_alpha    90
_cell_angle_beta     102.867
_cell_angle_gamma    90

_space_group_name_H-M_alt    "P 1"
_space_group_IT_number       1

loop_
  _space_group_symop_operation_xyz
  'x, y, z'

loop_
  _atom_site_type_symbol
  _atom_site_label
  _atom_site_symmetry_multiplicity
  _atom_site_fract_x
  _atom_site_fract_y
  _atom_site_fract_z
  _atom_site_occupancy
  Na  Na1       1.0  0.50000  0.00000  0.50000  1.0000
  Na  Na2       1.0  0.50000  0.50000  0.50000  1.0000
  Nb  Nb1       1.0  0.00000  0.00000  0.00000  1.0000
  Nb  Nb2       1.0  0.00000  0.50000  0.00000  1.0000
  Nb  Nb3       1.0  0.07760  0.00096  0.27700  1.0000
  Nb  Nb4       1.0  0.07760  0.49900  0.27700  1.0000
  Nb  Nb5       1.0  0.92200  0.50100  0.72300  1.0000
  Nb  Nb6       1.0  0.92200  0.99900  0.72300  1.0000
  O   O1        1.0  0.30100  0.05940  0.00383  1.0000
  O   O2        1.0  0.30100  0.44100  0.00383  1.0000
  O   O3        1.0  0.09070  0.75000  0.02790  1.0000
  O   O4        1.0  0.62900  0.25000  0.12500  1.0000
  O   O5        1.0  0.05040  0.04770  0.14300  1.0000
  O   O6        1.0  0.05040  0.45200  0.14300  1.0000
  O   O7        1.0  0.97900  0.75000  0.25800  1.0000
  O   O8        1.0  0.77400  0.05170  0.28300  1.0000
  O   O9        1.0  0.77400  0.44800  0.28300  1.0000
  O   O10       1.0  0.38300  0.56300  0.29700  1.0000
  O   O11       1.0  0.38300  0.93700  0.29700  1.0000
  O   O12       1.0  0.15000  0.25000  0.32000  1.0000
  O   O13       1.0  0.63600  0.25000  0.42100  1.0000
  O   O14       1.0  0.70400  0.75000  0.42100  1.0000
  O   O15       1.0  0.12400  0.55700  0.43000  1.0000
  O   O16       1.0  0.12400  0.94300  0.43000  1.0000
  O   O17       1.0  0.87600  0.05700  0.57000  1.0000
  O   O18       1.0  0.87600  0.44300  0.57000  1.0000
  O   O19       1.0  0.29600  0.25000  0.57900  1.0000
  O   O20       1.0  0.36400  0.75000  0.57900  1.0000
  O   O21       1.0  0.85000  0.75000  0.68000  1.0000
  O   O22       1.0  0.61700  0.06290  0.70300  1.0000
  O   O23       1.0  0.61700  0.43700  0.70300  1.0000
  O   O24       1.0  0.22600  0.55200  0.71700  1.0000
  O   O25       1.0  0.22600  0.94800  0.71700  1.0000
  O   O26       1.0  0.02100  0.25000  0.74200  1.0000
  O   O27       1.0  0.95000  0.54800  0.85700  1.0000
  O   O28       1.0  0.95000  0.95200  0.85700  1.0000
  O   O29       1.0  0.37100  0.75000  0.87500  1.0000
  O   O30       1.0  0.90900  0.25000  0.97200  1.0000
  O   O31       1.0  0.69900  0.55900  0.99600  1.0000
  O   O32       1.0  0.69900  0.94100  0.99600  1.0000
  Te  Te1       1.0  0.50000  0.75000  0.00514  1.0000
  Te  Te2       1.0  0.57800  0.25000  0.27500  1.0000
  Te  Te3       1.0  0.58700  0.75000  0.28700  1.0000
  Te  Te4       1.0  0.94900  0.25000  0.49500  1.0000
  Te  Te5       1.0  0.05090  0.75000  0.50500  1.0000
  Te  Te6       1.0  0.41300  0.25000  0.71300  1.0000
  Te  Te7       1.0  0.42200  0.75000  0.72500  1.0000
  Te  Te8       1.0  0.50000  0.25000  0.99500  1.0000
