data_image0
_chemical_formula_structural       As2C6F12N12O6S12Zn
_chemical_formula_sum              "As2 C6 F12 N12 O6 S12 Zn1"
_cell_length_a       11.3773
_cell_length_b       11.3775
_cell_length_c       6.46019
_cell_angle_alpha    89.9996
_cell_angle_beta     89.9999
_cell_angle_gamma    120

_space_group_name_H-M_alt    "P 1"
_space_group_IT_number       1

loop_
  _space_group_symop_operation_xyz
  'x, y, z'

loop_
  _atom_site_type_symbol
  _atom_site_label
  _atom_site_symmetry_multiplicity
  _atom_site_fract_x
  _atom_site_fract_y
  _atom_site_fract_z
  _atom_site_occupancy
  As  As1       1.0  0.33300  0.66700  0.44800  1.0000
  As  As2       1.0  0.66700  0.33300  0.55200  1.0000
  C   C1        1.0  0.09220  0.84400  0.23800  1.0000
  C   C2        1.0  0.75200  0.90800  0.23800  1.0000
  C   C3        1.0  0.15600  0.24800  0.23800  1.0000
  C   C4        1.0  0.84400  0.75200  0.76200  1.0000
  C   C5        1.0  0.24800  0.09220  0.76200  1.0000
  C   C6        1.0  0.90800  0.15600  0.76200  1.0000
  F   F1        1.0  0.21200  0.53500  0.29000  1.0000
  F   F2        1.0  0.46500  0.67700  0.29000  1.0000
  F   F3        1.0  0.32300  0.78800  0.29000  1.0000
  F   F4        1.0  0.79800  0.34300  0.39400  1.0000
  F   F5        1.0  0.54500  0.20200  0.39400  1.0000
  F   F6        1.0  0.65700  0.45500  0.39400  1.0000
  F   F7        1.0  0.34300  0.54500  0.60600  1.0000
  F   F8        1.0  0.20200  0.65700  0.60600  1.0000
  F   F9        1.0  0.45500  0.79800  0.60600  1.0000
  F   F10       1.0  0.67700  0.21200  0.71000  1.0000
  F   F11       1.0  0.78800  0.46500  0.71000  1.0000
  F   F12       1.0  0.53500  0.32300  0.71000  1.0000
  N   N1        1.0  0.16800  0.30500  0.05070  1.0000
  N   N2        1.0  0.69500  0.86300  0.05070  1.0000
  N   N3        1.0  0.13700  0.83200  0.05070  1.0000
  N   N4        1.0  0.41000  0.40500  0.16600  1.0000
  N   N5        1.0  0.99500  0.59000  0.16600  1.0000
  N   N6        1.0  0.59500  0.00494  0.16600  1.0000
  N   N7        1.0  0.40500  0.99500  0.83400  1.0000
  N   N8        1.0  0.00494  0.41000  0.83400  1.0000
  N   N9        1.0  0.59000  0.59500  0.83400  1.0000
  N   N10       1.0  0.86300  0.16800  0.94900  1.0000
  N   N11       1.0  0.30500  0.13700  0.94900  1.0000
  N   N12       1.0  0.83200  0.69500  0.94900  1.0000
  O   O1        1.0  0.04530  0.17000  0.32500  1.0000
  O   O2        1.0  0.83000  0.87500  0.32500  1.0000
  O   O3        1.0  0.12500  0.95500  0.32500  1.0000
  O   O4        1.0  0.87500  0.04520  0.67500  1.0000
  O   O5        1.0  0.17000  0.12500  0.67500  1.0000
  O   O6        1.0  0.95500  0.83000  0.67500  1.0000
  S   S1        1.0  0.91400  0.31900  0.02050  1.0000
  S   S2        1.0  0.40500  0.08630  0.02050  1.0000
  S   S3        1.0  0.68100  0.59500  0.02050  1.0000
  S   S4        1.0  0.69400  0.01560  0.35200  1.0000
  S   S5        1.0  0.32200  0.30600  0.35200  1.0000
  S   S6        1.0  0.98400  0.67800  0.35200  1.0000
  S   S7        1.0  0.01560  0.32200  0.64800  1.0000
  S   S8        1.0  0.67800  0.69400  0.64800  1.0000
  S   S9        1.0  0.30600  0.98400  0.64800  1.0000
  S   S10       1.0  0.31900  0.40500  0.97900  1.0000
  S   S11       1.0  0.59500  0.91400  0.97900  1.0000
  S   S12       1.0  0.08630  0.68100  0.98000  1.0000
  Zn  Zn1       1.0  0.00000  0.00000  0.50000  1.0000
