data_image0
_chemical_formula_structural       Al8As16K24
_chemical_formula_sum              "Al8 As16 K24"
_cell_length_a       9.17077
_cell_length_b       12.2736
_cell_length_c       15.6518
_cell_angle_alpha    72.5419
_cell_angle_beta     72.9323
_cell_angle_gamma    72.1924

_space_group_name_H-M_alt    "P 1"
_space_group_IT_number       1

loop_
  _space_group_symop_operation_xyz
  'x, y, z'

loop_
  _atom_site_type_symbol
  _atom_site_label
  _atom_site_symmetry_multiplicity
  _atom_site_fract_x
  _atom_site_fract_y
  _atom_site_fract_z
  _atom_site_occupancy
  Al  Al1       1.0  0.36100  0.73200  0.05310  1.0000
  Al  Al2       1.0  0.85200  0.21800  0.07650  1.0000
  Al  Al3       1.0  0.84300  0.61100  0.49000  1.0000
  Al  Al4       1.0  0.59200  0.85700  0.49100  1.0000
  Al  Al5       1.0  0.40800  0.14300  0.50900  1.0000
  Al  Al6       1.0  0.15700  0.38900  0.51000  1.0000
  Al  Al7       1.0  0.14800  0.78200  0.92300  1.0000
  Al  Al8       1.0  0.63900  0.26800  0.94700  1.0000
  As  As1       1.0  0.15300  0.63100  0.06930  1.0000
  As  As2       1.0  0.63400  0.12600  0.09430  1.0000
  As  As3       1.0  0.51800  0.70400  0.15700  1.0000
  As  As4       1.0  0.01070  0.16500  0.18500  1.0000
  As  As5       1.0  0.78000  0.78000  0.35500  1.0000
  As  As6       1.0  0.41300  0.34100  0.39300  1.0000
  As  As7       1.0  0.90700  0.40800  0.45900  1.0000
  As  As8       1.0  0.32700  0.98700  0.46100  1.0000
  As  As9       1.0  0.67300  0.01320  0.53900  1.0000
  As  As10      1.0  0.09260  0.59200  0.54100  1.0000
  As  As11      1.0  0.58700  0.65900  0.60700  1.0000
  As  As12      1.0  0.22000  0.22000  0.64500  1.0000
  As  As13      1.0  0.98900  0.83500  0.81500  1.0000
  As  As14      1.0  0.48200  0.29600  0.84300  1.0000
  As  As15      1.0  0.36600  0.87400  0.90600  1.0000
  As  As16      1.0  0.84700  0.36900  0.93100  1.0000
  K   K1        1.0  0.31500  0.08400  0.02010  1.0000
  K   K2        1.0  0.17500  0.37500  0.02570  1.0000
  K   K3        1.0  0.97100  0.90200  0.14900  1.0000
  K   K4        1.0  0.52000  0.42600  0.15600  1.0000
  K   K5        1.0  0.83800  0.57700  0.24300  1.0000
  K   K6        1.0  0.46100  0.91700  0.25500  1.0000
  K   K7        1.0  0.18000  0.60100  0.30700  1.0000
  K   K8        1.0  0.65600  0.08190  0.30800  1.0000
  K   K9        1.0  0.19700  0.23700  0.31900  1.0000
  K   K10       1.0  0.78100  0.25000  0.38100  1.0000
  K   K11       1.0  0.01400  0.89300  0.41200  1.0000
  K   K12       1.0  0.48500  0.62500  0.41700  1.0000
  K   K13       1.0  0.51500  0.37500  0.58300  1.0000
  K   K14       1.0  0.98600  0.10700  0.58800  1.0000
  K   K15       1.0  0.21900  0.75000  0.61900  1.0000
  K   K16       1.0  0.80300  0.76300  0.68100  1.0000
  K   K17       1.0  0.34400  0.91800  0.69200  1.0000
  K   K18       1.0  0.82000  0.39900  0.69300  1.0000
  K   K19       1.0  0.53900  0.08250  0.74500  1.0000
  K   K20       1.0  0.16200  0.42300  0.75700  1.0000
  K   K21       1.0  0.48000  0.57400  0.84400  1.0000
  K   K22       1.0  0.02920  0.09830  0.85100  1.0000
  K   K23       1.0  0.82500  0.62500  0.97400  1.0000
  K   K24       1.0  0.68500  0.91600  0.98000  1.0000
