data_image0
_chemical_formula_structural       Be4Mg4O4Te4
_chemical_formula_sum              "Be4 Mg4 O4 Te4"
_cell_length_a       4.90785
_cell_length_b       8.17908
_cell_length_c       7.64861
_cell_angle_alpha    90
_cell_angle_beta     90
_cell_angle_gamma    90

_space_group_name_H-M_alt    "P 1"
_space_group_IT_number       1

loop_
  _space_group_symop_operation_xyz
  'x, y, z'

loop_
  _atom_site_type_symbol
  _atom_site_label
  _atom_site_symmetry_multiplicity
  _atom_site_fract_x
  _atom_site_fract_y
  _atom_site_fract_z
  _atom_site_occupancy
  Be  Be1       1.0  0.19900  0.18400  0.02840  1.0000
  Be  Be2       1.0  0.80100  0.68400  0.47200  1.0000
  Be  Be3       1.0  0.30100  0.81600  0.52800  1.0000
  Be  Be4       1.0  0.69900  0.31600  0.97200  1.0000
  Mg  Mg1       1.0  0.37700  0.60700  0.21700  1.0000
  Mg  Mg2       1.0  0.62300  0.10700  0.28300  1.0000
  Mg  Mg3       1.0  0.12300  0.39300  0.71700  1.0000
  Mg  Mg4       1.0  0.87700  0.89300  0.78300  1.0000
  O   O1        1.0  0.48900  0.22500  0.07890  1.0000
  O   O2        1.0  0.51100  0.72500  0.42100  1.0000
  O   O3        1.0  0.01120  0.77500  0.57900  1.0000
  O   O4        1.0  0.98900  0.27500  0.92100  1.0000
  Te  Te1       1.0  0.03760  0.91400  0.13400  1.0000
  Te  Te2       1.0  0.96200  0.41400  0.36600  1.0000
  Te  Te3       1.0  0.46200  0.08580  0.63400  1.0000
  Te  Te4       1.0  0.53800  0.58600  0.86600  1.0000
