data_image0
_chemical_formula_structural       C8Cl8H28N4Sn2
_chemical_formula_sum              "C8 Cl8 H28 N4 Sn2"
_cell_length_a       6.30588
_cell_length_b       8.18267
_cell_length_c       11.5459
_cell_angle_alpha    90
_cell_angle_beta     101.245
_cell_angle_gamma    90

_space_group_name_H-M_alt    "P 1"
_space_group_IT_number       1

loop_
  _space_group_symop_operation_xyz
  'x, y, z'

loop_
  _atom_site_type_symbol
  _atom_site_label
  _atom_site_symmetry_multiplicity
  _atom_site_fract_x
  _atom_site_fract_y
  _atom_site_fract_z
  _atom_site_occupancy
  C   C1        1.0  0.30600  0.14900  0.04000  1.0000
  C   C2        1.0  0.26400  0.34500  0.19400  1.0000
  C   C3        1.0  0.23600  0.84500  0.30600  1.0000
  C   C4        1.0  0.19400  0.64900  0.46000  1.0000
  C   C5        1.0  0.80600  0.35100  0.54000  1.0000
  C   C6        1.0  0.76400  0.15500  0.69400  1.0000
  C   C7        1.0  0.73600  0.65500  0.80600  1.0000
  C   C8        1.0  0.69400  0.85100  0.96000  1.0000
  Cl  Cl1       1.0  0.23700  0.71500  0.02180  1.0000
  Cl  Cl2       1.0  0.70800  0.56500  0.19700  1.0000
  Cl  Cl3       1.0  0.79200  0.06460  0.30300  1.0000
  Cl  Cl4       1.0  0.26300  0.21500  0.47800  1.0000
  Cl  Cl5       1.0  0.73700  0.78500  0.52200  1.0000
  Cl  Cl6       1.0  0.20800  0.93500  0.69700  1.0000
  Cl  Cl7       1.0  0.29200  0.43500  0.80300  1.0000
  Cl  Cl8       1.0  0.76300  0.28500  0.97800  1.0000
  H   H1        1.0  0.12800  0.35800  0.01910  1.0000
  H   H2        1.0  0.69800  0.86300  0.05490  1.0000
  H   H3        1.0  0.17400  0.07680  0.06440  1.0000
  H   H4        1.0  0.46100  0.10600  0.09000  1.0000
  H   H5        1.0  0.24000  0.47500  0.21200  1.0000
  H   H6        1.0  0.12700  0.27500  0.21400  1.0000
  H   H7        1.0  0.41500  0.30300  0.24900  1.0000
  H   H8        1.0  0.08480  0.80300  0.25100  1.0000
  H   H9        1.0  0.37300  0.77500  0.28600  1.0000
  H   H10       1.0  0.26000  0.97500  0.28800  1.0000
  H   H11       1.0  0.03880  0.60600  0.41000  1.0000
  H   H12       1.0  0.32600  0.57700  0.43600  1.0000
  H   H13       1.0  0.80200  0.36300  0.44500  1.0000
  H   H14       1.0  0.37200  0.85800  0.48100  1.0000
  H   H15       1.0  0.62800  0.14200  0.51900  1.0000
  H   H16       1.0  0.19800  0.63700  0.55500  1.0000
  H   H17       1.0  0.67400  0.42300  0.56400  1.0000
  H   H18       1.0  0.96100  0.39400  0.59000  1.0000
  H   H19       1.0  0.74000  0.02530  0.71200  1.0000
  H   H20       1.0  0.62700  0.22500  0.71400  1.0000
  H   H21       1.0  0.91500  0.19700  0.74900  1.0000
  H   H22       1.0  0.58500  0.69700  0.75100  1.0000
  H   H23       1.0  0.87300  0.72500  0.78600  1.0000
  H   H24       1.0  0.76000  0.52500  0.78800  1.0000
  H   H25       1.0  0.53900  0.89400  0.91000  1.0000
  H   H26       1.0  0.82600  0.92300  0.93600  1.0000
  H   H27       1.0  0.30200  0.13700  0.94500  1.0000
  H   H28       1.0  0.87200  0.64200  0.98100  1.0000
  N   N1        1.0  0.27600  0.32300  0.06850  1.0000
  N   N2        1.0  0.22400  0.82300  0.43200  1.0000
  N   N3        1.0  0.77600  0.17700  0.56800  1.0000
  N   N4        1.0  0.72400  0.67700  0.93200  1.0000
  Sn  Sn1       1.0  0.50000  0.50000  0.00000  1.0000
  Sn  Sn2       1.0  0.00000  0.00000  0.50000  1.0000
