data_image0
_chemical_formula_structural       Ca4O32P8Zr4
_chemical_formula_sum              "Ca4 O32 P8 Zr4"
_cell_length_a       14.3492
_cell_length_b       6.71243
_cell_length_c       6.2253
_cell_angle_alpha    90
_cell_angle_beta     90
_cell_angle_gamma    90.0007

_space_group_name_H-M_alt    "P 1"
_space_group_IT_number       1

loop_
  _space_group_symop_operation_xyz
  'x, y, z'

loop_
  _atom_site_type_symbol
  _atom_site_label
  _atom_site_symmetry_multiplicity
  _atom_site_fract_x
  _atom_site_fract_y
  _atom_site_fract_z
  _atom_site_occupancy
  Ca  Ca1       1.0  0.85600  0.99900  0.19800  1.0000
  Ca  Ca2       1.0  0.14400  0.49900  0.30200  1.0000
  Ca  Ca3       1.0  0.64400  0.00131  0.69800  1.0000
  Ca  Ca4       1.0  0.35600  0.50100  0.80200  1.0000
  O   O1        1.0  0.53700  1.00000  0.04030  1.0000
  O   O2        1.0  0.70700  0.00162  0.06540  1.0000
  O   O3        1.0  0.24800  0.99800  0.06950  1.0000
  O   O4        1.0  0.58900  0.50000  0.09570  1.0000
  O   O5        1.0  0.38700  0.68100  0.14100  1.0000
  O   O6        1.0  0.38600  0.31800  0.14300  1.0000
  O   O7        1.0  0.88500  0.67300  0.23800  1.0000
  O   O8        1.0  0.88500  0.32400  0.23800  1.0000
  O   O9        1.0  0.11500  0.82400  0.26200  1.0000
  O   O10       1.0  0.11500  0.17300  0.26200  1.0000
  O   O11       1.0  0.61400  0.81800  0.35700  1.0000
  O   O12       1.0  0.61300  0.18100  0.35900  1.0000
  O   O13       1.0  0.41100  0.00000  0.40400  1.0000
  O   O14       1.0  0.75200  0.49800  0.43000  1.0000
  O   O15       1.0  0.29300  0.50200  0.43500  1.0000
  O   O16       1.0  0.46300  0.50000  0.46000  1.0000
  O   O17       1.0  0.96300  0.00021  0.54000  1.0000
  O   O18       1.0  0.79300  0.99800  0.56500  1.0000
  O   O19       1.0  0.25200  0.00152  0.57000  1.0000
  O   O20       1.0  0.91100  0.50000  0.59600  1.0000
  O   O21       1.0  0.11300  0.31900  0.64100  1.0000
  O   O22       1.0  0.11400  0.68200  0.64300  1.0000
  O   O23       1.0  0.61500  0.32700  0.73800  1.0000
  O   O24       1.0  0.61500  0.67600  0.73800  1.0000
  O   O25       1.0  0.38500  0.17600  0.76200  1.0000
  O   O26       1.0  0.38500  0.82700  0.76200  1.0000
  O   O27       1.0  0.88600  0.18200  0.85700  1.0000
  O   O28       1.0  0.88700  0.81900  0.85900  1.0000
  O   O29       1.0  0.08860  0.00000  0.90400  1.0000
  O   O30       1.0  0.74800  0.50200  0.93000  1.0000
  O   O31       1.0  0.20700  0.49800  0.93500  1.0000
  O   O32       1.0  0.03680  0.50000  0.96000  1.0000
  P   P1        1.0  0.14300  0.99900  0.11300  1.0000
  P   P2        1.0  0.61900  0.00036  0.20400  1.0000
  P   P3        1.0  0.38100  0.50000  0.29600  1.0000
  P   P4        1.0  0.85700  0.49900  0.38700  1.0000
  P   P5        1.0  0.35700  0.00144  0.61300  1.0000
  P   P6        1.0  0.88100  1.00000  0.70400  1.0000
  P   P7        1.0  0.11900  0.50000  0.79600  1.0000
  P   P8        1.0  0.64300  0.50100  0.88700  1.0000
  Zr  Zr1       1.0  0.39200  0.00068  0.07050  1.0000
  Zr  Zr2       1.0  0.60800  0.50100  0.42900  1.0000
  Zr  Zr3       1.0  0.10800  0.99900  0.57100  1.0000
  Zr  Zr4       1.0  0.89200  0.49900  0.92900  1.0000
