data_image0
_chemical_formula_structural       F32K8Sb8
_chemical_formula_sum              "F32 K8 Sb8"
_cell_length_a       15.5825
_cell_length_b       11.244
_cell_length_c       4.31709
_cell_angle_alpha    90
_cell_angle_beta     90
_cell_angle_gamma    90

_space_group_name_H-M_alt    "P 1"
_space_group_IT_number       1

loop_
  _space_group_symop_operation_xyz
  'x, y, z'

loop_
  _atom_site_type_symbol
  _atom_site_label
  _atom_site_symmetry_multiplicity
  _atom_site_fract_x
  _atom_site_fract_y
  _atom_site_fract_z
  _atom_site_occupancy
  F   F1        1.0  0.21100  0.00000  0.03390  1.0000
  F   F2        1.0  0.78900  0.00000  0.03390  1.0000
  F   F3        1.0  0.09220  0.15000  0.16100  1.0000
  F   F4        1.0  0.90800  0.15000  0.16100  1.0000
  F   F5        1.0  0.09220  0.85000  0.16100  1.0000
  F   F6        1.0  0.90800  0.85000  0.16100  1.0000
  F   F7        1.0  0.40000  0.13600  0.18700  1.0000
  F   F8        1.0  0.60000  0.13600  0.18700  1.0000
  F   F9        1.0  0.40000  0.86400  0.18700  1.0000
  F   F10       1.0  0.60000  0.86400  0.18700  1.0000
  F   F11       1.0  0.00000  0.33800  0.27600  1.0000
  F   F12       1.0  0.00000  0.66200  0.27600  1.0000
  F   F13       1.0  0.26200  0.37600  0.48200  1.0000
  F   F14       1.0  0.73800  0.37600  0.48200  1.0000
  F   F15       1.0  0.26200  0.62400  0.48200  1.0000
  F   F16       1.0  0.73800  0.62400  0.48200  1.0000
  F   F17       1.0  0.23800  0.12400  0.51800  1.0000
  F   F18       1.0  0.76200  0.12400  0.51800  1.0000
  F   F19       1.0  0.23800  0.87600  0.51800  1.0000
  F   F20       1.0  0.76200  0.87600  0.51800  1.0000
  F   F21       1.0  0.50000  0.16200  0.72400  1.0000
  F   F22       1.0  0.50000  0.83800  0.72400  1.0000
  F   F23       1.0  0.09970  0.36400  0.81300  1.0000
  F   F24       1.0  0.90000  0.36400  0.81300  1.0000
  F   F25       1.0  0.09970  0.63600  0.81300  1.0000
  F   F26       1.0  0.90000  0.63600  0.81300  1.0000
  F   F27       1.0  0.40800  0.35000  0.83900  1.0000
  F   F28       1.0  0.59200  0.35000  0.83900  1.0000
  F   F29       1.0  0.40800  0.65000  0.83900  1.0000
  F   F30       1.0  0.59200  0.65000  0.83900  1.0000
  F   F31       1.0  0.28900  0.50000  0.96600  1.0000
  F   F32       1.0  0.71100  0.50000  0.96600  1.0000
  K   K1        1.0  0.25000  0.25000  0.00000  1.0000
  K   K2        1.0  0.75000  0.25000  0.00000  1.0000
  K   K3        1.0  0.25000  0.75000  0.00000  1.0000
  K   K4        1.0  0.75000  0.75000  0.00000  1.0000
  K   K5        1.0  0.12400  0.50000  0.32000  1.0000
  K   K6        1.0  0.87600  0.50000  0.32000  1.0000
  K   K7        1.0  0.37600  0.00000  0.68000  1.0000
  K   K8        1.0  0.62400  0.00000  0.68000  1.0000
  Sb  Sb1       1.0  0.50000  0.25000  0.12700  1.0000
  Sb  Sb2       1.0  0.50000  0.75000  0.12700  1.0000
  Sb  Sb3       1.0  0.14800  0.00000  0.43400  1.0000
  Sb  Sb4       1.0  0.85200  0.00000  0.43400  1.0000
  Sb  Sb5       1.0  0.35200  0.50000  0.56600  1.0000
  Sb  Sb6       1.0  0.64800  0.50000  0.56600  1.0000
  Sb  Sb7       1.0  0.00000  0.25000  0.87300  1.0000
  Sb  Sb8       1.0  0.00000  0.75000  0.87300  1.0000
