data_image0
_chemical_formula_structural       B18Ba2Li2O30
_chemical_formula_sum              "B18 Ba2 Li2 O30"
_cell_length_a       8.45831
_cell_length_b       8.45831
_cell_length_c       8.45831
_cell_angle_alpha    80.0792
_cell_angle_beta     99.9208
_cell_angle_gamma    99.9208

_space_group_name_H-M_alt    "P 1"
_space_group_IT_number       1

loop_
  _space_group_symop_operation_xyz
  'x, y, z'

loop_
  _atom_site_type_symbol
  _atom_site_label
  _atom_site_symmetry_multiplicity
  _atom_site_fract_x
  _atom_site_fract_y
  _atom_site_fract_z
  _atom_site_occupancy
  B   B1        1.0  0.25100  0.60900  0.07640  1.0000
  B   B2        1.0  0.75100  0.57600  0.10900  1.0000
  B   B3        1.0  0.25300  0.32000  0.18000  1.0000
  B   B4        1.0  0.32000  0.82000  0.24700  1.0000
  B   B5        1.0  0.42400  0.10900  0.24900  1.0000
  B   B6        1.0  0.61200  0.92200  0.25000  1.0000
  B   B7        1.0  0.82000  0.74700  0.32000  1.0000
  B   B8        1.0  0.07790  0.25000  0.38800  1.0000
  B   B9        1.0  0.11200  0.75000  0.42200  1.0000
  B   B10       1.0  0.89100  0.24900  0.57600  1.0000
  B   B11       1.0  0.92400  0.74900  0.60900  1.0000
  B   B12       1.0  0.18000  0.24700  0.68000  1.0000
  B   B13       1.0  0.68000  0.18000  0.74700  1.0000
  B   B14       1.0  0.39100  0.07640  0.74900  1.0000
  B   B15       1.0  0.57800  0.88800  0.75000  1.0000
  B   B16       1.0  0.75300  0.68000  0.82000  1.0000
  B   B17       1.0  0.25000  0.42200  0.88800  1.0000
  B   B18       1.0  0.75000  0.38800  0.92200  1.0000
  Ba  Ba1       1.0  0.99500  0.00535  0.00535  1.0000
  Ba  Ba2       1.0  0.49500  0.50500  0.50500  1.0000
  Li  Li1       1.0  0.72400  0.27600  0.27600  1.0000
  Li  Li2       1.0  0.22400  0.77600  0.77600  1.0000
  O   O1        1.0  0.23500  0.29600  0.01020  1.0000
  O   O2        1.0  0.74800  0.41700  0.07980  1.0000
  O   O3        1.0  0.23400  0.76200  0.09380  1.0000
  O   O4        1.0  0.27200  0.49000  0.20400  1.0000
  O   O5        1.0  0.29600  0.99000  0.22800  1.0000
  O   O6        1.0  0.76300  0.90000  0.23500  1.0000
  O   O7        1.0  0.10000  0.23500  0.23700  1.0000
  O   O8        1.0  0.58300  0.07980  0.25200  1.0000
  O   O9        1.0  0.73400  0.59400  0.26200  1.0000
  O   O10       1.0  0.49000  0.79600  0.26500  1.0000
  O   O11       1.0  0.40600  0.26200  0.26600  1.0000
  O   O12       1.0  0.99000  0.76500  0.29600  1.0000
  O   O13       1.0  0.26300  0.73500  0.40000  1.0000
  O   O14       1.0  0.92000  0.25200  0.41700  1.0000
  O   O15       1.0  0.79600  0.72800  0.49000  1.0000
  O   O16       1.0  0.20400  0.26500  0.51000  1.0000
  O   O17       1.0  0.08260  0.75200  0.58000  1.0000
  O   O18       1.0  0.73800  0.26600  0.59400  1.0000
  O   O19       1.0  0.00994  0.22800  0.70400  1.0000
  O   O20       1.0  0.51000  0.20400  0.72800  1.0000
  O   O21       1.0  0.60000  0.73700  0.73500  1.0000
  O   O22       1.0  0.26500  0.40000  0.73700  1.0000
  O   O23       1.0  0.42000  0.91700  0.75200  1.0000
  O   O24       1.0  0.90600  0.76600  0.76200  1.0000
  O   O25       1.0  0.70400  0.01020  0.76500  1.0000
  O   O26       1.0  0.23800  0.09380  0.76600  1.0000
  O   O27       1.0  0.73500  0.51000  0.79600  1.0000
  O   O28       1.0  0.76500  0.23700  0.90000  1.0000
  O   O29       1.0  0.24800  0.58000  0.91700  1.0000
  O   O30       1.0  0.77200  0.70400  0.99000  1.0000
