data_image0
_chemical_formula_structural       As6Gd2Mn6Na6O30
_chemical_formula_sum              "As6 Gd2 Mn6 Na6 O30"
_cell_length_a       11.046
_cell_length_b       11.0461
_cell_length_c       5.97088
_cell_angle_alpha    90
_cell_angle_beta     90
_cell_angle_gamma    120

_space_group_name_H-M_alt    "P 1"
_space_group_IT_number       1

loop_
  _space_group_symop_operation_xyz
  'x, y, z'

loop_
  _atom_site_type_symbol
  _atom_site_label
  _atom_site_symmetry_multiplicity
  _atom_site_fract_x
  _atom_site_fract_y
  _atom_site_fract_z
  _atom_site_occupancy
  As  As1       1.0  0.39800  0.18600  0.25000  1.0000
  As  As2       1.0  0.81400  0.21200  0.25000  1.0000
  As  As3       1.0  0.78800  0.60200  0.25000  1.0000
  As  As4       1.0  0.21200  0.39800  0.75000  1.0000
  As  As5       1.0  0.18600  0.78800  0.75000  1.0000
  As  As6       1.0  0.60200  0.81400  0.75000  1.0000
  Gd  Gd1       1.0  0.33300  0.66700  0.25000  1.0000
  Gd  Gd2       1.0  0.66700  0.33300  0.75000  1.0000
  Mn  Mn1       1.0  0.50000  0.00000  0.00000  1.0000
  Mn  Mn2       1.0  0.50000  0.50000  0.00000  1.0000
  Mn  Mn3       1.0  0.00000  0.50000  0.00000  1.0000
  Mn  Mn4       1.0  0.50000  0.00000  0.50000  1.0000
  Mn  Mn5       1.0  0.50000  0.50000  0.50000  1.0000
  Mn  Mn6       1.0  0.00000  0.50000  0.50000  1.0000
  Na  Na1       1.0  0.15900  0.26300  0.25000  1.0000
  Na  Na2       1.0  0.10400  0.84100  0.25000  1.0000
  Na  Na3       1.0  0.73700  0.89600  0.25000  1.0000
  Na  Na4       1.0  0.26300  0.10400  0.75000  1.0000
  Na  Na5       1.0  0.89600  0.15900  0.75000  1.0000
  Na  Na6       1.0  0.84100  0.73700  0.75000  1.0000
  O   O1        1.0  0.82100  0.30700  0.01530  1.0000
  O   O2        1.0  0.69300  0.51400  0.01530  1.0000
  O   O3        1.0  0.48600  0.17900  0.01530  1.0000
  O   O4        1.0  0.65200  0.06450  0.25000  1.0000
  O   O5        1.0  0.22400  0.07650  0.25000  1.0000
  O   O6        1.0  0.92400  0.14700  0.25000  1.0000
  O   O7        1.0  0.41300  0.34800  0.25000  1.0000
  O   O8        1.0  0.08740  0.46800  0.25000  1.0000
  O   O9        1.0  0.93600  0.58700  0.25000  1.0000
  O   O10       1.0  0.53200  0.61900  0.25000  1.0000
  O   O11       1.0  0.85300  0.77600  0.25000  1.0000
  O   O12       1.0  0.38100  0.91300  0.25000  1.0000
  O   O13       1.0  0.48600  0.17900  0.48500  1.0000
  O   O14       1.0  0.69300  0.51400  0.48500  1.0000
  O   O15       1.0  0.82100  0.30700  0.48500  1.0000
  O   O16       1.0  0.17900  0.69300  0.51500  1.0000
  O   O17       1.0  0.30700  0.48600  0.51500  1.0000
  O   O18       1.0  0.51400  0.82100  0.51500  1.0000
  O   O19       1.0  0.61900  0.08740  0.75000  1.0000
  O   O20       1.0  0.14700  0.22400  0.75000  1.0000
  O   O21       1.0  0.46800  0.38100  0.75000  1.0000
  O   O22       1.0  0.06450  0.41300  0.75000  1.0000
  O   O23       1.0  0.91300  0.53200  0.75000  1.0000
  O   O24       1.0  0.58700  0.65200  0.75000  1.0000
  O   O25       1.0  0.07650  0.85300  0.75000  1.0000
  O   O26       1.0  0.77600  0.92400  0.75000  1.0000
  O   O27       1.0  0.34800  0.93600  0.75000  1.0000
  O   O28       1.0  0.51400  0.82100  0.98500  1.0000
  O   O29       1.0  0.30700  0.48600  0.98500  1.0000
  O   O30       1.0  0.17900  0.69300  0.98500  1.0000
