data_image0
_chemical_formula_structural       As4Cl10Cu2O18Pb16
_chemical_formula_sum              "As4 Cl10 Cu2 O18 Pb16"
_cell_length_a       7.24702
_cell_length_b       11.6228
_cell_length_c       11.6228
_cell_angle_alpha    111.345
_cell_angle_beta     98.8893
_cell_angle_gamma    98.8893

_space_group_name_H-M_alt    "P 1"
_space_group_IT_number       1

loop_
  _space_group_symop_operation_xyz
  'x, y, z'

loop_
  _atom_site_type_symbol
  _atom_site_label
  _atom_site_symmetry_multiplicity
  _atom_site_fract_x
  _atom_site_fract_y
  _atom_site_fract_z
  _atom_site_occupancy
  As  As1       1.0  0.42100  0.44500  0.22400  1.0000
  As  As2       1.0  0.42100  0.22400  0.44500  1.0000
  As  As3       1.0  0.57900  0.77600  0.55500  1.0000
  As  As4       1.0  0.57900  0.55500  0.77600  1.0000
  Cl  Cl1       1.0  0.74700  0.88000  0.07400  1.0000
  Cl  Cl2       1.0  0.25300  0.92600  0.12000  1.0000
  Cl  Cl3       1.0  0.25800  0.69900  0.28800  1.0000
  Cl  Cl4       1.0  0.74200  0.71200  0.30100  1.0000
  Cl  Cl5       1.0  0.74000  0.49000  0.49000  1.0000
  Cl  Cl6       1.0  0.26000  0.51000  0.51000  1.0000
  Cl  Cl7       1.0  0.25800  0.28800  0.69900  1.0000
  Cl  Cl8       1.0  0.74200  0.30100  0.71200  1.0000
  Cl  Cl9       1.0  0.74700  0.07400  0.88000  1.0000
  Cl  Cl10      1.0  0.25300  0.12000  0.92600  1.0000
  Cu  Cu1       1.0  0.50000  0.58000  0.42000  1.0000
  Cu  Cu2       1.0  0.50000  0.42000  0.58000  1.0000
  O   O1        1.0  0.87200  0.45100  0.06310  1.0000
  O   O2        1.0  0.39400  0.47400  0.07990  1.0000
  O   O3        1.0  0.58500  0.34600  0.16800  1.0000
  O   O4        1.0  0.18900  0.34000  0.17600  1.0000
  O   O5        1.0  0.87500  0.24400  0.24400  1.0000
  O   O6        1.0  0.18900  0.17600  0.34000  1.0000
  O   O7        1.0  0.58500  0.16800  0.34600  1.0000
  O   O8        1.0  0.87200  0.06310  0.45100  1.0000
  O   O9        1.0  0.39400  0.07990  0.47400  1.0000
  O   O10       1.0  0.60600  0.92000  0.52600  1.0000
  O   O11       1.0  0.12800  0.93700  0.54900  1.0000
  O   O12       1.0  0.41500  0.83200  0.65400  1.0000
  O   O13       1.0  0.81100  0.82400  0.66000  1.0000
  O   O14       1.0  0.12500  0.75600  0.75600  1.0000
  O   O15       1.0  0.81100  0.66000  0.82400  1.0000
  O   O16       1.0  0.41500  0.65400  0.83200  1.0000
  O   O17       1.0  0.60600  0.52600  0.92000  1.0000
  O   O18       1.0  0.12800  0.54900  0.93700  1.0000
  Pb  Pb1       1.0  0.42700  0.66000  0.05840  1.0000
  Pb  Pb2       1.0  0.93300  0.65400  0.05850  1.0000
  Pb  Pb3       1.0  0.06560  0.13700  0.13700  1.0000
  Pb  Pb4       1.0  0.56800  0.14100  0.14100  1.0000
  Pb  Pb5       1.0  0.91900  0.46000  0.26400  1.0000
  Pb  Pb6       1.0  0.57300  0.94200  0.34000  1.0000
  Pb  Pb7       1.0  0.06740  0.94100  0.34600  1.0000
  Pb  Pb8       1.0  0.91900  0.26400  0.46000  1.0000
  Pb  Pb9       1.0  0.08100  0.73600  0.54000  1.0000
  Pb  Pb10      1.0  0.93300  0.05850  0.65400  1.0000
  Pb  Pb11      1.0  0.42700  0.05840  0.66000  1.0000
  Pb  Pb12      1.0  0.08100  0.54000  0.73600  1.0000
  Pb  Pb13      1.0  0.43200  0.85900  0.85900  1.0000
  Pb  Pb14      1.0  0.93400  0.86300  0.86300  1.0000
  Pb  Pb15      1.0  0.06740  0.34600  0.94100  1.0000
  Pb  Pb16      1.0  0.57300  0.34000  0.94200  1.0000
