data_image0
_chemical_formula_structural       Na10Nd2O32W8
_chemical_formula_sum              "Na10 Nd2 O32 W8"
_cell_length_a       9.90432
_cell_length_b       9.90432
_cell_length_c       9.90432
_cell_angle_alpha    109.212
_cell_angle_beta     109.99
_cell_angle_gamma    109.212

_space_group_name_H-M_alt    "P 1"
_space_group_IT_number       1

loop_
  _space_group_symop_operation_xyz
  'x, y, z'

loop_
  _atom_site_type_symbol
  _atom_site_label
  _atom_site_symmetry_multiplicity
  _atom_site_fract_x
  _atom_site_fract_y
  _atom_site_fract_z
  _atom_site_occupancy
  Na  Na1       1.0  0.00000  0.00000  0.00000  1.0000
  Na  Na2       1.0  0.40500  0.91600  0.07770  1.0000
  Na  Na3       1.0  0.73900  0.82700  0.15500  1.0000
  Na  Na4       1.0  0.08840  0.41600  0.26100  1.0000
  Na  Na5       1.0  0.16200  0.08400  0.48900  1.0000
  Na  Na6       1.0  0.51100  0.67300  0.59500  1.0000
  Na  Na7       1.0  0.84500  0.58400  0.67200  1.0000
  Na  Na8       1.0  0.25000  0.50000  0.75000  1.0000
  Na  Na9       1.0  0.92200  0.32700  0.83800  1.0000
  Na  Na10      1.0  0.32800  0.17300  0.91200  1.0000
  Nd  Nd1       1.0  0.75000  0.50000  0.25000  1.0000
  Nd  Nd2       1.0  0.50000  0.00000  0.50000  1.0000
  O   O1        1.0  0.60100  0.23300  0.00253  1.0000
  O   O2        1.0  0.70000  0.56000  0.02360  1.0000
  O   O3        1.0  0.42900  0.67700  0.04280  1.0000
  O   O4        1.0  0.64600  0.96400  0.04360  1.0000
  O   O5        1.0  0.17100  0.46400  0.06780  1.0000
  O   O6        1.0  0.29300  0.11400  0.11600  1.0000
  O   O7        1.0  0.46400  0.44000  0.14000  1.0000
  O   O8        1.0  0.00210  0.88600  0.17900  1.0000
  O   O9        1.0  0.27400  0.82400  0.21400  1.0000
  O   O10       1.0  0.99700  0.59800  0.23100  1.0000
  O   O11       1.0  0.86000  0.32400  0.30000  1.0000
  O   O12       1.0  0.61800  0.09840  0.35100  1.0000
  O   O13       1.0  0.31800  0.39700  0.35400  1.0000
  O   O14       1.0  0.76900  0.76700  0.36800  1.0000
  O   O15       1.0  0.48100  0.73300  0.38200  1.0000
  O   O16       1.0  0.93200  0.10300  0.39600  1.0000
  O   O17       1.0  0.63200  0.40200  0.39900  1.0000
  O   O18       1.0  0.39000  0.17600  0.45000  1.0000
  O   O19       1.0  0.25300  0.90200  0.51900  1.0000
  O   O20       1.0  0.97600  0.67600  0.53600  1.0000
  O   O21       1.0  0.24800  0.61400  0.57100  1.0000
  O   O22       1.0  0.78600  0.06010  0.61000  1.0000
  O   O23       1.0  0.95700  0.38600  0.63400  1.0000
  O   O24       1.0  0.07930  0.03570  0.68200  1.0000
  O   O25       1.0  0.60400  0.53600  0.70600  1.0000
  O   O26       1.0  0.82100  0.82300  0.70700  1.0000
  O   O27       1.0  0.55000  0.94000  0.72600  1.0000
  O   O28       1.0  0.64900  0.26700  0.74700  1.0000
  O   O29       1.0  0.36600  0.32300  0.75200  1.0000
  O   O30       1.0  0.29400  0.89700  0.82900  1.0000
  O   O31       1.0  0.95600  0.60300  0.92100  1.0000
  O   O32       1.0  0.88400  0.17700  0.99800  1.0000
  W   W1        1.0  0.05350  0.72500  0.13900  1.0000
  W   W2        1.0  0.38900  0.58500  0.16400  1.0000
  W   W3        1.0  0.41400  0.27500  0.32900  1.0000
  W   W4        1.0  0.83600  0.22500  0.42100  1.0000
  W   W5        1.0  0.86100  0.91500  0.58600  1.0000
  W   W6        1.0  0.19700  0.77500  0.61100  1.0000
  W   W7        1.0  0.57900  0.41500  0.80300  1.0000
  W   W8        1.0  0.67100  0.08530  0.94700  1.0000
