data_image0
_chemical_formula_structural       Ag8H8O28P8
_chemical_formula_sum              "Ag8 H8 O28 P8"
_cell_length_a       6.98526
_cell_length_b       7.07487
_cell_length_c       14.2666
_cell_angle_alpha    96.9415
_cell_angle_beta     75.8293
_cell_angle_gamma    119.582

_space_group_name_H-M_alt    "P 1"
_space_group_IT_number       1

loop_
  _space_group_symop_operation_xyz
  'x, y, z'

loop_
  _atom_site_type_symbol
  _atom_site_label
  _atom_site_symmetry_multiplicity
  _atom_site_fract_x
  _atom_site_fract_y
  _atom_site_fract_z
  _atom_site_occupancy
  Ag  Ag1       1.0  0.16600  0.53400  0.15100  1.0000
  Ag  Ag2       1.0  0.68300  0.96600  0.15100  1.0000
  Ag  Ag3       1.0  0.36800  0.53400  0.34900  1.0000
  Ag  Ag4       1.0  0.28300  0.96600  0.34900  1.0000
  Ag  Ag5       1.0  0.71700  0.03390  0.65100  1.0000
  Ag  Ag6       1.0  0.63200  0.46600  0.65100  1.0000
  Ag  Ag7       1.0  0.31700  0.03390  0.84900  1.0000
  Ag  Ag8       1.0  0.83400  0.46600  0.84900  1.0000
  H   H1        1.0  0.99000  0.75000  0.02010  1.0000
  H   H2        1.0  0.05510  0.11000  0.25000  1.0000
  H   H3        1.0  0.69500  0.39000  0.25000  1.0000
  H   H4        1.0  0.76000  0.75000  0.48000  1.0000
  H   H5        1.0  0.24000  0.25000  0.52000  1.0000
  H   H6        1.0  0.30500  0.61000  0.75000  1.0000
  H   H7        1.0  0.94500  0.89000  0.75000  1.0000
  H   H8        1.0  0.01000  0.25000  0.98000  1.0000
  O   O1        1.0  0.81600  0.59100  0.01500  1.0000
  O   O2        1.0  0.16900  0.90900  0.01500  1.0000
  O   O3        1.0  0.47200  0.25000  0.05540  1.0000
  O   O4        1.0  0.07910  0.11200  0.16400  1.0000
  O   O5        1.0  0.75700  0.38800  0.16400  1.0000
  O   O6        1.0  0.52100  0.57200  0.16900  1.0000
  O   O7        1.0  0.30900  0.92800  0.16900  1.0000
  O   O8        1.0  0.05050  0.57200  0.33100  1.0000
  O   O9        1.0  0.61900  0.92800  0.33100  1.0000
  O   O10       1.0  0.03260  0.11200  0.33600  1.0000
  O   O11       1.0  0.63100  0.38800  0.33600  1.0000
  O   O12       1.0  0.77800  0.25000  0.44500  1.0000
  O   O13       1.0  0.77500  0.59100  0.48500  1.0000
  O   O14       1.0  0.74000  0.90900  0.48500  1.0000
  O   O15       1.0  0.26000  0.09070  0.51500  1.0000
  O   O16       1.0  0.22500  0.40900  0.51500  1.0000
  O   O17       1.0  0.22200  0.75000  0.55500  1.0000
  O   O18       1.0  0.36900  0.61200  0.66400  1.0000
  O   O19       1.0  0.96700  0.88800  0.66400  1.0000
  O   O20       1.0  0.38100  0.07190  0.66900  1.0000
  O   O21       1.0  0.95000  0.42800  0.66900  1.0000
  O   O22       1.0  0.69100  0.07190  0.83100  1.0000
  O   O23       1.0  0.47900  0.42800  0.83100  1.0000
  O   O24       1.0  0.24300  0.61200  0.83600  1.0000
  O   O25       1.0  0.92100  0.88800  0.83600  1.0000
  O   O26       1.0  0.52800  0.75000  0.94500  1.0000
  O   O27       1.0  0.83100  0.09070  0.98500  1.0000
  O   O28       1.0  0.18400  0.40900  0.98500  1.0000
  P   P1        1.0  0.24900  0.03740  0.10500  1.0000
  P   P2        1.0  0.64600  0.46300  0.10500  1.0000
  P   P3        1.0  0.78800  0.03740  0.39500  1.0000
  P   P4        1.0  0.81700  0.46300  0.39500  1.0000
  P   P5        1.0  0.18300  0.53700  0.60500  1.0000
  P   P6        1.0  0.21200  0.96300  0.60500  1.0000
  P   P7        1.0  0.35400  0.53700  0.89500  1.0000
  P   P8        1.0  0.75100  0.96300  0.89500  1.0000
