data_image0
_chemical_formula_structural       Al6B3FFe3NaO30Si6
_chemical_formula_sum              "Al6 B3 F1 Fe3 Na1 O30 Si6"
_cell_length_a       7.13201
_cell_length_b       9.45931
_cell_length_c       9.45931
_cell_angle_alpha    113.907
_cell_angle_beta     104.556
_cell_angle_gamma    104.556

_space_group_name_H-M_alt    "P 1"
_space_group_IT_number       1

loop_
  _space_group_symop_operation_xyz
  'x, y, z'

loop_
  _atom_site_type_symbol
  _atom_site_label
  _atom_site_symmetry_multiplicity
  _atom_site_fract_x
  _atom_site_fract_y
  _atom_site_fract_z
  _atom_site_occupancy
  Al  Al1       1.0  0.65500  0.55700  0.21900  1.0000
  Al  Al2       1.0  0.43600  0.78100  0.33800  1.0000
  Al  Al3       1.0  0.09810  0.66200  0.44300  1.0000
  Al  Al4       1.0  0.65500  0.21900  0.55700  1.0000
  Al  Al5       1.0  0.09810  0.44300  0.66200  1.0000
  Al  Al6       1.0  0.43600  0.33800  0.78100  1.0000
  B   B1        1.0  0.44100  0.66900  0.00000  1.0000
  B   B2        1.0  0.77300  0.33100  0.33100  1.0000
  B   B3        1.0  0.44100  0.00000  0.66900  1.0000
  F   F1        1.0  0.22400  0.00000  0.00000  1.0000
  Fe  Fe1       1.0  0.45400  0.20400  0.00000  1.0000
  Fe  Fe2       1.0  0.45400  0.00000  0.20400  1.0000
  Fe  Fe3       1.0  0.25000  0.79600  0.79600  1.0000
  Na  Na1       1.0  0.78600  0.00000  0.00000  1.0000
  O   O1        1.0  0.00136  0.27000  0.00000  1.0000
  O   O2        1.0  0.61400  0.39800  0.00000  1.0000
  O   O3        1.0  0.82200  0.71500  0.00000  1.0000
  O   O4        1.0  0.46300  0.81900  1.00000  1.0000
  O   O5        1.0  0.50200  0.66900  0.15000  1.0000
  O   O6        1.0  0.64400  0.18100  0.18100  1.0000
  O   O7        1.0  0.41300  0.38000  0.18400  1.0000
  O   O8        1.0  0.22900  0.81600  0.19600  1.0000
  O   O9        1.0  0.00136  0.00000  0.27000  1.0000
  O   O10       1.0  0.20900  0.57400  0.28300  1.0000
  O   O11       1.0  0.10700  0.28500  0.28500  1.0000
  O   O12       1.0  0.92600  0.71700  0.29200  1.0000
  O   O13       1.0  0.83200  0.48000  0.33100  1.0000
  O   O14       1.0  0.41300  0.18400  0.38000  1.0000
  O   O15       1.0  0.61400  0.00000  0.39800  1.0000
  O   O16       1.0  0.63500  0.70800  0.42600  1.0000
  O   O17       1.0  0.83200  0.33100  0.48000  1.0000
  O   O18       1.0  0.35200  0.85000  0.52000  1.0000
  O   O19       1.0  0.20900  0.28300  0.57400  1.0000
  O   O20       1.0  0.21600  0.60200  0.60200  1.0000
  O   O21       1.0  0.03350  0.80400  0.62000  1.0000
  O   O22       1.0  0.50200  0.15000  0.66900  1.0000
  O   O23       1.0  0.63500  0.42600  0.70800  1.0000
  O   O24       1.0  0.82200  0.00000  0.71500  1.0000
  O   O25       1.0  0.92600  0.29200  0.71700  1.0000
  O   O26       1.0  0.73200  0.73000  0.73000  1.0000
  O   O27       1.0  0.03350  0.62000  0.80400  1.0000
  O   O28       1.0  0.22900  0.19600  0.81600  1.0000
  O   O29       1.0  0.46300  0.00000  0.81900  1.0000
  O   O30       1.0  0.35200  0.52000  0.85000  1.0000
  Si  Si1       1.0  0.18900  0.38300  0.19000  1.0000
  Si  Si2       1.0  0.99900  0.81000  0.19300  1.0000
  Si  Si3       1.0  0.18900  0.19000  0.38300  1.0000
  Si  Si4       1.0  0.80600  0.80700  0.61700  1.0000
  Si  Si5       1.0  0.80600  0.61700  0.80700  1.0000
  Si  Si6       1.0  0.99900  0.19300  0.81000  1.0000
