data_image0
_chemical_formula_structural       C4Cl8H24N12Zn2
_chemical_formula_sum              "C4 Cl8 H24 N12 Zn2"
_cell_length_a       7.15511
_cell_length_b       12.3275
_cell_length_c       6.8866
_cell_angle_alpha    92.6262
_cell_angle_beta     103.478
_cell_angle_gamma    82.7439

_space_group_name_H-M_alt    "P 1"
_space_group_IT_number       1

loop_
  _space_group_symop_operation_xyz
  'x, y, z'

loop_
  _atom_site_type_symbol
  _atom_site_label
  _atom_site_symmetry_multiplicity
  _atom_site_fract_x
  _atom_site_fract_y
  _atom_site_fract_z
  _atom_site_occupancy
  C   C1        1.0  0.68600  0.48600  0.26200  1.0000
  C   C2        1.0  0.76400  0.12100  0.39700  1.0000
  C   C3        1.0  0.23600  0.87900  0.60300  1.0000
  C   C4        1.0  0.31400  0.51400  0.73800  1.0000
  Cl  Cl1       1.0  0.13700  0.72900  0.11000  1.0000
  Cl  Cl2       1.0  0.64300  0.78900  0.18400  1.0000
  Cl  Cl3       1.0  0.23000  0.05890  0.19600  1.0000
  Cl  Cl4       1.0  0.24000  0.35700  0.28800  1.0000
  Cl  Cl5       1.0  0.76000  0.64300  0.71200  1.0000
  Cl  Cl6       1.0  0.77000  0.94100  0.80400  1.0000
  Cl  Cl7       1.0  0.35700  0.21100  0.81600  1.0000
  Cl  Cl8       1.0  0.86300  0.27100  0.89000  1.0000
  H   H1        1.0  0.83100  0.06050  0.13300  1.0000
  H   H2        1.0  0.59300  0.05550  0.15100  1.0000
  H   H3        1.0  0.51000  0.63100  0.23200  1.0000
  H   H4        1.0  0.83500  0.61200  0.23500  1.0000
  H   H5        1.0  0.97100  0.48100  0.25100  1.0000
  H   H6        1.0  0.39700  0.51500  0.25700  1.0000
  H   H7        1.0  0.81000  0.32800  0.26300  1.0000
  H   H8        1.0  0.57100  0.34600  0.28900  1.0000
  H   H9        1.0  0.35100  0.83000  0.36400  1.0000
  H   H10       1.0  0.03430  0.81700  0.38100  1.0000
  H   H11       1.0  0.05410  0.12200  0.41500  1.0000
  H   H12       1.0  0.48700  0.12100  0.42900  1.0000
  H   H13       1.0  0.51300  0.87900  0.57100  1.0000
  H   H14       1.0  0.94600  0.87800  0.58500  1.0000
  H   H15       1.0  0.96600  0.18300  0.61900  1.0000
  H   H16       1.0  0.64900  0.17000  0.63600  1.0000
  H   H17       1.0  0.42900  0.65400  0.71100  1.0000
  H   H18       1.0  0.19000  0.67200  0.73700  1.0000
  H   H19       1.0  0.60300  0.48500  0.74300  1.0000
  H   H20       1.0  0.02890  0.51900  0.74900  1.0000
  H   H21       1.0  0.16500  0.38800  0.76500  1.0000
  H   H22       1.0  0.49000  0.36900  0.76800  1.0000
  H   H23       1.0  0.40700  0.94400  0.84900  1.0000
  H   H24       1.0  0.16900  0.93900  0.86700  1.0000
  N   N1        1.0  0.72900  0.07230  0.21600  1.0000
  N   N2        1.0  0.84200  0.52900  0.24300  1.0000
  N   N3        1.0  0.51900  0.54900  0.25600  1.0000
  N   N4        1.0  0.69700  0.37800  0.29400  1.0000
  N   N5        1.0  0.94100  0.14700  0.48100  1.0000
  N   N6        1.0  0.61900  0.14600  0.49000  1.0000
  N   N7        1.0  0.38100  0.85400  0.51000  1.0000
  N   N8        1.0  0.05920  0.85300  0.51900  1.0000
  N   N9        1.0  0.30300  0.62200  0.70600  1.0000
  N   N10       1.0  0.48100  0.45100  0.74400  1.0000
  N   N11       1.0  0.15800  0.47100  0.75700  1.0000
  N   N12       1.0  0.27100  0.92800  0.78400  1.0000
  Zn  Zn1       1.0  0.17700  0.22600  0.04700  1.0000
  Zn  Zn2       1.0  0.82300  0.77400  0.95300  1.0000
