data_image0
_chemical_formula_structural       Ga8O32Si8Sr4
_chemical_formula_sum              "Ga8 O32 Si8 Sr4"
_cell_length_a       8.9384
_cell_length_b       9.47485
_cell_length_c       8.37819
_cell_angle_alpha    90
_cell_angle_beta     90.8523
_cell_angle_gamma    90

_space_group_name_H-M_alt    "P 1"
_space_group_IT_number       1

loop_
  _space_group_symop_operation_xyz
  'x, y, z'

loop_
  _atom_site_type_symbol
  _atom_site_label
  _atom_site_symmetry_multiplicity
  _atom_site_fract_x
  _atom_site_fract_y
  _atom_site_fract_z
  _atom_site_occupancy
  Ga  Ga1       1.0  0.26900  0.42700  0.06920  1.0000
  Ga  Ga2       1.0  0.76900  0.07330  0.06920  1.0000
  Ga  Ga3       1.0  0.94900  0.81000  0.42600  1.0000
  Ga  Ga4       1.0  0.44900  0.69000  0.42600  1.0000
  Ga  Ga5       1.0  0.55100  0.31000  0.57400  1.0000
  Ga  Ga6       1.0  0.05070  0.19000  0.57400  1.0000
  Ga  Ga7       1.0  0.73100  0.57300  0.93100  1.0000
  Ga  Ga8       1.0  0.23100  0.92700  0.93100  1.0000
  O   O1        1.0  0.69600  0.39900  0.01760  1.0000
  O   O2        1.0  0.19600  0.10100  0.01760  1.0000
  O   O3        1.0  0.38400  0.86600  0.06660  1.0000
  O   O4        1.0  0.88400  0.63400  0.06660  1.0000
  O   O5        1.0  0.92600  0.19700  0.07730  1.0000
  O   O6        1.0  0.42600  0.30300  0.07730  1.0000
  O   O7        1.0  0.99900  0.86100  0.22500  1.0000
  O   O8        1.0  0.49900  0.63900  0.22500  1.0000
  O   O9        1.0  0.67400  0.06970  0.26300  1.0000
  O   O10       1.0  0.17400  0.43000  0.26300  1.0000
  O   O11       1.0  0.89000  0.19300  0.43300  1.0000
  O   O12       1.0  0.39000  0.30700  0.43300  1.0000
  O   O13       1.0  0.88100  0.62700  0.43900  1.0000
  O   O14       1.0  0.38100  0.87300  0.43900  1.0000
  O   O15       1.0  0.69100  0.43000  0.48600  1.0000
  O   O16       1.0  0.19100  0.07040  0.48600  1.0000
  O   O17       1.0  0.80900  0.93000  0.51400  1.0000
  O   O18       1.0  0.30900  0.57000  0.51400  1.0000
  O   O19       1.0  0.61900  0.12700  0.56100  1.0000
  O   O20       1.0  0.11900  0.37300  0.56100  1.0000
  O   O21       1.0  0.61000  0.69300  0.56700  1.0000
  O   O22       1.0  0.11000  0.80700  0.56700  1.0000
  O   O23       1.0  0.82600  0.57000  0.73700  1.0000
  O   O24       1.0  0.32600  0.93000  0.73700  1.0000
  O   O25       1.0  0.00114  0.13900  0.77500  1.0000
  O   O26       1.0  0.50100  0.36100  0.77500  1.0000
  O   O27       1.0  0.57400  0.69700  0.92300  1.0000
  O   O28       1.0  0.07410  0.80300  0.92300  1.0000
  O   O29       1.0  0.61600  0.13400  0.93300  1.0000
  O   O30       1.0  0.11600  0.36600  0.93300  1.0000
  O   O31       1.0  0.80400  0.89900  0.98200  1.0000
  O   O32       1.0  0.30400  0.60100  0.98200  1.0000
  Si  Si1       1.0  0.94000  0.79900  0.05440  1.0000
  Si  Si2       1.0  0.44000  0.70100  0.05440  1.0000
  Si  Si3       1.0  0.75300  0.08020  0.44000  1.0000
  Si  Si4       1.0  0.25300  0.42000  0.44000  1.0000
  Si  Si5       1.0  0.74700  0.58000  0.56000  1.0000
  Si  Si6       1.0  0.24700  0.92000  0.56000  1.0000
  Si  Si7       1.0  0.56000  0.29900  0.94600  1.0000
  Si  Si8       1.0  0.05950  0.20100  0.94600  1.0000
  Sr  Sr1       1.0  0.88600  0.41300  0.25300  1.0000
  Sr  Sr2       1.0  0.38600  0.08680  0.25300  1.0000
  Sr  Sr3       1.0  0.61400  0.91300  0.74700  1.0000
  Sr  Sr4       1.0  0.11400  0.58700  0.74700  1.0000
