data_image0
_chemical_formula_structural       F8O24Sc8Te8
_chemical_formula_sum              "F8 O24 Sc8 Te8"
_cell_length_a       5.57604
_cell_length_b       21.8524
_cell_length_c       5.50762
_cell_angle_alpha    90
_cell_angle_beta     90
_cell_angle_gamma    90

_space_group_name_H-M_alt    "P 1"
_space_group_IT_number       1

loop_
  _space_group_symop_operation_xyz
  'x, y, z'

loop_
  _atom_site_type_symbol
  _atom_site_label
  _atom_site_symmetry_multiplicity
  _atom_site_fract_x
  _atom_site_fract_y
  _atom_site_fract_z
  _atom_site_occupancy
  F   F1        1.0  0.17200  0.22400  0.00513  1.0000
  F   F2        1.0  0.32800  0.77600  0.00513  1.0000
  F   F3        1.0  0.17200  0.27600  0.49500  1.0000
  F   F4        1.0  0.32800  0.72400  0.49500  1.0000
  F   F5        1.0  0.67200  0.27600  0.50500  1.0000
  F   F6        1.0  0.82800  0.72400  0.50500  1.0000
  F   F7        1.0  0.67200  0.22400  0.99500  1.0000
  F   F8        1.0  0.82800  0.77600  0.99500  1.0000
  O   O1        1.0  0.61900  0.43900  0.07250  1.0000
  O   O2        1.0  0.88100  0.56100  0.07250  1.0000
  O   O3        1.0  0.05690  0.05300  0.08890  1.0000
  O   O4        1.0  0.44300  0.94700  0.08890  1.0000
  O   O5        1.0  0.94600  0.33800  0.12800  1.0000
  O   O6        1.0  0.55400  0.66200  0.12800  1.0000
  O   O7        1.0  0.94600  0.16200  0.37200  1.0000
  O   O8        1.0  0.55400  0.83800  0.37200  1.0000
  O   O9        1.0  0.05690  0.44700  0.41100  1.0000
  O   O10       1.0  0.44300  0.55300  0.41100  1.0000
  O   O11       1.0  0.61900  0.06100  0.42800  1.0000
  O   O12       1.0  0.88100  0.93900  0.42800  1.0000
  O   O13       1.0  0.11900  0.06100  0.57200  1.0000
  O   O14       1.0  0.38100  0.93900  0.57200  1.0000
  O   O15       1.0  0.55700  0.44700  0.58900  1.0000
  O   O16       1.0  0.94300  0.55300  0.58900  1.0000
  O   O17       1.0  0.44600  0.16200  0.62800  1.0000
  O   O18       1.0  0.05450  0.83800  0.62800  1.0000
  O   O19       1.0  0.44600  0.33800  0.87200  1.0000
  O   O20       1.0  0.05450  0.66200  0.87200  1.0000
  O   O21       1.0  0.55700  0.05300  0.91100  1.0000
  O   O22       1.0  0.94300  0.94700  0.91100  1.0000
  O   O23       1.0  0.11900  0.43900  0.92800  1.0000
  O   O24       1.0  0.38100  0.56100  0.92800  1.0000
  Sc  Sc1       1.0  0.75000  0.00000  0.17800  1.0000
  Sc  Sc2       1.0  0.91000  0.25000  0.25000  1.0000
  Sc  Sc3       1.0  0.59000  0.75000  0.25000  1.0000
  Sc  Sc4       1.0  0.75000  0.50000  0.32200  1.0000
  Sc  Sc5       1.0  0.25000  0.50000  0.67800  1.0000
  Sc  Sc6       1.0  0.41000  0.25000  0.75000  1.0000
  Sc  Sc7       1.0  0.08990  0.75000  0.75000  1.0000
  Sc  Sc8       1.0  0.25000  0.00000  0.82200  1.0000
  Te  Te1       1.0  0.22200  0.39000  0.19300  1.0000
  Te  Te2       1.0  0.27800  0.61000  0.19300  1.0000
  Te  Te3       1.0  0.22200  0.11000  0.30700  1.0000
  Te  Te4       1.0  0.27800  0.89000  0.30700  1.0000
  Te  Te5       1.0  0.72200  0.11000  0.69300  1.0000
  Te  Te6       1.0  0.77800  0.89000  0.69300  1.0000
  Te  Te7       1.0  0.72200  0.39000  0.80700  1.0000
  Te  Te8       1.0  0.77800  0.61000  0.80700  1.0000
