data_image0
_chemical_formula_structural       B12Br2Cs6H24S8
_chemical_formula_sum              "B12 Br2 Cs6 H24 S8"
_cell_length_a       10.4735
_cell_length_b       10.4735
_cell_length_c       8.67426
_cell_angle_alpha    90
_cell_angle_beta     90
_cell_angle_gamma    120

_space_group_name_H-M_alt    "P 1"
_space_group_IT_number       1

loop_
  _space_group_symop_operation_xyz
  'x, y, z'

loop_
  _atom_site_type_symbol
  _atom_site_label
  _atom_site_symmetry_multiplicity
  _atom_site_fract_x
  _atom_site_fract_y
  _atom_site_fract_z
  _atom_site_occupancy
  B   B1        1.0  0.23500  0.76500  0.12200  1.0000
  B   B2        1.0  0.53000  0.76500  0.12200  1.0000
  B   B3        1.0  0.23500  0.47000  0.12200  1.0000
  B   B4        1.0  0.43200  0.86300  0.41400  1.0000
  B   B5        1.0  0.13700  0.56800  0.41400  1.0000
  B   B6        1.0  0.43200  0.56800  0.41400  1.0000
  B   B7        1.0  0.47000  0.23500  0.62200  1.0000
  B   B8        1.0  0.76500  0.23500  0.62200  1.0000
  B   B9        1.0  0.76500  0.53000  0.62200  1.0000
  B   B10       1.0  0.56800  0.13700  0.91400  1.0000
  B   B11       1.0  0.56800  0.43200  0.91400  1.0000
  B   B12       1.0  0.86300  0.43200  0.91400  1.0000
  Br  Br1       1.0  0.00000  0.00000  0.00043  1.0000
  Br  Br2       1.0  0.00000  0.00000  0.50000  1.0000
  Cs  Cs1       1.0  0.31900  0.15900  0.24900  1.0000
  Cs  Cs2       1.0  0.84100  0.15900  0.24900  1.0000
  Cs  Cs3       1.0  0.84100  0.68100  0.24900  1.0000
  Cs  Cs4       1.0  0.15900  0.84100  0.74900  1.0000
  Cs  Cs5       1.0  0.68100  0.84100  0.74900  1.0000
  Cs  Cs6       1.0  0.15900  0.31900  0.74900  1.0000
  H   H1        1.0  0.57100  0.14300  0.05410  1.0000
  H   H2        1.0  0.57100  0.42900  0.05410  1.0000
  H   H3        1.0  0.85700  0.42900  0.05410  1.0000
  H   H4        1.0  0.10800  0.69800  0.07770  1.0000
  H   H5        1.0  0.59000  0.69800  0.07770  1.0000
  H   H6        1.0  0.30200  0.89200  0.07770  1.0000
  H   H7        1.0  0.59000  0.89200  0.07770  1.0000
  H   H8        1.0  0.10800  0.41000  0.07770  1.0000
  H   H9        1.0  0.30200  0.41000  0.07770  1.0000
  H   H10       1.0  0.49400  0.98900  0.36400  1.0000
  H   H11       1.0  0.01130  0.50600  0.36400  1.0000
  H   H12       1.0  0.49400  0.50600  0.36400  1.0000
  H   H13       1.0  0.42900  0.85700  0.55400  1.0000
  H   H14       1.0  0.14300  0.57100  0.55400  1.0000
  H   H15       1.0  0.42900  0.57100  0.55400  1.0000
  H   H16       1.0  0.41000  0.10800  0.57800  1.0000
  H   H17       1.0  0.69800  0.10800  0.57800  1.0000
  H   H18       1.0  0.41000  0.30200  0.57800  1.0000
  H   H19       1.0  0.89200  0.30200  0.57800  1.0000
  H   H20       1.0  0.69800  0.59000  0.57800  1.0000
  H   H21       1.0  0.89200  0.59000  0.57800  1.0000
  H   H22       1.0  0.50600  0.01130  0.86400  1.0000
  H   H23       1.0  0.50600  0.49400  0.86400  1.0000
  H   H24       1.0  0.98900  0.49400  0.86400  1.0000
  S   S1        1.0  0.33300  0.66700  0.03740  1.0000
  S   S2        1.0  0.23100  0.76900  0.34300  1.0000
  S   S3        1.0  0.53800  0.76900  0.34300  1.0000
  S   S4        1.0  0.23100  0.46200  0.34300  1.0000
  S   S5        1.0  0.66700  0.33300  0.53700  1.0000
  S   S6        1.0  0.46200  0.23100  0.84300  1.0000
  S   S7        1.0  0.76900  0.23100  0.84300  1.0000
  S   S8        1.0  0.76900  0.53800  0.84300  1.0000
