data_image0
_chemical_formula_structural       O36P8Si4V4
_chemical_formula_sum              "O36 P8 Si4 V4"
_cell_length_a       8.66425
_cell_length_b       8.66425
_cell_length_c       7.9493
_cell_angle_alpha    90
_cell_angle_beta     90
_cell_angle_gamma    90

_space_group_name_H-M_alt    "P 1"
_space_group_IT_number       1

loop_
  _space_group_symop_operation_xyz
  'x, y, z'

loop_
  _atom_site_type_symbol
  _atom_site_label
  _atom_site_symmetry_multiplicity
  _atom_site_fract_x
  _atom_site_fract_y
  _atom_site_fract_z
  _atom_site_occupancy
  O   O1        1.0  0.25000  0.25000  0.07210  1.0000
  O   O2        1.0  0.89800  0.19900  0.11400  1.0000
  O   O3        1.0  0.60200  0.30100  0.11400  1.0000
  O   O4        1.0  0.19900  0.60200  0.11400  1.0000
  O   O5        1.0  0.30100  0.89800  0.11400  1.0000
  O   O6        1.0  0.59100  0.58800  0.17600  1.0000
  O   O7        1.0  0.91200  0.59100  0.17600  1.0000
  O   O8        1.0  0.58800  0.90900  0.17600  1.0000
  O   O9        1.0  0.90900  0.91200  0.17600  1.0000
  O   O10       1.0  0.40900  0.08800  0.32400  1.0000
  O   O11       1.0  0.08800  0.09090  0.32400  1.0000
  O   O12       1.0  0.41200  0.40900  0.32400  1.0000
  O   O13       1.0  0.09090  0.41200  0.32400  1.0000
  O   O14       1.0  0.80100  0.10200  0.38600  1.0000
  O   O15       1.0  0.69900  0.39800  0.38600  1.0000
  O   O16       1.0  0.10200  0.69900  0.38600  1.0000
  O   O17       1.0  0.39800  0.80100  0.38600  1.0000
  O   O18       1.0  0.75000  0.75000  0.42800  1.0000
  O   O19       1.0  0.25000  0.25000  0.57200  1.0000
  O   O20       1.0  0.60200  0.19900  0.61400  1.0000
  O   O21       1.0  0.89800  0.30100  0.61400  1.0000
  O   O22       1.0  0.30100  0.60200  0.61400  1.0000
  O   O23       1.0  0.19900  0.89800  0.61400  1.0000
  O   O24       1.0  0.90900  0.58800  0.67600  1.0000
  O   O25       1.0  0.58800  0.59100  0.67600  1.0000
  O   O26       1.0  0.91200  0.90900  0.67600  1.0000
  O   O27       1.0  0.59100  0.91200  0.67600  1.0000
  O   O28       1.0  0.09090  0.08800  0.82400  1.0000
  O   O29       1.0  0.41200  0.09090  0.82400  1.0000
  O   O30       1.0  0.08800  0.40900  0.82400  1.0000
  O   O31       1.0  0.40900  0.41200  0.82400  1.0000
  O   O32       1.0  0.69900  0.10200  0.88600  1.0000
  O   O33       1.0  0.80100  0.39800  0.88600  1.0000
  O   O34       1.0  0.39800  0.69900  0.88600  1.0000
  O   O35       1.0  0.10200  0.80100  0.88600  1.0000
  O   O36       1.0  0.75000  0.75000  0.92800  1.0000
  P   P1        1.0  0.93000  0.06960  0.25000  1.0000
  P   P2        1.0  0.57000  0.43000  0.25000  1.0000
  P   P3        1.0  0.06960  0.57000  0.25000  1.0000
  P   P4        1.0  0.43000  0.93000  0.25000  1.0000
  P   P5        1.0  0.57000  0.06960  0.75000  1.0000
  P   P6        1.0  0.93000  0.43000  0.75000  1.0000
  P   P7        1.0  0.43000  0.57000  0.75000  1.0000
  P   P8        1.0  0.06960  0.93000  0.75000  1.0000
  Si  Si1       1.0  0.75000  0.25000  0.00000  1.0000
  Si  Si2       1.0  0.25000  0.75000  0.00000  1.0000
  Si  Si3       1.0  0.75000  0.25000  0.50000  1.0000
  Si  Si4       1.0  0.25000  0.75000  0.50000  1.0000
  V   V1        1.0  0.75000  0.75000  0.13600  1.0000
  V   V2        1.0  0.25000  0.25000  0.36400  1.0000
  V   V3        1.0  0.75000  0.75000  0.63600  1.0000
  V   V4        1.0  0.25000  0.25000  0.86400  1.0000
