data_image0
_chemical_formula_structural       B12Dy8O30
_chemical_formula_sum              "B12 Dy8 O30"
_cell_length_a       4.35988
_cell_length_b       6.21482
_cell_length_c       18.7624
_cell_angle_alpha    96.0938
_cell_angle_beta     90
_cell_angle_gamma    110.534

_space_group_name_H-M_alt    "P 1"
_space_group_IT_number       1

loop_
  _space_group_symop_operation_xyz
  'x, y, z'

loop_
  _atom_site_type_symbol
  _atom_site_label
  _atom_site_symmetry_multiplicity
  _atom_site_fract_x
  _atom_site_fract_y
  _atom_site_fract_z
  _atom_site_occupancy
  B   B1        1.0  0.02120  0.66200  0.02550  1.0000
  B   B2        1.0  0.60800  0.80800  0.08740  1.0000
  B   B3        1.0  0.79700  0.13600  0.19500  1.0000
  B   B4        1.0  0.66100  0.86400  0.30500  1.0000
  B   B5        1.0  0.80100  0.19200  0.41300  1.0000
  B   B6        1.0  0.35900  0.33800  0.47400  1.0000
  B   B7        1.0  0.64100  0.66200  0.52600  1.0000
  B   B8        1.0  0.19900  0.80800  0.58700  1.0000
  B   B9        1.0  0.33900  0.13600  0.69500  1.0000
  B   B10       1.0  0.20300  0.86400  0.80500  1.0000
  B   B11       1.0  0.39200  0.19200  0.91300  1.0000
  B   B12       1.0  0.97900  0.33800  0.97400  1.0000
  Dy  Dy1       1.0  0.33800  0.26700  0.09900  1.0000
  Dy  Dy2       1.0  0.07530  0.72500  0.19600  1.0000
  Dy  Dy3       1.0  0.35000  0.27500  0.30400  1.0000
  Dy  Dy4       1.0  0.07050  0.73300  0.40100  1.0000
  Dy  Dy5       1.0  0.92900  0.26700  0.59900  1.0000
  Dy  Dy6       1.0  0.65000  0.72500  0.69600  1.0000
  Dy  Dy7       1.0  0.92500  0.27500  0.80400  1.0000
  Dy  Dy8       1.0  0.66200  0.73300  0.90100  1.0000
  O   O1        1.0  0.75000  0.74500  0.02090  1.0000
  O   O2        1.0  0.91300  0.41800  0.04980  1.0000
  O   O3        1.0  0.28800  0.83300  0.06990  1.0000
  O   O4        1.0  0.83900  0.02960  0.12100  1.0000
  O   O5        1.0  0.55800  0.64100  0.13900  1.0000
  O   O6        1.0  0.46600  0.13000  0.19700  1.0000
  O   O7        1.0  0.05000  0.36400  0.20400  1.0000
  O   O8        1.0  0.86800  0.00000  0.25000  1.0000
  O   O9        1.0  0.68600  0.63600  0.29600  1.0000
  O   O10       1.0  0.33600  0.87000  0.30300  1.0000
  O   O11       1.0  0.91700  0.35900  0.36100  1.0000
  O   O12       1.0  0.80900  0.97000  0.37900  1.0000
  O   O13       1.0  0.45500  0.16700  0.43000  1.0000
  O   O14       1.0  0.49500  0.58200  0.45000  1.0000
  O   O15       1.0  0.00506  0.25500  0.47900  1.0000
  O   O16       1.0  0.99500  0.74500  0.52100  1.0000
  O   O17       1.0  0.50500  0.41800  0.55000  1.0000
  O   O18       1.0  0.54500  0.83300  0.57000  1.0000
  O   O19       1.0  0.19100  0.02960  0.62100  1.0000
  O   O20       1.0  0.08280  0.64100  0.63900  1.0000
  O   O21       1.0  0.66400  0.13000  0.69700  1.0000
  O   O22       1.0  0.31400  0.36400  0.70400  1.0000
  O   O23       1.0  0.13200  0.00000  0.75000  1.0000
  O   O24       1.0  0.95000  0.63600  0.79600  1.0000
  O   O25       1.0  0.53400  0.87000  0.80300  1.0000
  O   O26       1.0  0.44200  0.35900  0.86100  1.0000
  O   O27       1.0  0.16100  0.97000  0.87900  1.0000
  O   O28       1.0  0.71200  0.16700  0.93000  1.0000
  O   O29       1.0  0.08700  0.58200  0.95000  1.0000
  O   O30       1.0  0.25000  0.25500  0.97900  1.0000
