data_image0
_chemical_formula_structural       Mg4Mn4O4Te4
_chemical_formula_sum              "Mg4 Mn4 O4 Te4"
_cell_length_a       6.10914
_cell_length_b       3.81523
_cell_length_c       12.7908
_cell_angle_alpha    90
_cell_angle_beta     90
_cell_angle_gamma    90

_space_group_name_H-M_alt    "P 1"
_space_group_IT_number       1

loop_
  _space_group_symop_operation_xyz
  'x, y, z'

loop_
  _atom_site_type_symbol
  _atom_site_label
  _atom_site_symmetry_multiplicity
  _atom_site_fract_x
  _atom_site_fract_y
  _atom_site_fract_z
  _atom_site_occupancy
  Mg  Mg1       1.0  0.51300  0.25000  0.24800  1.0000
  Mg  Mg2       1.0  0.01260  0.25000  0.25200  1.0000
  Mg  Mg3       1.0  0.98700  0.75000  0.74800  1.0000
  Mg  Mg4       1.0  0.48700  0.75000  0.75200  1.0000
  Mn  Mn1       1.0  0.25600  0.75000  0.07640  1.0000
  Mn  Mn2       1.0  0.75600  0.75000  0.42400  1.0000
  Mn  Mn3       1.0  0.24400  0.25000  0.57600  1.0000
  Mn  Mn4       1.0  0.74400  0.25000  0.92400  1.0000
  O   O1        1.0  0.25900  0.25000  0.15500  1.0000
  O   O2        1.0  0.75900  0.25000  0.34500  1.0000
  O   O3        1.0  0.24100  0.75000  0.65500  1.0000
  O   O4        1.0  0.74100  0.75000  0.84500  1.0000
  Te  Te1       1.0  0.75800  0.75000  0.10700  1.0000
  Te  Te2       1.0  0.25800  0.75000  0.39300  1.0000
  Te  Te3       1.0  0.74200  0.25000  0.60700  1.0000
  Te  Te4       1.0  0.24200  0.25000  0.89300  1.0000
