data_image0
_chemical_formula_structural       Br16Ce8S16Sb8
_chemical_formula_sum              "Br16 Ce8 S16 Sb8"
_cell_length_a       8.75261
_cell_length_b       9.37067
_cell_length_c       17.933
_cell_angle_alpha    90
_cell_angle_beta     103.894
_cell_angle_gamma    90

_space_group_name_H-M_alt    "P 1"
_space_group_IT_number       1

loop_
  _space_group_symop_operation_xyz
  'x, y, z'

loop_
  _atom_site_type_symbol
  _atom_site_label
  _atom_site_symmetry_multiplicity
  _atom_site_fract_x
  _atom_site_fract_y
  _atom_site_fract_z
  _atom_site_occupancy
  Br  Br1       1.0  0.55700  0.62500  0.13100  1.0000
  Br  Br2       1.0  0.07740  0.62800  0.13500  1.0000
  Br  Br3       1.0  0.83800  0.94300  0.16100  1.0000
  Br  Br4       1.0  0.84300  0.32600  0.16900  1.0000
  Br  Br5       1.0  0.15700  0.82600  0.33100  1.0000
  Br  Br6       1.0  0.16200  0.44300  0.33900  1.0000
  Br  Br7       1.0  0.92300  0.12800  0.36500  1.0000
  Br  Br8       1.0  0.44300  0.12500  0.36900  1.0000
  Br  Br9       1.0  0.55700  0.87500  0.63100  1.0000
  Br  Br10      1.0  0.07740  0.87200  0.63500  1.0000
  Br  Br11      1.0  0.83800  0.55700  0.66100  1.0000
  Br  Br12      1.0  0.84300  0.17400  0.66900  1.0000
  Br  Br13      1.0  0.15700  0.67400  0.83100  1.0000
  Br  Br14      1.0  0.16200  0.05740  0.83900  1.0000
  Br  Br15      1.0  0.92300  0.37200  0.86500  1.0000
  Br  Br16      1.0  0.44300  0.37500  0.86900  1.0000
  Ce  Ce1       1.0  0.61500  0.13600  0.23700  1.0000
  Ce  Ce2       1.0  0.12200  0.13000  0.24400  1.0000
  Ce  Ce3       1.0  0.87800  0.63000  0.25600  1.0000
  Ce  Ce4       1.0  0.38500  0.63600  0.26300  1.0000
  Ce  Ce5       1.0  0.61500  0.36400  0.73700  1.0000
  Ce  Ce6       1.0  0.12200  0.37000  0.74400  1.0000
  Ce  Ce7       1.0  0.87800  0.87000  0.75600  1.0000
  Ce  Ce8       1.0  0.38500  0.86400  0.76300  1.0000
  S   S1        1.0  0.47800  0.15100  0.05660  1.0000
  S   S2        1.0  0.07300  0.15100  0.05670  1.0000
  S   S3        1.0  0.33800  0.93600  0.19000  1.0000
  S   S4        1.0  0.34100  0.33500  0.19900  1.0000
  S   S5        1.0  0.65900  0.83500  0.30100  1.0000
  S   S6        1.0  0.66200  0.43600  0.31000  1.0000
  S   S7        1.0  0.92700  0.65100  0.44300  1.0000
  S   S8        1.0  0.52200  0.65100  0.44300  1.0000
  S   S9        1.0  0.47800  0.34900  0.55700  1.0000
  S   S10       1.0  0.07300  0.34900  0.55700  1.0000
  S   S11       1.0  0.33800  0.56400  0.69000  1.0000
  S   S12       1.0  0.34100  0.16500  0.69900  1.0000
  S   S13       1.0  0.65900  0.66500  0.80100  1.0000
  S   S14       1.0  0.66200  0.06410  0.81000  1.0000
  S   S15       1.0  0.92700  0.84900  0.94300  1.0000
  S   S16       1.0  0.52200  0.84900  0.94300  1.0000
  Sb  Sb1       1.0  0.27100  0.95900  0.04960  1.0000
  Sb  Sb2       1.0  0.27600  0.34100  0.05950  1.0000
  Sb  Sb3       1.0  0.72400  0.84100  0.44000  1.0000
  Sb  Sb4       1.0  0.72900  0.45900  0.45000  1.0000
  Sb  Sb5       1.0  0.27100  0.54100  0.55000  1.0000
  Sb  Sb6       1.0  0.27600  0.15900  0.56000  1.0000
  Sb  Sb7       1.0  0.72400  0.65900  0.94000  1.0000
  Sb  Sb8       1.0  0.72900  0.04060  0.95000  1.0000
