data_image0
_chemical_formula_structural       C4F12H8Na4O16S4
_chemical_formula_sum              "C4 F12 H8 Na4 O16 S4"
_cell_length_a       8.87859
_cell_length_b       6.20767
_cell_length_c       10.2425
_cell_angle_alpha    90
_cell_angle_beta     108.054
_cell_angle_gamma    90

_space_group_name_H-M_alt    "P 1"
_space_group_IT_number       1

loop_
  _space_group_symop_operation_xyz
  'x, y, z'

loop_
  _atom_site_type_symbol
  _atom_site_label
  _atom_site_symmetry_multiplicity
  _atom_site_fract_x
  _atom_site_fract_y
  _atom_site_fract_z
  _atom_site_occupancy
  C   C1        1.0  0.87500  0.19400  0.09790  1.0000
  C   C2        1.0  0.12500  0.69400  0.40200  1.0000
  C   C3        1.0  0.87500  0.30600  0.59800  1.0000
  C   C4        1.0  0.12500  0.80600  0.90200  1.0000
  F   F1        1.0  0.96500  0.24600  0.01690  1.0000
  F   F2        1.0  0.83400  0.98400  0.07880  1.0000
  F   F3        1.0  0.96200  0.22200  0.23100  1.0000
  F   F4        1.0  0.03790  0.72200  0.26900  1.0000
  F   F5        1.0  0.16600  0.48400  0.42100  1.0000
  F   F6        1.0  0.03510  0.74600  0.48300  1.0000
  F   F7        1.0  0.96500  0.25400  0.51700  1.0000
  F   F8        1.0  0.83400  0.51600  0.57900  1.0000
  F   F9        1.0  0.96200  0.27800  0.73100  1.0000
  F   F10       1.0  0.03790  0.77800  0.76900  1.0000
  F   F11       1.0  0.16600  0.01580  0.92100  1.0000
  F   F12       1.0  0.03510  0.75400  0.98300  1.0000
  H   H1        1.0  0.22200  0.27400  0.11100  1.0000
  H   H2        1.0  0.75500  0.69500  0.23500  1.0000
  H   H3        1.0  0.24500  0.19500  0.26500  1.0000
  H   H4        1.0  0.77800  0.77400  0.38900  1.0000
  H   H5        1.0  0.22200  0.22600  0.61100  1.0000
  H   H6        1.0  0.75500  0.80500  0.73500  1.0000
  H   H7        1.0  0.24500  0.30500  0.76500  1.0000
  H   H8        1.0  0.77800  0.72600  0.88900  1.0000
  Na  Na1       1.0  0.50300  0.99600  0.21500  1.0000
  Na  Na2       1.0  0.49700  0.49600  0.28500  1.0000
  Na  Na3       1.0  0.50300  0.50400  0.71500  1.0000
  Na  Na4       1.0  0.49700  0.00426  0.78500  1.0000
  O   O1        1.0  0.75400  0.58000  0.06960  1.0000
  O   O2        1.0  0.38700  0.70300  0.08750  1.0000
  O   O3        1.0  0.61800  0.29100  0.15200  1.0000
  O   O4        1.0  0.30000  0.24200  0.20000  1.0000
  O   O5        1.0  0.70000  0.74200  0.30000  1.0000
  O   O6        1.0  0.38200  0.79100  0.34800  1.0000
  O   O7        1.0  0.61300  0.20300  0.41200  1.0000
  O   O8        1.0  0.24600  0.08040  0.43000  1.0000
  O   O9        1.0  0.75400  0.92000  0.57000  1.0000
  O   O10       1.0  0.38700  0.79700  0.58800  1.0000
  O   O11       1.0  0.61800  0.20900  0.65200  1.0000
  O   O12       1.0  0.30000  0.25800  0.70000  1.0000
  O   O13       1.0  0.70000  0.75800  0.80000  1.0000
  O   O14       1.0  0.38200  0.70900  0.84800  1.0000
  O   O15       1.0  0.61300  0.29700  0.91200  1.0000
  O   O16       1.0  0.24600  0.42000  0.93000  1.0000
  S   S1        1.0  0.69500  0.36000  0.05310  1.0000
  S   S2        1.0  0.30500  0.86000  0.44700  1.0000
  S   S3        1.0  0.69500  0.14000  0.55300  1.0000
  S   S4        1.0  0.30500  0.64000  0.94700  1.0000
