data_image0
_chemical_formula_structural       In2P6Rb12S28
_chemical_formula_sum              "In2 P6 Rb12 S28"
_cell_length_a       11.1601
_cell_length_b       11.4408
_cell_length_c       13.1917
_cell_angle_alpha    105.65
_cell_angle_beta     90
_cell_angle_gamma    119.192

_space_group_name_H-M_alt    "P 1"
_space_group_IT_number       1

loop_
  _space_group_symop_operation_xyz
  'x, y, z'

loop_
  _atom_site_type_symbol
  _atom_site_label
  _atom_site_symmetry_multiplicity
  _atom_site_fract_x
  _atom_site_fract_y
  _atom_site_fract_z
  _atom_site_occupancy
  In  In1       1.0  0.36500  0.00000  0.25000  1.0000
  In  In2       1.0  0.63500  1.00000  0.75000  1.0000
  P   P1        1.0  0.27300  0.61500  0.17000  1.0000
  P   P2        1.0  0.05680  0.00000  0.25000  1.0000
  P   P3        1.0  0.65900  0.38500  0.33000  1.0000
  P   P4        1.0  0.34100  0.61500  0.67000  1.0000
  P   P5        1.0  0.94300  1.00000  0.75000  1.0000
  P   P6        1.0  0.72700  0.38500  0.83000  1.0000
  Rb  Rb1       1.0  0.56300  0.76700  0.01070  1.0000
  Rb  Rb2       1.0  0.98200  0.18900  0.08680  1.0000
  Rb  Rb3       1.0  0.89900  0.57200  0.15100  1.0000
  Rb  Rb4       1.0  0.32700  0.42800  0.34900  1.0000
  Rb  Rb5       1.0  0.79300  0.81100  0.41300  1.0000
  Rb  Rb6       1.0  0.79600  0.23300  0.48900  1.0000
  Rb  Rb7       1.0  0.20400  0.76700  0.51100  1.0000
  Rb  Rb8       1.0  0.20700  0.18900  0.58700  1.0000
  Rb  Rb9       1.0  0.67300  0.57200  0.65100  1.0000
  Rb  Rb10      1.0  0.10100  0.42800  0.84900  1.0000
  Rb  Rb11      1.0  0.01780  0.81100  0.91300  1.0000
  Rb  Rb12      1.0  0.43700  0.23300  0.98900  1.0000
  S   S1        1.0  0.30500  0.47200  0.06620  1.0000
  S   S2        1.0  0.24200  0.73900  0.09670  1.0000
  S   S3        1.0  0.55700  0.08370  0.13000  1.0000
  S   S4        1.0  0.87900  0.84900  0.15000  1.0000
  S   S5        1.0  0.21500  0.08150  0.15900  1.0000
  S   S6        1.0  0.59500  0.46400  0.23700  1.0000
  S   S7        1.0  0.72700  0.24700  0.23900  1.0000
  S   S8        1.0  0.47900  0.75300  0.26100  1.0000
  S   S9        1.0  0.13100  0.53600  0.26300  1.0000
  S   S10       1.0  0.13300  0.91900  0.34100  1.0000
  S   S11       1.0  0.03020  0.15100  0.35000  1.0000
  S   S12       1.0  0.47400  0.91600  0.37000  1.0000
  S   S13       1.0  0.50300  0.26100  0.40300  1.0000
  S   S14       1.0  0.83300  0.52800  0.43400  1.0000
  S   S15       1.0  0.16700  0.47200  0.56600  1.0000
  S   S16       1.0  0.49700  0.73900  0.59700  1.0000
  S   S17       1.0  0.52600  0.08370  0.63000  1.0000
  S   S18       1.0  0.97000  0.84900  0.65000  1.0000
  S   S19       1.0  0.86700  0.08150  0.65900  1.0000
  S   S20       1.0  0.86900  0.46400  0.73700  1.0000
  S   S21       1.0  0.52100  0.24700  0.73900  1.0000
  S   S22       1.0  0.27300  0.75300  0.76100  1.0000
  S   S23       1.0  0.40500  0.53600  0.76300  1.0000
  S   S24       1.0  0.78500  0.91900  0.84100  1.0000
  S   S25       1.0  0.12100  0.15100  0.85000  1.0000
  S   S26       1.0  0.44300  0.91600  0.87000  1.0000
  S   S27       1.0  0.75800  0.26100  0.90300  1.0000
  S   S28       1.0  0.69500  0.52800  0.93400  1.0000
