data_image0
_chemical_formula_structural       Br16La8S16Sb8
_chemical_formula_sum              "Br16 La8 S16 Sb8"
_cell_length_a       8.79643
_cell_length_b       9.37175
_cell_length_c       17.6893
_cell_angle_alpha    90
_cell_angle_beta     104.116
_cell_angle_gamma    90

_space_group_name_H-M_alt    "P 1"
_space_group_IT_number       1

loop_
  _space_group_symop_operation_xyz
  'x, y, z'

loop_
  _atom_site_type_symbol
  _atom_site_label
  _atom_site_symmetry_multiplicity
  _atom_site_fract_x
  _atom_site_fract_y
  _atom_site_fract_z
  _atom_site_occupancy
  Br  Br1       1.0  0.55600  0.62200  0.12900  1.0000
  Br  Br2       1.0  0.07830  0.62500  0.13400  1.0000
  Br  Br3       1.0  0.83800  0.94100  0.16000  1.0000
  Br  Br4       1.0  0.84300  0.32300  0.16800  1.0000
  Br  Br5       1.0  0.15700  0.82300  0.33200  1.0000
  Br  Br6       1.0  0.16200  0.44100  0.34000  1.0000
  Br  Br7       1.0  0.92200  0.12500  0.36600  1.0000
  Br  Br8       1.0  0.44400  0.12200  0.37100  1.0000
  Br  Br9       1.0  0.55600  0.87800  0.62900  1.0000
  Br  Br10      1.0  0.07830  0.87500  0.63400  1.0000
  Br  Br11      1.0  0.83800  0.55900  0.66000  1.0000
  Br  Br12      1.0  0.84300  0.17700  0.66800  1.0000
  Br  Br13      1.0  0.15700  0.67700  0.83200  1.0000
  Br  Br14      1.0  0.16200  0.05930  0.84000  1.0000
  Br  Br15      1.0  0.92200  0.37500  0.86600  1.0000
  Br  Br16      1.0  0.44400  0.37800  0.87100  1.0000
  La  La1       1.0  0.61400  0.13400  0.23700  1.0000
  La  La2       1.0  0.12300  0.12800  0.24400  1.0000
  La  La3       1.0  0.87700  0.62800  0.25600  1.0000
  La  La4       1.0  0.38600  0.63400  0.26300  1.0000
  La  La5       1.0  0.61400  0.36600  0.73700  1.0000
  La  La6       1.0  0.12300  0.37200  0.74400  1.0000
  La  La7       1.0  0.87700  0.87200  0.75600  1.0000
  La  La8       1.0  0.38600  0.86600  0.76300  1.0000
  S   S1        1.0  0.47600  0.15000  0.05390  1.0000
  S   S2        1.0  0.07290  0.15000  0.05450  1.0000
  S   S3        1.0  0.33800  0.93500  0.19000  1.0000
  S   S4        1.0  0.34000  0.33300  0.19900  1.0000
  S   S5        1.0  0.66000  0.83300  0.30100  1.0000
  S   S6        1.0  0.66200  0.43500  0.31000  1.0000
  S   S7        1.0  0.92700  0.65000  0.44600  1.0000
  S   S8        1.0  0.52400  0.65000  0.44600  1.0000
  S   S9        1.0  0.47600  0.35000  0.55400  1.0000
  S   S10       1.0  0.07290  0.35000  0.55400  1.0000
  S   S11       1.0  0.33800  0.56500  0.69000  1.0000
  S   S12       1.0  0.34000  0.16700  0.69900  1.0000
  S   S13       1.0  0.66000  0.66700  0.80100  1.0000
  S   S14       1.0  0.66200  0.06520  0.81000  1.0000
  S   S15       1.0  0.92700  0.85000  0.94600  1.0000
  S   S16       1.0  0.52400  0.85000  0.94600  1.0000
  Sb  Sb1       1.0  0.26900  0.95700  0.04700  1.0000
  Sb  Sb2       1.0  0.27500  0.34000  0.05730  1.0000
  Sb  Sb3       1.0  0.72500  0.84000  0.44300  1.0000
  Sb  Sb4       1.0  0.73100  0.45700  0.45300  1.0000
  Sb  Sb5       1.0  0.26900  0.54300  0.54700  1.0000
  Sb  Sb6       1.0  0.27500  0.16000  0.55700  1.0000
  Sb  Sb7       1.0  0.72500  0.66000  0.94300  1.0000
  Sb  Sb8       1.0  0.73100  0.04260  0.95300  1.0000
