data_image0
_chemical_formula_structural       C4F12N8O12S16
_chemical_formula_sum              "C4 F12 N8 O12 S16"
_cell_length_a       8.37616
_cell_length_b       10.2516
_cell_length_c       8.10891
_cell_angle_alpha    90
_cell_angle_beta     91.9863
_cell_angle_gamma    90

_space_group_name_H-M_alt    "P 1"
_space_group_IT_number       1

loop_
  _space_group_symop_operation_xyz
  'x, y, z'

loop_
  _atom_site_type_symbol
  _atom_site_label
  _atom_site_symmetry_multiplicity
  _atom_site_fract_x
  _atom_site_fract_y
  _atom_site_fract_z
  _atom_site_occupancy
  C   C1        1.0  0.27300  0.52200  0.05710  1.0000
  C   C2        1.0  0.22700  0.02180  0.44300  1.0000
  C   C3        1.0  0.77300  0.97800  0.55700  1.0000
  C   C4        1.0  0.72700  0.47800  0.94300  1.0000
  F   F1        1.0  0.13400  0.58100  0.00982  1.0000
  F   F2        1.0  0.64200  0.49800  0.07940  1.0000
  F   F3        1.0  0.35500  0.60300  0.16000  1.0000
  F   F4        1.0  0.14500  0.10300  0.34000  1.0000
  F   F5        1.0  0.85800  0.99800  0.42100  1.0000
  F   F6        1.0  0.36600  0.08090  0.49000  1.0000
  F   F7        1.0  0.63400  0.91900  0.51000  1.0000
  F   F8        1.0  0.14200  0.00233  0.57900  1.0000
  F   F9        1.0  0.85500  0.89700  0.66000  1.0000
  F   F10       1.0  0.64500  0.39700  0.84000  1.0000
  F   F11       1.0  0.35800  0.50200  0.92100  1.0000
  F   F12       1.0  0.86600  0.41900  0.99000  1.0000
  N   N1        1.0  0.83400  0.98200  0.05510  1.0000
  N   N2        1.0  0.70100  0.19300  0.13800  1.0000
  N   N3        1.0  0.79900  0.69300  0.36200  1.0000
  N   N4        1.0  0.66600  0.48200  0.44500  1.0000
  N   N5        1.0  0.33400  0.51800  0.55500  1.0000
  N   N6        1.0  0.20100  0.30700  0.63800  1.0000
  N   N7        1.0  0.29900  0.80700  0.86200  1.0000
  N   N8        1.0  0.16600  0.01800  0.94500  1.0000
  O   O1        1.0  0.16600  0.28500  0.02380  1.0000
  O   O2        1.0  0.37700  0.89600  0.21300  1.0000
  O   O3        1.0  0.39100  0.32300  0.22200  1.0000
  O   O4        1.0  0.10900  0.82300  0.27800  1.0000
  O   O5        1.0  0.12300  0.39600  0.28700  1.0000
  O   O6        1.0  0.33400  0.78500  0.47600  1.0000
  O   O7        1.0  0.66600  0.21500  0.52400  1.0000
  O   O8        1.0  0.87700  0.60400  0.71300  1.0000
  O   O9        1.0  0.89100  0.17700  0.72200  1.0000
  O   O10       1.0  0.60900  0.67700  0.77800  1.0000
  O   O11       1.0  0.62300  0.10400  0.78700  1.0000
  O   O12       1.0  0.83400  0.71500  0.97600  1.0000
  S   S1        1.0  0.85900  0.13400  0.06620  1.0000
  S   S2        1.0  0.66700  0.91800  0.10100  1.0000
  S   S3        1.0  0.23400  0.36300  0.15800  1.0000
  S   S4        1.0  0.55200  0.10000  0.17200  1.0000
  S   S5        1.0  0.94800  0.60000  0.32800  1.0000
  S   S6        1.0  0.26600  0.86300  0.34200  1.0000
  S   S7        1.0  0.83300  0.41800  0.39900  1.0000
  S   S8        1.0  0.64100  0.63400  0.43400  1.0000
  S   S9        1.0  0.35900  0.36600  0.56600  1.0000
  S   S10       1.0  0.16700  0.58200  0.60100  1.0000
  S   S11       1.0  0.73400  0.13700  0.65800  1.0000
  S   S12       1.0  0.05200  0.40000  0.67200  1.0000
  S   S13       1.0  0.44800  0.90000  0.82800  1.0000
  S   S14       1.0  0.76600  0.63700  0.84200  1.0000
  S   S15       1.0  0.33300  0.08220  0.89900  1.0000
  S   S16       1.0  0.14100  0.86600  0.93400  1.0000
