data_image0
_chemical_formula_structural       Al45V7
_chemical_formula_sum              "Al45 V7"
_cell_length_a       7.60647
_cell_length_b       11.0813
_cell_length_c       11.1017
_cell_angle_alpha    74.0838
_cell_angle_beta     110.034
_cell_angle_gamma    90

_space_group_name_H-M_alt    "P 1"
_space_group_IT_number       1

loop_
  _space_group_symop_operation_xyz
  'x, y, z'

loop_
  _atom_site_type_symbol
  _atom_site_label
  _atom_site_symmetry_multiplicity
  _atom_site_fract_x
  _atom_site_fract_y
  _atom_site_fract_z
  _atom_site_occupancy
  Al  Al1       1.0  0.50000  0.50000  0.00000  1.0000
  Al  Al2       1.0  0.52100  0.24300  0.04170  1.0000
  Al  Al3       1.0  0.22300  0.79500  0.07200  1.0000
  Al  Al4       1.0  0.84900  0.79500  0.07200  1.0000
  Al  Al5       1.0  0.24000  0.37700  0.09060  1.0000
  Al  Al6       1.0  0.85100  0.37700  0.09060  1.0000
  Al  Al7       1.0  0.38700  0.01020  0.13800  1.0000
  Al  Al8       1.0  0.75100  0.01020  0.13800  1.0000
  Al  Al9       1.0  0.08250  0.55800  0.16500  1.0000
  Al  Al10      1.0  0.09020  0.15500  0.18000  1.0000
  Al  Al11      1.0  0.61500  0.77200  0.23100  1.0000
  Al  Al12      1.0  0.62500  0.36200  0.25000  1.0000
  Al  Al13      1.0  0.12900  0.88700  0.25700  1.0000
  Al  Al14      1.0  0.47100  0.14400  0.33000  1.0000
  Al  Al15      1.0  0.85900  0.14400  0.33000  1.0000
  Al  Al16      1.0  0.36500  0.64800  0.36100  1.0000
  Al  Al17      1.0  0.99500  0.64800  0.36100  1.0000
  Al  Al18      1.0  0.00523  0.37800  0.38000  1.0000
  Al  Al19      1.0  0.37500  0.37800  0.38000  1.0000
  Al  Al20      1.0  0.52000  0.86700  0.41100  1.0000
  Al  Al21      1.0  0.89100  0.86700  0.41100  1.0000
  Al  Al22      1.0  0.70700  0.51000  0.41400  1.0000
  Al  Al23      1.0  0.22500  0.00753  0.44900  1.0000
  Al  Al24      1.0  0.77500  0.99200  0.55100  1.0000
  Al  Al25      1.0  0.29300  0.49000  0.58600  1.0000
  Al  Al26      1.0  0.10900  0.13300  0.58900  1.0000
  Al  Al27      1.0  0.48000  0.13300  0.58900  1.0000
  Al  Al28      1.0  0.62500  0.62200  0.62000  1.0000
  Al  Al29      1.0  0.99500  0.62200  0.62000  1.0000
  Al  Al30      1.0  0.00466  0.35200  0.63900  1.0000
  Al  Al31      1.0  0.63500  0.35200  0.63900  1.0000
  Al  Al32      1.0  0.14100  0.85600  0.67000  1.0000
  Al  Al33      1.0  0.52900  0.85600  0.67000  1.0000
  Al  Al34      1.0  0.87100  0.11300  0.74300  1.0000
  Al  Al35      1.0  0.37500  0.63800  0.75000  1.0000
  Al  Al36      1.0  0.38500  0.22800  0.76900  1.0000
  Al  Al37      1.0  0.91000  0.84500  0.82000  1.0000
  Al  Al38      1.0  0.91800  0.44200  0.83500  1.0000
  Al  Al39      1.0  0.24900  0.99000  0.86200  1.0000
  Al  Al40      1.0  0.61300  0.99000  0.86200  1.0000
  Al  Al41      1.0  0.14900  0.62300  0.90900  1.0000
  Al  Al42      1.0  0.76000  0.62300  0.90900  1.0000
  Al  Al43      1.0  0.15100  0.20500  0.92800  1.0000
  Al  Al44      1.0  0.77700  0.20500  0.92800  1.0000
  Al  Al45      1.0  0.47900  0.75700  0.95800  1.0000
  V   V1        1.0  0.00000  0.00000  0.00000  1.0000
  V   V2        1.0  0.41600  0.58100  0.17200  1.0000
  V   V3        1.0  0.75500  0.58100  0.17200  1.0000
  V   V4        1.0  0.74900  0.23900  0.49800  1.0000
  V   V5        1.0  0.25100  0.76100  0.50200  1.0000
  V   V6        1.0  0.24500  0.41900  0.82800  1.0000
  V   V7        1.0  0.58400  0.41900  0.82800  1.0000
