data_image0
_chemical_formula_structural       H36P4Si12
_chemical_formula_sum              "H36 P4 Si12"
_cell_length_a       5.76306
_cell_length_b       12.2447
_cell_length_c       9.15443
_cell_angle_alpha    90
_cell_angle_beta     93.0454
_cell_angle_gamma    90

_space_group_name_H-M_alt    "P 1"
_space_group_IT_number       1

loop_
  _space_group_symop_operation_xyz
  'x, y, z'

loop_
  _atom_site_type_symbol
  _atom_site_label
  _atom_site_symmetry_multiplicity
  _atom_site_fract_x
  _atom_site_fract_y
  _atom_site_fract_z
  _atom_site_occupancy
  H   H1        1.0  0.85300  0.82500  0.00398  1.0000
  H   H2        1.0  0.46000  0.77000  0.06270  1.0000
  H   H3        1.0  0.80600  0.48200  0.07120  1.0000
  H   H4        1.0  0.86500  0.05110  0.08060  1.0000
  H   H5        1.0  0.81000  0.28200  0.08840  1.0000
  H   H6        1.0  0.45600  0.05980  0.13500  1.0000
  H   H7        1.0  0.79800  0.66900  0.16600  1.0000
  H   H8        1.0  0.20700  0.89300  0.19100  1.0000
  H   H9        1.0  0.24900  0.63500  0.19300  1.0000
  H   H10       1.0  0.75100  0.13500  0.30700  1.0000
  H   H11       1.0  0.79300  0.39300  0.30900  1.0000
  H   H12       1.0  0.20200  0.16900  0.33400  1.0000
  H   H13       1.0  0.54400  0.56000  0.36500  1.0000
  H   H14       1.0  0.19000  0.78200  0.41200  1.0000
  H   H15       1.0  0.13500  0.55100  0.41900  1.0000
  H   H16       1.0  0.19400  0.98200  0.42900  1.0000
  H   H17       1.0  0.54000  0.27000  0.43700  1.0000
  H   H18       1.0  0.14700  0.32500  0.49600  1.0000
  H   H19       1.0  0.85300  0.67500  0.50400  1.0000
  H   H20       1.0  0.46000  0.73000  0.56300  1.0000
  H   H21       1.0  0.80600  0.01830  0.57100  1.0000
  H   H22       1.0  0.86500  0.44900  0.58100  1.0000
  H   H23       1.0  0.81000  0.21800  0.58800  1.0000
  H   H24       1.0  0.45600  0.44000  0.63500  1.0000
  H   H25       1.0  0.79800  0.83100  0.66600  1.0000
  H   H26       1.0  0.20700  0.60700  0.69100  1.0000
  H   H27       1.0  0.24900  0.86500  0.69300  1.0000
  H   H28       1.0  0.75100  0.36500  0.80700  1.0000
  H   H29       1.0  0.79300  0.10700  0.80900  1.0000
  H   H30       1.0  0.20200  0.33100  0.83400  1.0000
  H   H31       1.0  0.54400  0.94000  0.86500  1.0000
  H   H32       1.0  0.19000  0.71800  0.91200  1.0000
  H   H33       1.0  0.13500  0.94900  0.91900  1.0000
  H   H34       1.0  0.19400  0.51800  0.92900  1.0000
  H   H35       1.0  0.54000  0.23000  0.93700  1.0000
  H   H36       1.0  0.14700  0.17500  0.99600  1.0000
  P   P1        1.0  0.28000  0.38500  0.18000  1.0000
  P   P2        1.0  0.72000  0.88500  0.32000  1.0000
  P   P3        1.0  0.28000  0.11500  0.68000  1.0000
  P   P4        1.0  0.72000  0.61500  0.82000  1.0000
  Si  Si1       1.0  0.70700  0.77800  0.11900  1.0000
  Si  Si2       1.0  0.88800  0.38600  0.16100  1.0000
  Si  Si3       1.0  0.69800  0.04530  0.20000  1.0000
  Si  Si4       1.0  0.30200  0.54500  0.30000  1.0000
  Si  Si5       1.0  0.11200  0.88600  0.33900  1.0000
  Si  Si6       1.0  0.29300  0.27800  0.38100  1.0000
  Si  Si7       1.0  0.70700  0.72200  0.61900  1.0000
  Si  Si8       1.0  0.88800  0.11400  0.66100  1.0000
  Si  Si9       1.0  0.69800  0.45500  0.70000  1.0000
  Si  Si10      1.0  0.30200  0.95500  0.80000  1.0000
  Si  Si11      1.0  0.11200  0.61400  0.83900  1.0000
  Si  Si12      1.0  0.29300  0.22200  0.88100  1.0000
