data_image0
_chemical_formula_structural       Se24Sn8Tl16
_chemical_formula_sum              "Se24 Sn8 Tl16"
_cell_length_a       8.12393
_cell_length_b       8.27689
_cell_length_c       21.4735
_cell_angle_alpha    90
_cell_angle_beta     90
_cell_angle_gamma    90

_space_group_name_H-M_alt    "P 1"
_space_group_IT_number       1

loop_
  _space_group_symop_operation_xyz
  'x, y, z'

loop_
  _atom_site_type_symbol
  _atom_site_label
  _atom_site_symmetry_multiplicity
  _atom_site_fract_x
  _atom_site_fract_y
  _atom_site_fract_z
  _atom_site_occupancy
  Se  Se1       1.0  0.49100  0.66900  0.09140  1.0000
  Se  Se2       1.0  0.99100  0.83100  0.09140  1.0000
  Se  Se3       1.0  0.62400  0.18600  0.10600  1.0000
  Se  Se4       1.0  0.12400  0.31400  0.10600  1.0000
  Se  Se5       1.0  0.99500  0.17000  0.25000  1.0000
  Se  Se6       1.0  0.49500  0.33000  0.25000  1.0000
  Se  Se7       1.0  0.16600  0.66100  0.25000  1.0000
  Se  Se8       1.0  0.66600  0.83900  0.25000  1.0000
  Se  Se9       1.0  0.62400  0.18600  0.39400  1.0000
  Se  Se10      1.0  0.12400  0.31400  0.39400  1.0000
  Se  Se11      1.0  0.49100  0.66900  0.40900  1.0000
  Se  Se12      1.0  0.99100  0.83100  0.40900  1.0000
  Se  Se13      1.0  0.00887  0.16900  0.59100  1.0000
  Se  Se14      1.0  0.50900  0.33100  0.59100  1.0000
  Se  Se15      1.0  0.87600  0.68600  0.60600  1.0000
  Se  Se16      1.0  0.37600  0.81400  0.60600  1.0000
  Se  Se17      1.0  0.33400  0.16100  0.75000  1.0000
  Se  Se18      1.0  0.83400  0.33900  0.75000  1.0000
  Se  Se19      1.0  0.50500  0.67000  0.75000  1.0000
  Se  Se20      1.0  0.00458  0.83000  0.75000  1.0000
  Se  Se21      1.0  0.87600  0.68600  0.89400  1.0000
  Se  Se22      1.0  0.37600  0.81400  0.89400  1.0000
  Se  Se23      1.0  0.00887  0.16900  0.90900  1.0000
  Se  Se24      1.0  0.50900  0.33100  0.90900  1.0000
  Sn  Sn1       1.0  0.82600  0.01120  0.16600  1.0000
  Sn  Sn2       1.0  0.32600  0.48900  0.16600  1.0000
  Sn  Sn3       1.0  0.82600  0.01120  0.33400  1.0000
  Sn  Sn4       1.0  0.32600  0.48900  0.33400  1.0000
  Sn  Sn5       1.0  0.67400  0.51100  0.66600  1.0000
  Sn  Sn6       1.0  0.17400  0.98900  0.66600  1.0000
  Sn  Sn7       1.0  0.67400  0.51100  0.83400  1.0000
  Sn  Sn8       1.0  0.17400  0.98900  0.83400  1.0000
  Tl  Tl1       1.0  0.26800  0.05010  0.00657  1.0000
  Tl  Tl2       1.0  0.76800  0.45000  0.00657  1.0000
  Tl  Tl3       1.0  0.82500  0.51500  0.16800  1.0000
  Tl  Tl4       1.0  0.32500  0.98500  0.16800  1.0000
  Tl  Tl5       1.0  0.82500  0.51500  0.33200  1.0000
  Tl  Tl6       1.0  0.32500  0.98500  0.33200  1.0000
  Tl  Tl7       1.0  0.26800  0.05010  0.49300  1.0000
  Tl  Tl8       1.0  0.76800  0.45000  0.49300  1.0000
  Tl  Tl9       1.0  0.23200  0.55000  0.50700  1.0000
  Tl  Tl10      1.0  0.73200  0.95000  0.50700  1.0000
  Tl  Tl11      1.0  0.67500  0.01530  0.66800  1.0000
  Tl  Tl12      1.0  0.17500  0.48500  0.66800  1.0000
  Tl  Tl13      1.0  0.67500  0.01530  0.83200  1.0000
  Tl  Tl14      1.0  0.17500  0.48500  0.83200  1.0000
  Tl  Tl15      1.0  0.23200  0.55000  0.99300  1.0000
  Tl  Tl16      1.0  0.73200  0.95000  0.99300  1.0000
