data_image0
_chemical_formula_structural       Al39Ru12
_chemical_formula_sum              "Al39 Ru12"
_cell_length_a       8.22265
_cell_length_b       8.97166
_cell_length_c       12.8008
_cell_angle_alpha    105.74
_cell_angle_beta     90
_cell_angle_gamma    117.275

_space_group_name_H-M_alt    "P 1"
_space_group_IT_number       1

loop_
  _space_group_symop_operation_xyz
  'x, y, z'

loop_
  _atom_site_type_symbol
  _atom_site_label
  _atom_site_symmetry_multiplicity
  _atom_site_fract_x
  _atom_site_fract_y
  _atom_site_fract_z
  _atom_site_occupancy
  Al  Al1       1.0  0.25100  0.00000  0.00000  1.0000
  Al  Al2       1.0  0.74900  0.00000  0.00000  1.0000
  Al  Al3       1.0  0.76100  0.52100  0.04360  1.0000
  Al  Al4       1.0  0.15100  0.73500  0.10900  1.0000
  Al  Al5       1.0  0.58300  0.73500  0.10900  1.0000
  Al  Al6       1.0  0.40600  0.37200  0.11000  1.0000
  Al  Al7       1.0  0.96600  0.37200  0.11000  1.0000
  Al  Al8       1.0  0.51900  0.03740  0.17100  1.0000
  Al  Al9       1.0  0.06760  0.13500  0.17500  1.0000
  Al  Al10      1.0  0.91800  0.83600  0.21400  1.0000
  Al  Al11      1.0  0.69000  0.38000  0.22700  1.0000
  Al  Al12      1.0  0.32200  0.64400  0.28300  1.0000
  Al  Al13      1.0  0.25800  0.98100  0.33000  1.0000
  Al  Al14      1.0  0.72300  0.98100  0.33000  1.0000
  Al  Al15      1.0  0.40100  0.35700  0.33500  1.0000
  Al  Al16      1.0  0.95700  0.35700  0.33500  1.0000
  Al  Al17      1.0  0.92800  0.85600  0.42000  1.0000
  Al  Al18      1.0  0.76400  0.52800  0.46200  1.0000
  Al  Al19      1.0  0.14100  0.72800  0.48000  1.0000
  Al  Al20      1.0  0.58700  0.72800  0.48000  1.0000
  Al  Al21      1.0  0.50000  0.00000  0.50000  1.0000
  Al  Al22      1.0  0.41300  0.27200  0.52000  1.0000
  Al  Al23      1.0  0.85900  0.27200  0.52000  1.0000
  Al  Al24      1.0  0.23600  0.47200  0.53800  1.0000
  Al  Al25      1.0  0.07220  0.14400  0.58000  1.0000
  Al  Al26      1.0  0.04350  0.64300  0.66500  1.0000
  Al  Al27      1.0  0.59900  0.64300  0.66500  1.0000
  Al  Al28      1.0  0.27700  0.01870  0.67000  1.0000
  Al  Al29      1.0  0.74200  0.01870  0.67000  1.0000
  Al  Al30      1.0  0.67800  0.35600  0.71700  1.0000
  Al  Al31      1.0  0.31000  0.62000  0.77300  1.0000
  Al  Al32      1.0  0.08210  0.16400  0.78600  1.0000
  Al  Al33      1.0  0.93200  0.86500  0.82500  1.0000
  Al  Al34      1.0  0.48100  0.96300  0.82900  1.0000
  Al  Al35      1.0  0.03450  0.62800  0.89000  1.0000
  Al  Al36      1.0  0.59400  0.62800  0.89000  1.0000
  Al  Al37      1.0  0.41700  0.26500  0.89100  1.0000
  Al  Al38      1.0  0.84900  0.26500  0.89100  1.0000
  Al  Al39      1.0  0.23900  0.47900  0.95600  1.0000
  Ru  Ru1       1.0  0.90800  0.81600  0.01230  1.0000
  Ru  Ru2       1.0  0.60000  0.19900  0.01540  1.0000
  Ru  Ru3       1.0  0.02290  0.63800  0.27800  1.0000
  Ru  Ru4       1.0  0.61500  0.63800  0.27800  1.0000
  Ru  Ru5       1.0  0.59900  0.19700  0.37600  1.0000
  Ru  Ru6       1.0  0.08520  0.17000  0.38300  1.0000
  Ru  Ru7       1.0  0.91500  0.83000  0.61700  1.0000
  Ru  Ru8       1.0  0.40100  0.80300  0.62400  1.0000
  Ru  Ru9       1.0  0.38500  0.36200  0.72200  1.0000
  Ru  Ru10      1.0  0.97700  0.36200  0.72200  1.0000
  Ru  Ru11      1.0  0.40000  0.80100  0.98500  1.0000
  Ru  Ru12      1.0  0.09190  0.18400  0.98800  1.0000
