data_image0
_chemical_formula_structural       Cr4H16Li8O24
_chemical_formula_sum              "Cr4 H16 Li8 O24"
_cell_length_a       5.38027
_cell_length_b       7.64499
_cell_length_c       11.7952
_cell_angle_alpha    90
_cell_angle_beta     90
_cell_angle_gamma    90

_space_group_name_H-M_alt    "P 1"
_space_group_IT_number       1

loop_
  _space_group_symop_operation_xyz
  'x, y, z'

loop_
  _atom_site_type_symbol
  _atom_site_label
  _atom_site_symmetry_multiplicity
  _atom_site_fract_x
  _atom_site_fract_y
  _atom_site_fract_z
  _atom_site_occupancy
  Cr  Cr1       1.0  0.17300  0.11500  0.13400  1.0000
  Cr  Cr2       1.0  0.82700  0.61500  0.36600  1.0000
  Cr  Cr3       1.0  0.32700  0.88500  0.63400  1.0000
  Cr  Cr4       1.0  0.67300  0.38500  0.86600  1.0000
  H   H1        1.0  0.23800  0.51300  0.11300  1.0000
  H   H2        1.0  0.74000  0.95400  0.13000  1.0000
  H   H3        1.0  0.66000  0.78200  0.19000  1.0000
  H   H4        1.0  0.17900  0.67100  0.19200  1.0000
  H   H5        1.0  0.82100  0.17100  0.30800  1.0000
  H   H6        1.0  0.34000  0.28200  0.31000  1.0000
  H   H7        1.0  0.26000  0.45400  0.37000  1.0000
  H   H8        1.0  0.76200  0.01310  0.38700  1.0000
  H   H9        1.0  0.26200  0.48700  0.61300  1.0000
  H   H10       1.0  0.76000  0.04600  0.63000  1.0000
  H   H11       1.0  0.84000  0.21800  0.69000  1.0000
  H   H12       1.0  0.32100  0.32900  0.69200  1.0000
  H   H13       1.0  0.67900  0.82900  0.80800  1.0000
  H   H14       1.0  0.16000  0.71800  0.81000  1.0000
  H   H15       1.0  0.24000  0.54600  0.87000  1.0000
  H   H16       1.0  0.73800  0.98700  0.88700  1.0000
  Li  Li1       1.0  0.42700  0.78700  0.00023  1.0000
  Li  Li2       1.0  0.67800  0.36300  0.12600  1.0000
  Li  Li3       1.0  0.32200  0.86300  0.37400  1.0000
  Li  Li4       1.0  0.57300  0.28700  0.50000  1.0000
  Li  Li5       1.0  0.07340  0.21300  0.50000  1.0000
  Li  Li6       1.0  0.82200  0.63700  0.62600  1.0000
  Li  Li7       1.0  0.17800  0.13700  0.87400  1.0000
  Li  Li8       1.0  0.92700  0.71300  0.00000  1.0000
  O   O1        1.0  0.21900  0.00818  0.01280  1.0000
  O   O2        1.0  0.20400  0.64100  0.11200  1.0000
  O   O3        1.0  0.69900  0.82900  0.11500  1.0000
  O   O4        1.0  0.32700  0.30400  0.13300  1.0000
  O   O5        1.0  0.86900  0.15400  0.15200  1.0000
  O   O6        1.0  0.27200  0.99800  0.24000  1.0000
  O   O7        1.0  0.72800  0.49800  0.26000  1.0000
  O   O8        1.0  0.13100  0.65400  0.34800  1.0000
  O   O9        1.0  0.67300  0.80400  0.36700  1.0000
  O   O10       1.0  0.30100  0.32900  0.38500  1.0000
  O   O11       1.0  0.79600  0.14100  0.38800  1.0000
  O   O12       1.0  0.78100  0.50800  0.48700  1.0000
  O   O13       1.0  0.28100  0.99200  0.51300  1.0000
  O   O14       1.0  0.29600  0.35900  0.61200  1.0000
  O   O15       1.0  0.80100  0.17100  0.61500  1.0000
  O   O16       1.0  0.17300  0.69600  0.63300  1.0000
  O   O17       1.0  0.63100  0.84600  0.65200  1.0000
  O   O18       1.0  0.22800  0.00202  0.74000  1.0000
  O   O19       1.0  0.77200  0.50200  0.76000  1.0000
  O   O20       1.0  0.36900  0.34600  0.84800  1.0000
  O   O21       1.0  0.82700  0.19600  0.86700  1.0000
  O   O22       1.0  0.19900  0.67100  0.88500  1.0000
  O   O23       1.0  0.70400  0.85900  0.88800  1.0000
  O   O24       1.0  0.71900  0.49200  0.98700  1.0000
