data_image0
_chemical_formula_structural       Na10O32W8Y2
_chemical_formula_sum              "Na10 O32 W8 Y2"
_cell_length_a       9.81128
_cell_length_b       9.81128
_cell_length_c       9.81128
_cell_angle_alpha    109.202
_cell_angle_beta     109.202
_cell_angle_gamma    110.012

_space_group_name_H-M_alt    "P 1"
_space_group_IT_number       1

loop_
  _space_group_symop_operation_xyz
  'x, y, z'

loop_
  _atom_site_type_symbol
  _atom_site_label
  _atom_site_symmetry_multiplicity
  _atom_site_fract_x
  _atom_site_fract_y
  _atom_site_fract_z
  _atom_site_occupancy
  Na  Na1       1.0  0.77400  0.11100  0.07540  1.0000
  Na  Na2       1.0  0.69800  0.77400  0.16300  1.0000
  Na  Na3       1.0  0.62500  0.37500  0.25000  1.0000
  Na  Na4       1.0  0.11100  0.53600  0.33700  1.0000
  Na  Na5       1.0  0.53600  0.69800  0.42500  1.0000
  Na  Na6       1.0  0.46400  0.30200  0.57500  1.0000
  Na  Na7       1.0  0.88900  0.46400  0.66300  1.0000
  Na  Na8       1.0  0.37500  0.62500  0.75000  1.0000
  Na  Na9       1.0  0.30200  0.22600  0.83700  1.0000
  Na  Na10      1.0  0.22600  0.88900  0.92500  1.0000
  O   O1        1.0  0.98500  0.13900  0.00946  1.0000
  O   O2        1.0  0.33200  0.19500  0.07300  1.0000
  O   O3        1.0  0.84600  0.65400  0.07460  1.0000
  O   O4        1.0  0.80500  0.37800  0.13700  1.0000
  O   O5        1.0  0.44900  0.66200  0.14800  1.0000
  O   O6        1.0  0.13900  0.62900  0.15400  1.0000
  O   O7        1.0  0.34600  0.92100  0.19200  1.0000
  O   O8        1.0  0.66200  0.01390  0.21300  1.0000
  O   O9        1.0  0.30100  0.44900  0.28700  1.0000
  O   O10       1.0  0.22900  0.15400  0.30800  1.0000
  O   O11       1.0  0.97500  0.98500  0.34600  1.0000
  O   O12       1.0  0.01390  0.30100  0.35200  1.0000
  O   O13       1.0  0.74100  0.66800  0.36300  1.0000
  O   O14       1.0  0.07930  0.77100  0.42500  1.0000
  O   O15       1.0  0.62200  0.25900  0.42700  1.0000
  O   O16       1.0  0.62900  0.97500  0.49100  1.0000
  O   O17       1.0  0.37100  0.02470  0.50900  1.0000
  O   O18       1.0  0.37800  0.74100  0.57300  1.0000
  O   O19       1.0  0.92100  0.22900  0.57500  1.0000
  O   O20       1.0  0.25900  0.33200  0.63700  1.0000
  O   O21       1.0  0.98600  0.69900  0.64800  1.0000
  O   O22       1.0  0.02470  0.01530  0.65400  1.0000
  O   O23       1.0  0.77100  0.84600  0.69200  1.0000
  O   O24       1.0  0.69900  0.55100  0.71300  1.0000
  O   O25       1.0  0.33800  0.98600  0.78700  1.0000
  O   O26       1.0  0.65400  0.07930  0.80800  1.0000
  O   O27       1.0  0.86100  0.37100  0.84600  1.0000
  O   O28       1.0  0.55100  0.33800  0.85200  1.0000
  O   O29       1.0  0.19500  0.62200  0.86300  1.0000
  O   O30       1.0  0.15400  0.34600  0.92500  1.0000
  O   O31       1.0  0.66800  0.80500  0.92700  1.0000
  O   O32       1.0  0.01530  0.86100  0.99100  1.0000
  W   W1        1.0  0.22900  0.56800  0.02500  1.0000
  W   W2        1.0  0.20400  0.22900  0.16100  1.0000
  W   W3        1.0  0.56800  0.04330  0.33900  1.0000
  W   W4        1.0  0.04330  0.20400  0.47500  1.0000
  W   W5        1.0  0.95700  0.79600  0.52500  1.0000
  W   W6        1.0  0.43200  0.95700  0.66100  1.0000
  W   W7        1.0  0.79600  0.77100  0.83900  1.0000
  W   W8        1.0  0.77100  0.43200  0.97500  1.0000
  Y   Y1        1.0  0.12500  0.87500  0.25000  1.0000
  Y   Y2        1.0  0.87500  0.12500  0.75000  1.0000
