data_image0
_chemical_formula_structural       As16Cs24Ga8
_chemical_formula_sum              "As16 Cs24 Ga8"
_cell_length_a       11.5201
_cell_length_b       8.99233
_cell_length_c       19.6921
_cell_angle_alpha    90
_cell_angle_beta     99.418
_cell_angle_gamma    90

_space_group_name_H-M_alt    "P 1"
_space_group_IT_number       1

loop_
  _space_group_symop_operation_xyz
  'x, y, z'

loop_
  _atom_site_type_symbol
  _atom_site_label
  _atom_site_symmetry_multiplicity
  _atom_site_fract_x
  _atom_site_fract_y
  _atom_site_fract_z
  _atom_site_occupancy
  As  As1       1.0  0.50800  0.70400  0.03160  1.0000
  As  As2       1.0  0.04610  0.84400  0.06550  1.0000
  As  As3       1.0  0.10500  0.30100  0.14200  1.0000
  As  As4       1.0  0.60200  0.35600  0.19100  1.0000
  As  As5       1.0  0.39800  0.85600  0.30900  1.0000
  As  As6       1.0  0.89500  0.80100  0.35800  1.0000
  As  As7       1.0  0.95400  0.34400  0.43400  1.0000
  As  As8       1.0  0.49200  0.20400  0.46800  1.0000
  As  As9       1.0  0.50800  0.79600  0.53200  1.0000
  As  As10      1.0  0.04610  0.65600  0.56600  1.0000
  As  As11      1.0  0.10500  0.19900  0.64200  1.0000
  As  As12      1.0  0.60200  0.14400  0.69100  1.0000
  As  As13      1.0  0.39800  0.64400  0.80900  1.0000
  As  As14      1.0  0.89500  0.69900  0.85800  1.0000
  As  As15      1.0  0.95400  0.15600  0.93400  1.0000
  As  As16      1.0  0.49200  0.29600  0.96800  1.0000
  Cs  Cs1       1.0  0.84600  0.53000  0.03180  1.0000
  Cs  Cs2       1.0  0.74200  0.09360  0.07630  1.0000
  Cs  Cs3       1.0  0.37600  0.08040  0.11000  1.0000
  Cs  Cs4       1.0  0.29300  0.62100  0.16000  1.0000
  Cs  Cs5       1.0  0.64000  0.75500  0.20800  1.0000
  Cs  Cs6       1.0  0.07760  0.95100  0.24100  1.0000
  Cs  Cs7       1.0  0.92200  0.45100  0.25900  1.0000
  Cs  Cs8       1.0  0.36000  0.25500  0.29200  1.0000
  Cs  Cs9       1.0  0.70700  0.12100  0.34000  1.0000
  Cs  Cs10      1.0  0.62400  0.58000  0.39000  1.0000
  Cs  Cs11      1.0  0.25800  0.59400  0.42400  1.0000
  Cs  Cs12      1.0  0.15400  0.02990  0.46800  1.0000
  Cs  Cs13      1.0  0.84600  0.97000  0.53200  1.0000
  Cs  Cs14      1.0  0.74200  0.40600  0.57600  1.0000
  Cs  Cs15      1.0  0.37600  0.42000  0.61000  1.0000
  Cs  Cs16      1.0  0.29300  0.87900  0.66000  1.0000
  Cs  Cs17      1.0  0.64000  0.74500  0.70800  1.0000
  Cs  Cs18      1.0  0.07760  0.54900  0.74100  1.0000
  Cs  Cs19      1.0  0.92200  0.04860  0.75900  1.0000
  Cs  Cs20      1.0  0.36000  0.24500  0.79200  1.0000
  Cs  Cs21      1.0  0.70700  0.37900  0.84000  1.0000
  Cs  Cs22      1.0  0.62400  0.92000  0.89000  1.0000
  Cs  Cs23      1.0  0.25800  0.90600  0.92400  1.0000
  Cs  Cs24      1.0  0.15400  0.47000  0.96800  1.0000
  Ga  Ga1       1.0  0.04660  0.11900  0.05630  1.0000
  Ga  Ga2       1.0  0.54000  0.44400  0.07620  1.0000
  Ga  Ga3       1.0  0.46000  0.94400  0.42400  1.0000
  Ga  Ga4       1.0  0.95300  0.61900  0.44400  1.0000
  Ga  Ga5       1.0  0.04660  0.38100  0.55600  1.0000
  Ga  Ga6       1.0  0.54000  0.05590  0.57600  1.0000
  Ga  Ga7       1.0  0.46000  0.55600  0.92400  1.0000
  Ga  Ga8       1.0  0.95300  0.88100  0.94400  1.0000
