data_image0
_chemical_formula_structural       H16Mn4N8O16S4
_chemical_formula_sum              "H16 Mn4 N8 O16 S4"
_cell_length_a       6.28507
_cell_length_b       7.78283
_cell_length_c       8.96474
_cell_angle_alpha    90
_cell_angle_beta     90
_cell_angle_gamma    90

_space_group_name_H-M_alt    "P 1"
_space_group_IT_number       1

loop_
  _space_group_symop_operation_xyz
  'x, y, z'

loop_
  _atom_site_type_symbol
  _atom_site_label
  _atom_site_symmetry_multiplicity
  _atom_site_fract_x
  _atom_site_fract_y
  _atom_site_fract_z
  _atom_site_occupancy
  H   H1        1.0  0.39700  0.13900  0.01110  1.0000
  H   H2        1.0  0.10300  0.36100  0.01110  1.0000
  H   H3        1.0  0.31800  0.12400  0.18600  1.0000
  H   H4        1.0  0.18200  0.37600  0.18600  1.0000
  H   H5        1.0  0.68200  0.62400  0.31400  1.0000
  H   H6        1.0  0.81800  0.87600  0.31400  1.0000
  H   H7        1.0  0.60300  0.63900  0.48900  1.0000
  H   H8        1.0  0.89700  0.86100  0.48900  1.0000
  H   H9        1.0  0.10300  0.13900  0.51100  1.0000
  H   H10       1.0  0.39700  0.36100  0.51100  1.0000
  H   H11       1.0  0.18200  0.12400  0.68600  1.0000
  H   H12       1.0  0.31800  0.37600  0.68600  1.0000
  H   H13       1.0  0.81800  0.62400  0.81400  1.0000
  H   H14       1.0  0.68200  0.87600  0.81400  1.0000
  H   H15       1.0  0.89700  0.63900  0.98900  1.0000
  H   H16       1.0  0.60300  0.86100  0.98900  1.0000
  Mn  Mn1       1.0  0.00000  0.00000  0.00000  1.0000
  Mn  Mn2       1.0  0.50000  0.50000  0.00000  1.0000
  Mn  Mn3       1.0  0.50000  0.00000  0.50000  1.0000
  Mn  Mn4       1.0  0.00000  0.50000  0.50000  1.0000
  N   N1        1.0  0.26900  0.15800  0.08060  1.0000
  N   N2        1.0  0.23100  0.34200  0.08060  1.0000
  N   N3        1.0  0.73100  0.65800  0.41900  1.0000
  N   N4        1.0  0.76900  0.84200  0.41900  1.0000
  N   N5        1.0  0.23100  0.15800  0.58100  1.0000
  N   N6        1.0  0.26900  0.34200  0.58100  1.0000
  N   N7        1.0  0.76900  0.65800  0.91900  1.0000
  N   N8        1.0  0.73100  0.84200  0.91900  1.0000
  O   O1        1.0  0.44200  0.72700  0.14500  1.0000
  O   O2        1.0  0.05770  0.77300  0.14500  1.0000
  O   O3        1.0  0.77600  0.09430  0.16600  1.0000
  O   O4        1.0  0.72400  0.40600  0.16600  1.0000
  O   O5        1.0  0.22400  0.59400  0.33400  1.0000
  O   O6        1.0  0.27600  0.90600  0.33400  1.0000
  O   O7        1.0  0.55800  0.22700  0.35500  1.0000
  O   O8        1.0  0.94200  0.27300  0.35500  1.0000
  O   O9        1.0  0.05770  0.72700  0.64500  1.0000
  O   O10       1.0  0.44200  0.77300  0.64500  1.0000
  O   O11       1.0  0.72400  0.09430  0.66600  1.0000
  O   O12       1.0  0.77600  0.40600  0.66600  1.0000
  O   O13       1.0  0.27600  0.59400  0.83400  1.0000
  O   O14       1.0  0.22400  0.90600  0.83400  1.0000
  O   O15       1.0  0.94200  0.22700  0.85500  1.0000
  O   O16       1.0  0.55800  0.27300  0.85500  1.0000
  S   S1        1.0  0.25000  0.75000  0.24000  1.0000
  S   S2        1.0  0.75000  0.25000  0.26000  1.0000
  S   S3        1.0  0.25000  0.75000  0.74000  1.0000
  S   S4        1.0  0.75000  0.25000  0.76000  1.0000
