data_image0
_chemical_formula_structural       B6Ba6F10O18Sr8
_chemical_formula_sum              "B6 Ba6 F10 O18 Sr8"
_cell_length_a       10.7075
_cell_length_b       10.7069
_cell_length_c       6.9677
_cell_angle_alpha    90.0009
_cell_angle_beta     89.9995
_cell_angle_gamma    120

_space_group_name_H-M_alt    "P 1"
_space_group_IT_number       1

loop_
  _space_group_symop_operation_xyz
  'x, y, z'

loop_
  _atom_site_type_symbol
  _atom_site_label
  _atom_site_symmetry_multiplicity
  _atom_site_fract_x
  _atom_site_fract_y
  _atom_site_fract_z
  _atom_site_occupancy
  B   B1        1.0  0.37600  0.18800  0.05660  1.0000
  B   B2        1.0  0.81200  0.18800  0.05660  1.0000
  B   B3        1.0  0.81200  0.62400  0.05660  1.0000
  B   B4        1.0  0.62400  0.81200  0.55700  1.0000
  B   B5        1.0  0.18800  0.37600  0.55700  1.0000
  B   B6        1.0  0.18800  0.81200  0.55700  1.0000
  Ba  Ba1       1.0  0.27700  0.13800  0.49200  1.0000
  Ba  Ba2       1.0  0.86200  0.72300  0.49200  1.0000
  Ba  Ba3       1.0  0.86200  0.13800  0.49200  1.0000
  Ba  Ba4       1.0  0.72300  0.86200  0.99200  1.0000
  Ba  Ba5       1.0  0.13800  0.86200  0.99200  1.0000
  Ba  Ba6       1.0  0.13800  0.27700  0.99200  1.0000
  F   F1        1.0  0.42200  0.57800  0.01280  1.0000
  F   F2        1.0  0.42200  0.84400  0.01280  1.0000
  F   F3        1.0  0.15600  0.57800  0.01280  1.0000
  F   F4        1.0  0.00000  0.00000  0.13400  1.0000
  F   F5        1.0  0.33300  0.66700  0.41200  1.0000
  F   F6        1.0  0.57800  0.42200  0.51300  1.0000
  F   F7        1.0  0.84400  0.42200  0.51300  1.0000
  F   F8        1.0  0.57800  0.15600  0.51300  1.0000
  F   F9        1.0  0.00000  0.00000  0.63400  1.0000
  F   F10       1.0  0.66700  0.33300  0.91200  1.0000
  O   O1        1.0  0.40200  0.31200  0.15100  1.0000
  O   O2        1.0  0.91000  0.31200  0.15100  1.0000
  O   O3        1.0  0.40200  0.08990  0.15100  1.0000
  O   O4        1.0  0.91000  0.59800  0.15100  1.0000
  O   O5        1.0  0.68800  0.59800  0.15100  1.0000
  O   O6        1.0  0.68800  0.08990  0.15100  1.0000
  O   O7        1.0  0.16300  0.32500  0.37000  1.0000
  O   O8        1.0  0.16300  0.83700  0.37000  1.0000
  O   O9        1.0  0.67500  0.83700  0.37000  1.0000
  O   O10       1.0  0.59800  0.68800  0.65100  1.0000
  O   O11       1.0  0.59800  0.91000  0.65100  1.0000
  O   O12       1.0  0.09000  0.68800  0.65100  1.0000
  O   O13       1.0  0.31200  0.91000  0.65100  1.0000
  O   O14       1.0  0.08990  0.40200  0.65100  1.0000
  O   O15       1.0  0.31200  0.40200  0.65100  1.0000
  O   O16       1.0  0.83700  0.67500  0.87000  1.0000
  O   O17       1.0  0.83700  0.16300  0.87000  1.0000
  O   O18       1.0  0.32500  0.16300  0.87000  1.0000
  Sr  Sr1       1.0  0.66700  0.33300  0.26400  1.0000
  Sr  Sr2       1.0  0.46400  0.53600  0.33700  1.0000
  Sr  Sr3       1.0  0.46400  0.92900  0.33700  1.0000
  Sr  Sr4       1.0  0.07150  0.53600  0.33700  1.0000
  Sr  Sr5       1.0  0.33300  0.66700  0.76400  1.0000
  Sr  Sr6       1.0  0.53600  0.07150  0.83700  1.0000
  Sr  Sr7       1.0  0.53600  0.46400  0.83700  1.0000
  Sr  Sr8       1.0  0.92900  0.46400  0.83700  1.0000
