data_image0
_chemical_formula_structural       O2Pb2Te2Zn2
_chemical_formula_sum              "O2 Pb2 Te2 Zn2"
_cell_length_a       3.08769
_cell_length_b       5.90849
_cell_length_c       8.9928
_cell_angle_alpha    90
_cell_angle_beta     80.1148
_cell_angle_gamma    90

_space_group_name_H-M_alt    "P 1"
_space_group_IT_number       1

loop_
  _space_group_symop_operation_xyz
  'x, y, z'

loop_
  _atom_site_type_symbol
  _atom_site_label
  _atom_site_symmetry_multiplicity
  _atom_site_fract_x
  _atom_site_fract_y
  _atom_site_fract_z
  _atom_site_occupancy
  O   O1        1.0  0.00000  0.00000  0.00000  1.0000
  O   O2        1.0  0.00000  0.50000  0.00000  1.0000
  Pb  Pb1       1.0  0.87300  0.25000  0.25400  1.0000
  Pb  Pb2       1.0  0.12700  0.75000  0.74600  1.0000
  Te  Te1       1.0  0.81300  0.75000  0.37300  1.0000
  Te  Te2       1.0  0.18700  0.25000  0.62700  1.0000
  Zn  Zn1       1.0  0.46600  0.75000  0.06730  1.0000
  Zn  Zn2       1.0  0.53400  0.25000  0.93300  1.0000
