data_image0
_chemical_formula_structural       B6Ga6H36
_chemical_formula_sum              "B6 Ga6 H36"
_cell_length_a       7.9662
_cell_length_b       7.9662
_cell_length_c       9.12629
_cell_angle_alpha    99.0007
_cell_angle_beta     111.384
_cell_angle_gamma    113.769

_space_group_name_H-M_alt    "P 1"
_space_group_IT_number       1

loop_
  _space_group_symop_operation_xyz
  'x, y, z'

loop_
  _atom_site_type_symbol
  _atom_site_label
  _atom_site_symmetry_multiplicity
  _atom_site_fract_x
  _atom_site_fract_y
  _atom_site_fract_z
  _atom_site_occupancy
  B   B1        1.0  0.29500  0.58800  0.01200  1.0000
  B   B2        1.0  0.41300  0.16300  0.25000  1.0000
  B   B3        1.0  0.07600  0.28300  0.48800  1.0000
  B   B4        1.0  0.92400  0.71700  0.51200  1.0000
  B   B5        1.0  0.58700  0.83700  0.75000  1.0000
  B   B6        1.0  0.70500  0.41200  0.98800  1.0000
  Ga  Ga1       1.0  0.52500  0.92500  0.21700  1.0000
  Ga  Ga2       1.0  0.94000  0.69000  0.25000  1.0000
  Ga  Ga3       1.0  0.20800  0.30800  0.28300  1.0000
  Ga  Ga4       1.0  0.79200  0.69200  0.71700  1.0000
  Ga  Ga5       1.0  0.06030  0.31000  0.75000  1.0000
  Ga  Ga6       1.0  0.47500  0.07480  0.78300  1.0000
  H   H1        1.0  0.15800  0.45500  0.02110  1.0000
  H   H2        1.0  0.26000  0.72600  0.03210  1.0000
  H   H3        1.0  0.46500  0.61600  0.10700  1.0000
  H   H4        1.0  0.00163  0.16400  0.12300  1.0000
  H   H5        1.0  0.71100  0.43300  0.12900  1.0000
  H   H6        1.0  0.65400  0.00587  0.12900  1.0000
  H   H7        1.0  0.30800  0.98900  0.15200  1.0000
  H   H8        1.0  0.38800  0.25700  0.15900  1.0000
  H   H9        1.0  0.86700  0.83200  0.19700  1.0000
  H   H10       1.0  0.13500  0.67000  0.30300  1.0000
  H   H11       1.0  0.59800  0.22900  0.34100  1.0000
  H   H12       1.0  0.33700  0.15700  0.34800  1.0000
  H   H13       1.0  0.37700  0.52500  0.37100  1.0000
  H   H14       1.0  0.80400  0.58200  0.37100  1.0000
  H   H15       1.0  0.54100  0.87900  0.37700  1.0000
  H   H16       1.0  0.00942  0.35900  0.39300  1.0000
  H   H17       1.0  0.19400  0.22800  0.46800  1.0000
  H   H18       1.0  0.93400  0.13700  0.47900  1.0000
  H   H19       1.0  0.06570  0.86300  0.52100  1.0000
  H   H20       1.0  0.80600  0.77200  0.53200  1.0000
  H   H21       1.0  0.99100  0.64100  0.60700  1.0000
  H   H22       1.0  0.45900  0.12100  0.62300  1.0000
  H   H23       1.0  0.19600  0.41800  0.62900  1.0000
  H   H24       1.0  0.62300  0.47500  0.62900  1.0000
  H   H25       1.0  0.66300  0.84300  0.65200  1.0000
  H   H26       1.0  0.40200  0.77100  0.65900  1.0000
  H   H27       1.0  0.86500  0.33000  0.69700  1.0000
  H   H28       1.0  0.13300  0.16800  0.80300  1.0000
  H   H29       1.0  0.61200  0.74300  0.84100  1.0000
  H   H30       1.0  0.69200  0.01100  0.84800  1.0000
  H   H31       1.0  0.34600  0.99400  0.87100  1.0000
  H   H32       1.0  0.28900  0.56700  0.87100  1.0000
  H   H33       1.0  0.99800  0.83600  0.87700  1.0000
  H   H34       1.0  0.53500  0.38400  0.89300  1.0000
  H   H35       1.0  0.74000  0.27400  0.96800  1.0000
  H   H36       1.0  0.84200  0.54500  0.97900  1.0000
