data_image0
_chemical_formula_structural       Cu4Ga12K8Se24
_chemical_formula_sum              "Cu4 Ga12 K8 Se24"
_cell_length_a       7.88186
_cell_length_b       7.88186
_cell_length_c       21.0784
_cell_angle_alpha    95.3378
_cell_angle_beta     95.3378
_cell_angle_gamma    90.173

_space_group_name_H-M_alt    "P 1"
_space_group_IT_number       1

loop_
  _space_group_symop_operation_xyz
  'x, y, z'

loop_
  _atom_site_type_symbol
  _atom_site_label
  _atom_site_symmetry_multiplicity
  _atom_site_fract_x
  _atom_site_fract_y
  _atom_site_fract_z
  _atom_site_occupancy
  Cu  Cu1       1.0  0.93700  0.56200  0.25000  1.0000
  Cu  Cu2       1.0  0.43800  0.06320  0.25000  1.0000
  Cu  Cu3       1.0  0.56200  0.93700  0.75000  1.0000
  Cu  Cu4       1.0  0.06320  0.43800  0.75000  1.0000
  Ga  Ga1       1.0  0.65500  0.28000  0.11900  1.0000
  Ga  Ga2       1.0  0.15500  0.28000  0.12000  1.0000
  Ga  Ga3       1.0  0.93200  0.06810  0.25000  1.0000
  Ga  Ga4       1.0  0.44300  0.55700  0.25000  1.0000
  Ga  Ga5       1.0  0.72000  0.84500  0.38000  1.0000
  Ga  Ga6       1.0  0.72000  0.34500  0.38100  1.0000
  Ga  Ga7       1.0  0.28000  0.65500  0.61900  1.0000
  Ga  Ga8       1.0  0.28000  0.15500  0.62000  1.0000
  Ga  Ga9       1.0  0.55700  0.44300  0.75000  1.0000
  Ga  Ga10      1.0  0.06810  0.93200  0.75000  1.0000
  Ga  Ga11      1.0  0.84500  0.72000  0.88000  1.0000
  Ga  Ga12      1.0  0.34500  0.72000  0.88100  1.0000
  K   K1        1.0  0.39400  0.77500  0.08030  1.0000
  K   K2        1.0  0.89600  0.76900  0.08060  1.0000
  K   K3        1.0  0.23100  0.10400  0.41900  1.0000
  K   K4        1.0  0.22500  0.60600  0.42000  1.0000
  K   K5        1.0  0.77500  0.39400  0.58000  1.0000
  K   K6        1.0  0.76900  0.89600  0.58100  1.0000
  K   K7        1.0  0.10400  0.23100  0.91900  1.0000
  K   K8        1.0  0.60600  0.22500  0.92000  1.0000
  Se  Se1       1.0  0.38600  0.23900  0.04940  1.0000
  Se  Se2       1.0  0.88800  0.28600  0.04950  1.0000
  Se  Se3       1.0  0.67200  0.55800  0.18000  1.0000
  Se  Se4       1.0  0.66700  0.03280  0.18000  1.0000
  Se  Se5       1.0  0.17300  0.55800  0.18200  1.0000
  Se  Se6       1.0  0.16800  0.03420  0.18200  1.0000
  Se  Se7       1.0  0.96600  0.83200  0.31800  1.0000
  Se  Se8       1.0  0.44200  0.82700  0.31800  1.0000
  Se  Se9       1.0  0.96700  0.33300  0.32000  1.0000
  Se  Se10      1.0  0.44200  0.32800  0.32000  1.0000
  Se  Se11      1.0  0.71400  0.11200  0.45100  1.0000
  Se  Se12      1.0  0.76100  0.61400  0.45100  1.0000
  Se  Se13      1.0  0.23900  0.38600  0.54900  1.0000
  Se  Se14      1.0  0.28600  0.88800  0.54900  1.0000
  Se  Se15      1.0  0.55800  0.67200  0.68000  1.0000
  Se  Se16      1.0  0.03280  0.66700  0.68000  1.0000
  Se  Se17      1.0  0.55800  0.17300  0.68200  1.0000
  Se  Se18      1.0  0.03420  0.16800  0.68200  1.0000
  Se  Se19      1.0  0.83200  0.96600  0.81800  1.0000
  Se  Se20      1.0  0.82700  0.44200  0.81800  1.0000
  Se  Se21      1.0  0.33300  0.96700  0.82000  1.0000
  Se  Se22      1.0  0.32800  0.44200  0.82000  1.0000
  Se  Se23      1.0  0.11200  0.71400  0.95100  1.0000
  Se  Se24      1.0  0.61400  0.76100  0.95100  1.0000
