data_image0
_chemical_formula_structural       Cr20O30Sr2
_chemical_formula_sum              "Cr20 O30 Sr2"
_cell_length_a       7.74982
_cell_length_b       7.74982
_cell_length_c       9.44151
_cell_angle_alpha    90
_cell_angle_beta     90
_cell_angle_gamma    83.8627

_space_group_name_H-M_alt    "P 1"
_space_group_IT_number       1

loop_
  _space_group_symop_operation_xyz
  'x, y, z'

loop_
  _atom_site_type_symbol
  _atom_site_label
  _atom_site_symmetry_multiplicity
  _atom_site_fract_x
  _atom_site_fract_y
  _atom_site_fract_z
  _atom_site_occupancy
  Cr  Cr1       1.0  0.08100  0.40600  0.11400  1.0000
  Cr  Cr2       1.0  0.59400  0.91900  0.11400  1.0000
  Cr  Cr3       1.0  0.31400  0.68600  0.13500  1.0000
  Cr  Cr4       1.0  0.45600  0.29000  0.14500  1.0000
  Cr  Cr5       1.0  0.71000  0.54400  0.14500  1.0000
  Cr  Cr6       1.0  0.21000  0.04420  0.35500  1.0000
  Cr  Cr7       1.0  0.95600  0.79000  0.35500  1.0000
  Cr  Cr8       1.0  0.81400  0.18600  0.36500  1.0000
  Cr  Cr9       1.0  0.09370  0.41900  0.38600  1.0000
  Cr  Cr10      1.0  0.58100  0.90600  0.38600  1.0000
  Cr  Cr11      1.0  0.41900  0.09370  0.61400  1.0000
  Cr  Cr12      1.0  0.90600  0.58100  0.61400  1.0000
  Cr  Cr13      1.0  0.18600  0.81400  0.63500  1.0000
  Cr  Cr14      1.0  0.04420  0.21000  0.64500  1.0000
  Cr  Cr15      1.0  0.79000  0.95600  0.64500  1.0000
  Cr  Cr16      1.0  0.29000  0.45600  0.85500  1.0000
  Cr  Cr17      1.0  0.54400  0.71000  0.85500  1.0000
  Cr  Cr18      1.0  0.68600  0.31400  0.86500  1.0000
  Cr  Cr19      1.0  0.40600  0.08100  0.88600  1.0000
  Cr  Cr20      1.0  0.91900  0.59400  0.88600  1.0000
  O   O1        1.0  0.25300  0.25300  0.00000  1.0000
  O   O2        1.0  0.50000  0.50000  0.00000  1.0000
  O   O3        1.0  0.74700  0.74700  0.00000  1.0000
  O   O4        1.0  0.60600  0.13700  0.00674  1.0000
  O   O5        1.0  0.86300  0.39400  0.00674  1.0000
  O   O6        1.0  0.13900  0.86100  0.23000  1.0000
  O   O7        1.0  0.27800  0.46200  0.24300  1.0000
  O   O8        1.0  0.53800  0.72200  0.24300  1.0000
  O   O9        1.0  0.43400  0.06570  0.25000  1.0000
  O   O10       1.0  0.93400  0.56600  0.25000  1.0000
  O   O11       1.0  0.03840  0.22200  0.25700  1.0000
  O   O12       1.0  0.77800  0.96200  0.25700  1.0000
  O   O13       1.0  0.63900  0.36100  0.27000  1.0000
  O   O14       1.0  0.10600  0.63700  0.49300  1.0000
  O   O15       1.0  0.36300  0.89400  0.49300  1.0000
  O   O16       1.0  0.00000  0.00000  0.50000  1.0000
  O   O17       1.0  0.24700  0.24700  0.50000  1.0000
  O   O18       1.0  0.75300  0.75300  0.50000  1.0000
  O   O19       1.0  0.63700  0.10600  0.50700  1.0000
  O   O20       1.0  0.89400  0.36300  0.50700  1.0000
  O   O21       1.0  0.36100  0.63900  0.73000  1.0000
  O   O22       1.0  0.22200  0.03840  0.74300  1.0000
  O   O23       1.0  0.96200  0.77800  0.74300  1.0000
  O   O24       1.0  0.06570  0.43400  0.75000  1.0000
  O   O25       1.0  0.56600  0.93400  0.75000  1.0000
  O   O26       1.0  0.46200  0.27800  0.75700  1.0000
  O   O27       1.0  0.72200  0.53800  0.75700  1.0000
  O   O28       1.0  0.86100  0.13900  0.77000  1.0000
  O   O29       1.0  0.13700  0.60600  0.99300  1.0000
  O   O30       1.0  0.39400  0.86300  0.99300  1.0000
  Sr  Sr1       1.0  0.00000  0.00000  0.00000  1.0000
  Sr  Sr2       1.0  0.50000  0.50000  0.50000  1.0000
