data_image0
_chemical_formula_structural       B8O32Si8Sr4
_chemical_formula_sum              "B8 O32 Si8 Sr4"
_cell_length_a       8.08895
_cell_length_b       7.91227
_cell_length_c       8.9107
_cell_angle_alpha    90
_cell_angle_beta     90
_cell_angle_gamma    90

_space_group_name_H-M_alt    "P 1"
_space_group_IT_number       1

loop_
  _space_group_symop_operation_xyz
  'x, y, z'

loop_
  _atom_site_type_symbol
  _atom_site_label
  _atom_site_symmetry_multiplicity
  _atom_site_fract_x
  _atom_site_fract_y
  _atom_site_fract_z
  _atom_site_occupancy
  B   B1        1.0  0.73900  0.08220  0.08280  1.0000
  B   B2        1.0  0.73900  0.41800  0.08280  1.0000
  B   B3        1.0  0.23900  0.08220  0.41700  1.0000
  B   B4        1.0  0.23900  0.41800  0.41700  1.0000
  B   B5        1.0  0.76100  0.58200  0.58300  1.0000
  B   B6        1.0  0.76100  0.91800  0.58300  1.0000
  B   B7        1.0  0.26100  0.58200  0.91700  1.0000
  B   B8        1.0  0.26100  0.91800  0.91700  1.0000
  O   O1        1.0  0.29800  0.51800  0.06980  1.0000
  O   O2        1.0  0.29800  0.98200  0.06980  1.0000
  O   O3        1.0  0.81100  0.25000  0.08570  1.0000
  O   O4        1.0  0.86900  0.53800  0.13800  1.0000
  O   O5        1.0  0.86900  0.96200  0.13800  1.0000
  O   O6        1.0  0.51500  0.75000  0.17000  1.0000
  O   O7        1.0  0.59200  0.07600  0.17800  1.0000
  O   O8        1.0  0.59200  0.42400  0.17800  1.0000
  O   O9        1.0  0.09200  0.07600  0.32200  1.0000
  O   O10       1.0  0.09200  0.42400  0.32200  1.0000
  O   O11       1.0  0.01520  0.75000  0.33000  1.0000
  O   O12       1.0  0.36900  0.53800  0.36200  1.0000
  O   O13       1.0  0.36900  0.96200  0.36200  1.0000
  O   O14       1.0  0.31100  0.25000  0.41400  1.0000
  O   O15       1.0  0.79800  0.51800  0.43000  1.0000
  O   O16       1.0  0.79800  0.98200  0.43000  1.0000
  O   O17       1.0  0.20200  0.01780  0.57000  1.0000
  O   O18       1.0  0.20200  0.48200  0.57000  1.0000
  O   O19       1.0  0.68900  0.75000  0.58600  1.0000
  O   O20       1.0  0.63100  0.03850  0.63800  1.0000
  O   O21       1.0  0.63100  0.46200  0.63800  1.0000
  O   O22       1.0  0.98500  0.25000  0.67000  1.0000
  O   O23       1.0  0.90800  0.57600  0.67800  1.0000
  O   O24       1.0  0.90800  0.92400  0.67800  1.0000
  O   O25       1.0  0.40800  0.57600  0.82200  1.0000
  O   O26       1.0  0.40800  0.92400  0.82200  1.0000
  O   O27       1.0  0.48500  0.25000  0.83000  1.0000
  O   O28       1.0  0.13100  0.03850  0.86200  1.0000
  O   O29       1.0  0.13100  0.46200  0.86200  1.0000
  O   O30       1.0  0.18900  0.75000  0.91400  1.0000
  O   O31       1.0  0.70200  0.01780  0.93000  1.0000
  O   O32       1.0  0.70200  0.48200  0.93000  1.0000
  Si  Si1       1.0  0.44200  0.55900  0.19200  1.0000
  Si  Si2       1.0  0.44200  0.94100  0.19200  1.0000
  Si  Si3       1.0  0.94200  0.55900  0.30800  1.0000
  Si  Si4       1.0  0.94200  0.94100  0.30800  1.0000
  Si  Si5       1.0  0.05800  0.05940  0.69200  1.0000
  Si  Si6       1.0  0.05800  0.44100  0.69200  1.0000
  Si  Si7       1.0  0.55800  0.05940  0.80800  1.0000
  Si  Si8       1.0  0.55800  0.44100  0.80800  1.0000
  Sr  Sr1       1.0  0.11800  0.25000  0.07890  1.0000
  Sr  Sr2       1.0  0.61800  0.25000  0.42100  1.0000
  Sr  Sr3       1.0  0.38200  0.75000  0.57900  1.0000
  Sr  Sr4       1.0  0.88200  0.75000  0.92100  1.0000
