data_image0
_chemical_formula_structural       K4Na4O28P8Zn4
_chemical_formula_sum              "K4 Na4 O28 P8 Zn4"
_cell_length_a       12.405
_cell_length_b       7.20033
_cell_length_c       7.40671
_cell_angle_alpha    90
_cell_angle_beta     88.7599
_cell_angle_gamma    90

_space_group_name_H-M_alt    "P 1"
_space_group_IT_number       1

loop_
  _space_group_symop_operation_xyz
  'x, y, z'

loop_
  _atom_site_type_symbol
  _atom_site_label
  _atom_site_symmetry_multiplicity
  _atom_site_fract_x
  _atom_site_fract_y
  _atom_site_fract_z
  _atom_site_occupancy
  K   K1        1.0  0.90100  0.29300  0.09510  1.0000
  K   K2        1.0  0.59900  0.79300  0.40500  1.0000
  K   K3        1.0  0.40100  0.20700  0.59500  1.0000
  K   K4        1.0  0.09950  0.70700  0.90500  1.0000
  Na  Na1       1.0  0.38800  0.97500  0.13000  1.0000
  Na  Na2       1.0  0.11200  0.47500  0.37000  1.0000
  Na  Na3       1.0  0.88800  0.52500  0.63000  1.0000
  Na  Na4       1.0  0.61200  0.02490  0.87000  1.0000
  O   O1        1.0  0.34400  0.68500  0.01660  1.0000
  O   O2        1.0  0.32500  0.26200  0.05810  1.0000
  O   O3        1.0  0.18400  0.01670  0.08320  1.0000
  O   O4        1.0  0.12500  0.36000  0.08420  1.0000
  O   O5        1.0  0.55200  0.09640  0.18600  1.0000
  O   O6        1.0  0.79200  0.79200  0.19900  1.0000
  O   O7        1.0  0.53300  0.45100  0.23300  1.0000
  O   O8        1.0  0.96700  0.95100  0.26700  1.0000
  O   O9        1.0  0.70800  0.29200  0.30100  1.0000
  O   O10       1.0  0.94800  0.59600  0.31400  1.0000
  O   O11       1.0  0.37500  0.86000  0.41600  1.0000
  O   O12       1.0  0.31600  0.51700  0.41700  1.0000
  O   O13       1.0  0.17500  0.76200  0.44200  1.0000
  O   O14       1.0  0.15600  0.18500  0.48300  1.0000
  O   O15       1.0  0.84400  0.81500  0.51700  1.0000
  O   O16       1.0  0.82500  0.23800  0.55800  1.0000
  O   O17       1.0  0.68400  0.48300  0.58300  1.0000
  O   O18       1.0  0.62500  0.14000  0.58400  1.0000
  O   O19       1.0  0.05170  0.40400  0.68600  1.0000
  O   O20       1.0  0.29200  0.70800  0.69900  1.0000
  O   O21       1.0  0.03290  0.04910  0.73300  1.0000
  O   O22       1.0  0.46700  0.54900  0.76700  1.0000
  O   O23       1.0  0.20800  0.20800  0.80100  1.0000
  O   O24       1.0  0.44800  0.90400  0.81400  1.0000
  O   O25       1.0  0.87500  0.64000  0.91600  1.0000
  O   O26       1.0  0.81600  0.98300  0.91700  1.0000
  O   O27       1.0  0.67500  0.73800  0.94200  1.0000
  O   O28       1.0  0.65600  0.31500  0.98300  1.0000
  P   P1        1.0  0.20600  0.21800  0.02030  1.0000
  P   P2        1.0  0.60400  0.28600  0.17200  1.0000
  P   P3        1.0  0.89600  0.78600  0.32800  1.0000
  P   P4        1.0  0.29400  0.71800  0.48000  1.0000
  P   P5        1.0  0.70600  0.28200  0.52000  1.0000
  P   P6        1.0  0.10400  0.21400  0.67200  1.0000
  P   P7        1.0  0.39600  0.71400  0.82800  1.0000
  P   P8        1.0  0.79400  0.78200  0.98000  1.0000
  Zn  Zn1       1.0  0.38100  0.48100  0.17500  1.0000
  Zn  Zn2       1.0  0.11900  0.98100  0.32500  1.0000
  Zn  Zn3       1.0  0.88100  0.01940  0.67500  1.0000
  Zn  Zn4       1.0  0.61900  0.51900  0.82500  1.0000
