data_image0
_chemical_formula_structural       Ga8Ge8O32Sr4
_chemical_formula_sum              "Ga8 Ge8 O32 Sr4"
_cell_length_a       9.14789
_cell_length_b       9.65556
_cell_length_c       8.55992
_cell_angle_alpha    90
_cell_angle_beta     90.561
_cell_angle_gamma    90

_space_group_name_H-M_alt    "P 1"
_space_group_IT_number       1

loop_
  _space_group_symop_operation_xyz
  'x, y, z'

loop_
  _atom_site_type_symbol
  _atom_site_label
  _atom_site_symmetry_multiplicity
  _atom_site_fract_x
  _atom_site_fract_y
  _atom_site_fract_z
  _atom_site_occupancy
  Ga  Ga1       1.0  0.76200  0.07440  0.06730  1.0000
  Ga  Ga2       1.0  0.26200  0.42600  0.06730  1.0000
  Ga  Ga3       1.0  0.94900  0.80700  0.43000  1.0000
  Ga  Ga4       1.0  0.44900  0.69300  0.43000  1.0000
  Ga  Ga5       1.0  0.55100  0.30700  0.57000  1.0000
  Ga  Ga6       1.0  0.05090  0.19300  0.57000  1.0000
  Ga  Ga7       1.0  0.73800  0.57400  0.93300  1.0000
  Ga  Ga8       1.0  0.23800  0.92600  0.93300  1.0000
  Ge  Ge1       1.0  0.94500  0.80100  0.05970  1.0000
  Ge  Ge2       1.0  0.44500  0.69900  0.05970  1.0000
  Ge  Ge3       1.0  0.75500  0.07860  0.43900  1.0000
  Ge  Ge4       1.0  0.25500  0.42100  0.43900  1.0000
  Ge  Ge5       1.0  0.74500  0.57900  0.56100  1.0000
  Ge  Ge6       1.0  0.24500  0.92100  0.56100  1.0000
  Ge  Ge7       1.0  0.55500  0.30100  0.94000  1.0000
  Ge  Ge8       1.0  0.05490  0.19900  0.94000  1.0000
  O   O1        1.0  0.69600  0.40600  0.02070  1.0000
  O   O2        1.0  0.19600  0.09440  0.02070  1.0000
  O   O3        1.0  0.88700  0.62700  0.07050  1.0000
  O   O4        1.0  0.38700  0.87300  0.07050  1.0000
  O   O5        1.0  0.91400  0.19800  0.07940  1.0000
  O   O6        1.0  0.41400  0.30200  0.07940  1.0000
  O   O7        1.0  0.50400  0.63000  0.23800  1.0000
  O   O8        1.0  0.00354  0.87000  0.23800  1.0000
  O   O9        1.0  0.66400  0.07170  0.25500  1.0000
  O   O10       1.0  0.16400  0.42800  0.25500  1.0000
  O   O11       1.0  0.89800  0.19800  0.42700  1.0000
  O   O12       1.0  0.39800  0.30200  0.42700  1.0000
  O   O13       1.0  0.38500  0.87500  0.43000  1.0000
  O   O14       1.0  0.88500  0.62500  0.43000  1.0000
  O   O15       1.0  0.69200  0.41900  0.48100  1.0000
  O   O16       1.0  0.19200  0.08080  0.48100  1.0000
  O   O17       1.0  0.80800  0.91900  0.51900  1.0000
  O   O18       1.0  0.30800  0.58100  0.51900  1.0000
  O   O19       1.0  0.61500  0.12500  0.57000  1.0000
  O   O20       1.0  0.11500  0.37500  0.57000  1.0000
  O   O21       1.0  0.60200  0.69800  0.57300  1.0000
  O   O22       1.0  0.10200  0.80200  0.57300  1.0000
  O   O23       1.0  0.83600  0.57200  0.74500  1.0000
  O   O24       1.0  0.33600  0.92800  0.74500  1.0000
  O   O25       1.0  0.49600  0.37000  0.76200  1.0000
  O   O26       1.0  0.99600  0.13000  0.76200  1.0000
  O   O27       1.0  0.58600  0.69800  0.92100  1.0000
  O   O28       1.0  0.08590  0.80200  0.92100  1.0000
  O   O29       1.0  0.61300  0.12700  0.93000  1.0000
  O   O30       1.0  0.11300  0.37300  0.93000  1.0000
  O   O31       1.0  0.80400  0.90600  0.97900  1.0000
  O   O32       1.0  0.30400  0.59400  0.97900  1.0000
  Sr  Sr1       1.0  0.88200  0.41300  0.25100  1.0000
  Sr  Sr2       1.0  0.38200  0.08750  0.25100  1.0000
  Sr  Sr3       1.0  0.61800  0.91300  0.74900  1.0000
  Sr  Sr4       1.0  0.11800  0.58700  0.74900  1.0000
