data_image0
_chemical_formula_structural       Ba4K4O28Si8Y4
_chemical_formula_sum              "Ba4 K4 O28 Si8 Y4"
_cell_length_a       9.76229
_cell_length_b       5.71358
_cell_length_c       13.0574
_cell_angle_alpha    90
_cell_angle_beta     104.614
_cell_angle_gamma    90

_space_group_name_H-M_alt    "P 1"
_space_group_IT_number       1

loop_
  _space_group_symop_operation_xyz
  'x, y, z'

loop_
  _atom_site_type_symbol
  _atom_site_label
  _atom_site_symmetry_multiplicity
  _atom_site_fract_x
  _atom_site_fract_y
  _atom_site_fract_z
  _atom_site_occupancy
  Ba  Ba1       1.0  0.63600  0.77200  0.17400  1.0000
  Ba  Ba2       1.0  0.86400  0.27200  0.32600  1.0000
  Ba  Ba3       1.0  0.13600  0.72800  0.67400  1.0000
  Ba  Ba4       1.0  0.36400  0.22800  0.82600  1.0000
  K   K1        1.0  0.13100  0.26600  0.13900  1.0000
  K   K2        1.0  0.36900  0.76600  0.36100  1.0000
  K   K3        1.0  0.63100  0.23400  0.63900  1.0000
  K   K4        1.0  0.86900  0.73400  0.86100  1.0000
  O   O1        1.0  0.36100  0.08590  0.03590  1.0000
  O   O2        1.0  0.07070  0.75800  0.06130  1.0000
  O   O3        1.0  0.39000  0.54000  0.09550  1.0000
  O   O4        1.0  0.86100  0.53900  0.12800  1.0000
  O   O5        1.0  0.61800  0.25900  0.14000  1.0000
  O   O6        1.0  0.89600  0.00418  0.15300  1.0000
  O   O7        1.0  0.41000  0.19600  0.23700  1.0000
  O   O8        1.0  0.09010  0.69600  0.26300  1.0000
  O   O9        1.0  0.60400  0.50400  0.34700  1.0000
  O   O10       1.0  0.88200  0.75900  0.36000  1.0000
  O   O11       1.0  0.63900  0.03870  0.37200  1.0000
  O   O12       1.0  0.11000  0.04030  0.40500  1.0000
  O   O13       1.0  0.42900  0.25800  0.43900  1.0000
  O   O14       1.0  0.13900  0.58600  0.46400  1.0000
  O   O15       1.0  0.86100  0.41400  0.53600  1.0000
  O   O16       1.0  0.57100  0.74200  0.56100  1.0000
  O   O17       1.0  0.89000  0.96000  0.59500  1.0000
  O   O18       1.0  0.36100  0.96100  0.62800  1.0000
  O   O19       1.0  0.11800  0.24100  0.64000  1.0000
  O   O20       1.0  0.39600  0.49600  0.65300  1.0000
  O   O21       1.0  0.91000  0.30400  0.73700  1.0000
  O   O22       1.0  0.59000  0.80400  0.76300  1.0000
  O   O23       1.0  0.10400  0.99600  0.84700  1.0000
  O   O24       1.0  0.38200  0.74100  0.86000  1.0000
  O   O25       1.0  0.13900  0.46100  0.87200  1.0000
  O   O26       1.0  0.61000  0.46000  0.90500  1.0000
  O   O27       1.0  0.92900  0.24200  0.93900  1.0000
  O   O28       1.0  0.63900  0.91400  0.96400  1.0000
  Si  Si1       1.0  0.44600  0.27300  0.12200  1.0000
  Si  Si2       1.0  0.97600  0.75400  0.14600  1.0000
  Si  Si3       1.0  0.52400  0.25400  0.35400  1.0000
  Si  Si4       1.0  0.05390  0.77300  0.37800  1.0000
  Si  Si5       1.0  0.94600  0.22700  0.62200  1.0000
  Si  Si6       1.0  0.47600  0.74600  0.64600  1.0000
  Si  Si7       1.0  0.02430  0.24600  0.85400  1.0000
  Si  Si8       1.0  0.55400  0.72700  0.87800  1.0000
  Y   Y1        1.0  0.76000  0.24000  0.02160  1.0000
  Y   Y2        1.0  0.74000  0.74000  0.47800  1.0000
  Y   Y3        1.0  0.26000  0.26000  0.52200  1.0000
  Y   Y4        1.0  0.24000  0.76000  0.97800  1.0000
