data_image0
_chemical_formula_structural       GeH28Na4O14Se4
_chemical_formula_sum              "Ge1 H28 Na4 O14 Se4"
_cell_length_a       7.95944
_cell_length_b       8.30037
_cell_length_c       8.30037
_cell_angle_alpha    98.1895
_cell_angle_beta     103.469
_cell_angle_gamma    76.5313

_space_group_name_H-M_alt    "P 1"
_space_group_IT_number       1

loop_
  _space_group_symop_operation_xyz
  'x, y, z'

loop_
  _atom_site_type_symbol
  _atom_site_label
  _atom_site_symmetry_multiplicity
  _atom_site_fract_x
  _atom_site_fract_y
  _atom_site_fract_z
  _atom_site_occupancy
  Ge  Ge1       1.0  0.00000  0.00174  0.00174  1.0000
  H   H1        1.0  0.93400  0.57200  0.04500  1.0000
  H   H2        1.0  0.38300  0.43900  0.05440  1.0000
  H   H3        1.0  0.95000  0.38400  0.05800  1.0000
  H   H4        1.0  0.42700  0.84800  0.06430  1.0000
  H   H5        1.0  0.56300  0.30800  0.06960  1.0000
  H   H6        1.0  0.61700  0.88700  0.09440  1.0000
  H   H7        1.0  0.34500  0.69800  0.26000  1.0000
  H   H8        1.0  0.17400  0.38600  0.29300  1.0000
  H   H9        1.0  0.43700  0.06960  0.30800  1.0000
  H   H10       1.0  0.89900  0.81900  0.31800  1.0000
  H   H11       1.0  0.08230  0.55800  0.37900  1.0000
  H   H12       1.0  0.35600  0.57200  0.38100  1.0000
  H   H13       1.0  0.05050  0.05800  0.38400  1.0000
  H   H14       1.0  0.82600  0.29300  0.38600  1.0000
  H   H15       1.0  0.61700  0.05440  0.43900  1.0000
  H   H16       1.0  0.92600  0.80000  0.50600  1.0000
  H   H17       1.0  0.91800  0.37900  0.55800  1.0000
  H   H18       1.0  0.64400  0.38100  0.57200  1.0000
  H   H19       1.0  0.06620  0.04500  0.57200  1.0000
  H   H20       1.0  0.74600  0.62700  0.60300  1.0000
  H   H21       1.0  0.25400  0.60300  0.62700  1.0000
  H   H22       1.0  0.65500  0.26000  0.69800  1.0000
  H   H23       1.0  0.76500  0.79700  0.70900  1.0000
  H   H24       1.0  0.23500  0.70900  0.79700  1.0000
  H   H25       1.0  0.07410  0.50600  0.80000  1.0000
  H   H26       1.0  0.10100  0.31800  0.81900  1.0000
  H   H27       1.0  0.57300  0.06430  0.84800  1.0000
  H   H28       1.0  0.38300  0.09440  0.88700  1.0000
  Na  Na1       1.0  0.68400  0.58300  0.25800  1.0000
  Na  Na2       1.0  0.41000  0.86500  0.57400  1.0000
  Na  Na3       1.0  0.31600  0.25800  0.58300  1.0000
  Na  Na4       1.0  0.59000  0.57400  0.86500  1.0000
  O   O1        1.0  0.50600  0.42400  0.04670  1.0000
  O   O2        1.0  0.86300  0.49100  0.05570  1.0000
  O   O3        1.0  0.55200  0.79400  0.07430  1.0000
  O   O4        1.0  0.42300  0.65200  0.36200  1.0000
  O   O5        1.0  0.19000  0.46600  0.39400  1.0000
  O   O6        1.0  0.91300  0.73400  0.39600  1.0000
  O   O7        1.0  0.49400  0.04670  0.42400  1.0000
  O   O8        1.0  0.81000  0.39400  0.46600  1.0000
  O   O9        1.0  0.13700  0.05570  0.49100  1.0000
  O   O10       1.0  0.57700  0.36200  0.65200  1.0000
  O   O11       1.0  0.69900  0.70500  0.68900  1.0000
  O   O12       1.0  0.30100  0.68900  0.70500  1.0000
  O   O13       1.0  0.08670  0.39600  0.73400  1.0000
  O   O14       1.0  0.44800  0.07430  0.79400  1.0000
  Se  Se1       1.0  0.13200  0.72000  0.02590  1.0000
  Se  Se2       1.0  0.21200  0.17400  0.08000  1.0000
  Se  Se3       1.0  0.78800  0.08000  0.17400  1.0000
  Se  Se4       1.0  0.86800  0.02590  0.72000  1.0000
