data_image0
_chemical_formula_structural       Mn3Si3Ta3
_chemical_formula_sum              "Mn3 Si3 Ta3"
_cell_length_a       6.39768
_cell_length_b       6.39768
_cell_length_c       3.46874
_cell_angle_alpha    90
_cell_angle_beta     90
_cell_angle_gamma    120

_space_group_name_H-M_alt    "P 1"
_space_group_IT_number       1

loop_
  _space_group_symop_operation_xyz
  'x, y, z'

loop_
  _atom_site_type_symbol
  _atom_site_label
  _atom_site_symmetry_multiplicity
  _atom_site_fract_x
  _atom_site_fract_y
  _atom_site_fract_z
  _atom_site_occupancy
  Mn  Mn1       1.0  0.24700  0.00001  0.00000  1.0000
  Mn  Mn2       1.0  0.00001  0.24700  0.00000  1.0000
  Mn  Mn3       1.0  0.75300  0.75300  0.00000  1.0000
  Si  Si1       1.0  0.66700  0.33300  0.00000  1.0000
  Si  Si2       1.0  0.33300  0.66700  0.00000  1.0000
  Si  Si3       1.0  0.00000  0.00000  0.50000  1.0000
  Ta  Ta1       1.0  0.59000  0.00002  0.50000  1.0000
  Ta  Ta2       1.0  0.41000  0.41000  0.50000  1.0000
  Ta  Ta3       1.0  0.00002  0.59000  0.50000  1.0000
