data_image0
_chemical_formula_structural       O32Ti12Zn8
_chemical_formula_sum              "O32 Ti12 Zn8"
_cell_length_a       8.38744
_cell_length_b       8.38744
_cell_length_c       8.38744
_cell_angle_alpha    90
_cell_angle_beta     90
_cell_angle_gamma    90

_space_group_name_H-M_alt    "P 1"
_space_group_IT_number       1

loop_
  _space_group_symop_operation_xyz
  'x, y, z'

loop_
  _atom_site_type_symbol
  _atom_site_label
  _atom_site_symmetry_multiplicity
  _atom_site_fract_x
  _atom_site_fract_y
  _atom_site_fract_z
  _atom_site_occupancy
  O   O1        1.0  0.60900  0.89100  0.10900  1.0000
  O   O2        1.0  0.13700  0.39100  0.10900  1.0000
  O   O3        1.0  0.89100  0.63700  0.10900  1.0000
  O   O4        1.0  0.14100  0.85900  0.11300  1.0000
  O   O5        1.0  0.39100  0.10900  0.13700  1.0000
  O   O6        1.0  0.61300  0.35900  0.14100  1.0000
  O   O7        1.0  0.85900  0.11300  0.14100  1.0000
  O   O8        1.0  0.35900  0.64100  0.14100  1.0000
  O   O9        1.0  0.64100  0.14100  0.35900  1.0000
  O   O10       1.0  0.14100  0.61300  0.35900  1.0000
  O   O11       1.0  0.38700  0.85900  0.35900  1.0000
  O   O12       1.0  0.60900  0.60900  0.36300  1.0000
  O   O13       1.0  0.85900  0.35900  0.38700  1.0000
  O   O14       1.0  0.10900  0.13700  0.39100  1.0000
  O   O15       1.0  0.86300  0.89100  0.39100  1.0000
  O   O16       1.0  0.39100  0.39100  0.39100  1.0000
  O   O17       1.0  0.89100  0.10900  0.60900  1.0000
  O   O18       1.0  0.36300  0.60900  0.60900  1.0000
  O   O19       1.0  0.60900  0.36300  0.60900  1.0000
  O   O20       1.0  0.35900  0.14100  0.61300  1.0000
  O   O21       1.0  0.10900  0.89100  0.63700  1.0000
  O   O22       1.0  0.88700  0.64100  0.64100  1.0000
  O   O23       1.0  0.64100  0.88700  0.64100  1.0000
  O   O24       1.0  0.14100  0.35900  0.64100  1.0000
  O   O25       1.0  0.85900  0.85900  0.85900  1.0000
  O   O26       1.0  0.35900  0.38700  0.85900  1.0000
  O   O27       1.0  0.11300  0.14100  0.85900  1.0000
  O   O28       1.0  0.89100  0.39100  0.86300  1.0000
  O   O29       1.0  0.64100  0.64100  0.88700  1.0000
  O   O30       1.0  0.39100  0.86300  0.89100  1.0000
  O   O31       1.0  0.63700  0.10900  0.89100  1.0000
  O   O32       1.0  0.10900  0.60900  0.89100  1.0000
  Ti  Ti1       1.0  0.62500  0.13700  0.11300  1.0000
  Ti  Ti2       1.0  0.36300  0.88700  0.12500  1.0000
  Ti  Ti3       1.0  0.11300  0.62500  0.13700  1.0000
  Ti  Ti4       1.0  0.88700  0.12500  0.36300  1.0000
  Ti  Ti5       1.0  0.63700  0.38700  0.37500  1.0000
  Ti  Ti6       1.0  0.37500  0.63700  0.38700  1.0000
  Ti  Ti7       1.0  0.87500  0.86300  0.61300  1.0000
  Ti  Ti8       1.0  0.13700  0.11300  0.62500  1.0000
  Ti  Ti9       1.0  0.38700  0.37500  0.63700  1.0000
  Ti  Ti10      1.0  0.61300  0.87500  0.86300  1.0000
  Ti  Ti11      1.0  0.86300  0.61300  0.87500  1.0000
  Ti  Ti12      1.0  0.12500  0.36300  0.88700  1.0000
  Zn  Zn1       1.0  0.49400  0.50600  0.00597  1.0000
  Zn  Zn2       1.0  0.74400  0.75600  0.24400  1.0000
  Zn  Zn3       1.0  0.25600  0.25600  0.25600  1.0000
  Zn  Zn4       1.0  0.50600  0.00597  0.49400  1.0000
  Zn  Zn5       1.0  0.00597  0.49400  0.50600  1.0000
  Zn  Zn6       1.0  0.75600  0.24400  0.74400  1.0000
  Zn  Zn7       1.0  0.24400  0.74400  0.75600  1.0000
  Zn  Zn8       1.0  0.99400  0.99400  0.99400  1.0000
