data_image0
_chemical_formula_structural       H16Li8O24P4
_chemical_formula_sum              "H16 Li8 O24 P4"
_cell_length_a       7.76971
_cell_length_b       4.94488
_cell_length_c       12.1784
_cell_angle_alpha    90
_cell_angle_beta     101.27
_cell_angle_gamma    90

_space_group_name_H-M_alt    "P 1"
_space_group_IT_number       1

loop_
  _space_group_symop_operation_xyz
  'x, y, z'

loop_
  _atom_site_type_symbol
  _atom_site_label
  _atom_site_symmetry_multiplicity
  _atom_site_fract_x
  _atom_site_fract_y
  _atom_site_fract_z
  _atom_site_occupancy
  H   H1        1.0  0.79500  0.09320  0.03650  1.0000
  H   H2        1.0  0.53800  0.32400  0.04560  1.0000
  H   H3        1.0  0.35900  0.06160  0.04810  1.0000
  H   H4        1.0  0.37600  0.50300  0.07240  1.0000
  H   H5        1.0  0.12400  0.00250  0.42800  1.0000
  H   H6        1.0  0.14100  0.56200  0.45200  1.0000
  H   H7        1.0  0.96200  0.82400  0.45400  1.0000
  H   H8        1.0  0.70500  0.59300  0.46300  1.0000
  H   H9        1.0  0.29500  0.40700  0.53700  1.0000
  H   H10       1.0  0.03830  0.17600  0.54600  1.0000
  H   H11       1.0  0.85900  0.43800  0.54800  1.0000
  H   H12       1.0  0.87600  0.99700  0.57200  1.0000
  H   H13       1.0  0.62400  0.49700  0.92800  1.0000
  H   H14       1.0  0.64100  0.93800  0.95200  1.0000
  H   H15       1.0  0.46200  0.67600  0.95400  1.0000
  H   H16       1.0  0.20500  0.90700  0.96300  1.0000
  Li  Li1       1.0  0.18700  0.91800  0.16500  1.0000
  Li  Li2       1.0  0.62200  0.41700  0.24100  1.0000
  Li  Li3       1.0  0.87800  0.91700  0.25900  1.0000
  Li  Li4       1.0  0.31300  0.41800  0.33500  1.0000
  Li  Li5       1.0  0.68700  0.58200  0.66500  1.0000
  Li  Li6       1.0  0.12200  0.08320  0.74100  1.0000
  Li  Li7       1.0  0.37800  0.58300  0.75900  1.0000
  Li  Li8       1.0  0.81300  0.08240  0.83500  1.0000
  O   O1        1.0  0.93000  0.55700  0.02800  1.0000
  O   O2        1.0  0.30500  0.87900  0.02830  1.0000
  O   O3        1.0  0.45500  0.34900  0.09680  1.0000
  O   O4        1.0  0.96900  0.13100  0.15100  1.0000
  O   O5        1.0  0.82000  0.56700  0.19800  1.0000
  O   O6        1.0  0.15200  0.55300  0.21100  1.0000
  O   O7        1.0  0.34800  0.05310  0.28900  1.0000
  O   O8        1.0  0.68000  0.06660  0.30200  1.0000
  O   O9        1.0  0.53100  0.63100  0.34900  1.0000
  O   O10       1.0  0.04480  0.84900  0.40300  1.0000
  O   O11       1.0  0.19500  0.37900  0.47200  1.0000
  O   O12       1.0  0.57000  0.05720  0.47200  1.0000
  O   O13       1.0  0.43000  0.94300  0.52800  1.0000
  O   O14       1.0  0.80500  0.62100  0.52800  1.0000
  O   O15       1.0  0.95500  0.15100  0.59700  1.0000
  O   O16       1.0  0.46900  0.36900  0.65100  1.0000
  O   O17       1.0  0.32000  0.93300  0.69800  1.0000
  O   O18       1.0  0.65200  0.94700  0.71100  1.0000
  O   O19       1.0  0.84800  0.44700  0.78900  1.0000
  O   O20       1.0  0.18000  0.43300  0.80200  1.0000
  O   O21       1.0  0.03120  0.86900  0.84900  1.0000
  O   O22       1.0  0.54500  0.65100  0.90300  1.0000
  O   O23       1.0  0.69500  0.12100  0.97200  1.0000
  O   O24       1.0  0.06980  0.44300  0.97200  1.0000
  P   P1        1.0  0.97400  0.44100  0.15800  1.0000
  P   P2        1.0  0.52600  0.94100  0.34200  1.0000
  P   P3        1.0  0.47400  0.05930  0.65800  1.0000
  P   P4        1.0  0.02550  0.55900  0.84200  1.0000
