data_image0
_chemical_formula_structural       Na8O32Th2W8
_chemical_formula_sum              "Na8 O32 Th2 W8"
_cell_length_a       9.95755
_cell_length_b       9.95755
_cell_length_c       9.95755
_cell_angle_alpha    107.767
_cell_angle_beta     110.33
_cell_angle_gamma    110.33

_space_group_name_H-M_alt    "P 1"
_space_group_IT_number       1

loop_
  _space_group_symop_operation_xyz
  'x, y, z'

loop_
  _atom_site_type_symbol
  _atom_site_label
  _atom_site_symmetry_multiplicity
  _atom_site_fract_x
  _atom_site_fract_y
  _atom_site_fract_z
  _atom_site_occupancy
  Na  Na1       1.0  0.58900  0.77400  0.12700  1.0000
  Na  Na2       1.0  0.35400  0.31600  0.22600  1.0000
  Na  Na3       1.0  0.08910  0.46200  0.31600  1.0000
  Na  Na4       1.0  0.14600  0.87300  0.46200  1.0000
  Na  Na5       1.0  0.85400  0.12700  0.53800  1.0000
  Na  Na6       1.0  0.91100  0.53800  0.68400  1.0000
  Na  Na7       1.0  0.64600  0.68400  0.77400  1.0000
  Na  Na8       1.0  0.41100  0.22600  0.87300  1.0000
  O   O1        1.0  0.15800  0.02980  0.01310  1.0000
  O   O2        1.0  0.72000  0.66300  0.02550  1.0000
  O   O3        1.0  0.01670  0.37200  0.02980  1.0000
  O   O4        1.0  0.31200  0.65600  0.08110  1.0000
  O   O5        1.0  0.51700  0.98700  0.14500  1.0000
  O   O6        1.0  0.81200  0.23100  0.15600  1.0000
  O   O7        1.0  0.55600  0.30400  0.16400  1.0000
  O   O8        1.0  0.07500  0.91900  0.23100  1.0000
  O   O9        1.0  0.94400  0.60800  0.24800  1.0000
  O   O10       1.0  0.14000  0.24800  0.30400  1.0000
  O   O11       1.0  0.86200  0.02550  0.30600  1.0000
  O   O12       1.0  0.36200  0.55700  0.33700  1.0000
  O   O13       1.0  0.42500  0.15600  0.34400  1.0000
  O   O14       1.0  0.34200  0.85500  0.37200  1.0000
  O   O15       1.0  0.64000  0.83600  0.39200  1.0000
  O   O16       1.0  0.78000  0.30600  0.44300  1.0000
  O   O17       1.0  0.22000  0.69400  0.55700  1.0000
  O   O18       1.0  0.36000  0.16400  0.60800  1.0000
  O   O19       1.0  0.65800  0.14500  0.62800  1.0000
  O   O20       1.0  0.57500  0.84400  0.65600  1.0000
  O   O21       1.0  0.63800  0.44300  0.66300  1.0000
  O   O22       1.0  0.13800  0.97500  0.69400  1.0000
  O   O23       1.0  0.86000  0.75200  0.69600  1.0000
  O   O24       1.0  0.05600  0.39200  0.75200  1.0000
  O   O25       1.0  0.92500  0.08110  0.76900  1.0000
  O   O26       1.0  0.44400  0.69600  0.83600  1.0000
  O   O27       1.0  0.18800  0.76900  0.84400  1.0000
  O   O28       1.0  0.48300  0.01310  0.85500  1.0000
  O   O29       1.0  0.68800  0.34400  0.91900  1.0000
  O   O30       1.0  0.98300  0.62800  0.97000  1.0000
  O   O31       1.0  0.28000  0.33700  0.97500  1.0000
  O   O32       1.0  0.84200  0.97000  0.98700  1.0000
  Th  Th1       1.0  0.25000  0.87500  0.12500  1.0000
  Th  Th2       1.0  0.75000  0.12500  0.87500  1.0000
  W   W1        1.0  0.83700  0.56400  0.04220  1.0000
  W   W2        1.0  0.97900  0.04220  0.20500  1.0000
  W   W3        1.0  0.66300  0.20500  0.22600  1.0000
  W   W4        1.0  0.47900  0.77400  0.43600  1.0000
  W   W5        1.0  0.52100  0.22600  0.56400  1.0000
  W   W6        1.0  0.33700  0.79500  0.77400  1.0000
  W   W7        1.0  0.02140  0.95800  0.79500  1.0000
  W   W8        1.0  0.16300  0.43600  0.95800  1.0000
