data_image0
_chemical_formula_structural       Cl4H4I8K8O24
_chemical_formula_sum              "Cl4 H4 I8 K8 O24"
_cell_length_a       14.9234
_cell_length_b       6.48105
_cell_length_c       8.47498
_cell_angle_alpha    90
_cell_angle_beta     90
_cell_angle_gamma    90

_space_group_name_H-M_alt    "P 1"
_space_group_IT_number       1

loop_
  _space_group_symop_operation_xyz
  'x, y, z'

loop_
  _atom_site_type_symbol
  _atom_site_label
  _atom_site_symmetry_multiplicity
  _atom_site_fract_x
  _atom_site_fract_y
  _atom_site_fract_z
  _atom_site_occupancy
  Cl  Cl1       1.0  0.87600  0.22300  0.46700  1.0000
  Cl  Cl2       1.0  0.37600  0.77700  0.46700  1.0000
  Cl  Cl3       1.0  0.62400  0.22300  0.96700  1.0000
  Cl  Cl4       1.0  0.12400  0.77700  0.96700  1.0000
  H   H1        1.0  0.39000  0.28100  0.47500  1.0000
  H   H2        1.0  0.89000  0.71900  0.47500  1.0000
  H   H3        1.0  0.11000  0.28100  0.97500  1.0000
  H   H4        1.0  0.61000  0.71900  0.97500  1.0000
  I   I1        1.0  0.96600  0.49700  0.00175  1.0000
  I   I2        1.0  0.46600  0.50300  0.00175  1.0000
  I   I3        1.0  0.28100  0.05760  0.00891  1.0000
  I   I4        1.0  0.78100  0.94200  0.00891  1.0000
  I   I5        1.0  0.53400  0.49700  0.50200  1.0000
  I   I6        1.0  0.03410  0.50300  0.50200  1.0000
  I   I7        1.0  0.21900  0.05760  0.50900  1.0000
  I   I8        1.0  0.71900  0.94200  0.50900  1.0000
  K   K1        1.0  0.01640  0.02170  0.23800  1.0000
  K   K2        1.0  0.51600  0.97800  0.23800  1.0000
  K   K3        1.0  0.73400  0.44200  0.24800  1.0000
  K   K4        1.0  0.23400  0.55800  0.24800  1.0000
  K   K5        1.0  0.48400  0.02170  0.73800  1.0000
  K   K6        1.0  0.98400  0.97800  0.73800  1.0000
  K   K7        1.0  0.76600  0.44200  0.74800  1.0000
  K   K8        1.0  0.26600  0.55800  0.74800  1.0000
  O   O1        1.0  0.87000  0.33100  0.04510  1.0000
  O   O2        1.0  0.37000  0.66900  0.04510  1.0000
  O   O3        1.0  0.38700  0.18700  0.07050  1.0000
  O   O4        1.0  0.88700  0.81300  0.07050  1.0000
  O   O5        1.0  0.05530  0.44900  0.29500  1.0000
  O   O6        1.0  0.55500  0.55100  0.29500  1.0000
  O   O7        1.0  0.19600  0.01230  0.30100  1.0000
  O   O8        1.0  0.69600  0.98800  0.30100  1.0000
  O   O9        1.0  0.45900  0.25800  0.46200  1.0000
  O   O10       1.0  0.95900  0.74200  0.46200  1.0000
  O   O11       1.0  0.28800  0.29100  0.49100  1.0000
  O   O12       1.0  0.78800  0.70900  0.49100  1.0000
  O   O13       1.0  0.63000  0.33100  0.54500  1.0000
  O   O14       1.0  0.13000  0.66900  0.54500  1.0000
  O   O15       1.0  0.11300  0.18700  0.57100  1.0000
  O   O16       1.0  0.61300  0.81300  0.57100  1.0000
  O   O17       1.0  0.44500  0.44900  0.79500  1.0000
  O   O18       1.0  0.94500  0.55100  0.79500  1.0000
  O   O19       1.0  0.30400  0.01230  0.80100  1.0000
  O   O20       1.0  0.80400  0.98800  0.80100  1.0000
  O   O21       1.0  0.04150  0.25800  0.96200  1.0000
  O   O22       1.0  0.54100  0.74200  0.96200  1.0000
  O   O23       1.0  0.21200  0.29100  0.99100  1.0000
  O   O24       1.0  0.71200  0.70900  0.99100  1.0000
