data_image0
_chemical_formula_structural       B4F16Fe4N12O12
_chemical_formula_sum              "B4 F16 Fe4 N12 O12"
_cell_length_a       8.39332
_cell_length_b       7.02285
_cell_length_c       9.4445
_cell_angle_alpha    90.2001
_cell_angle_beta     99.6632
_cell_angle_gamma    89.6325

_space_group_name_H-M_alt    "P 1"
_space_group_IT_number       1

loop_
  _space_group_symop_operation_xyz
  'x, y, z'

loop_
  _atom_site_type_symbol
  _atom_site_label
  _atom_site_symmetry_multiplicity
  _atom_site_fract_x
  _atom_site_fract_y
  _atom_site_fract_z
  _atom_site_occupancy
  B   B1        1.0  0.56400  0.71400  0.23100  1.0000
  B   B2        1.0  0.93800  0.22000  0.27000  1.0000
  B   B3        1.0  0.06220  0.78100  0.73000  1.0000
  B   B4        1.0  0.43500  0.28600  0.76900  1.0000
  F   F1        1.0  0.90000  0.24900  0.12300  1.0000
  F   F2        1.0  0.66400  0.84900  0.16900  1.0000
  F   F3        1.0  0.40300  0.75700  0.17700  1.0000
  F   F4        1.0  0.60300  0.53400  0.18700  1.0000
  F   F5        1.0  0.90500  0.03660  0.31200  1.0000
  F   F6        1.0  0.09710  0.26800  0.32400  1.0000
  F   F7        1.0  0.83400  0.35000  0.33400  1.0000
  F   F8        1.0  0.59800  0.74200  0.37800  1.0000
  F   F9        1.0  0.40100  0.25900  0.62200  1.0000
  F   F10       1.0  0.16600  0.65100  0.66500  1.0000
  F   F11       1.0  0.90300  0.73300  0.67500  1.0000
  F   F12       1.0  0.09590  0.96400  0.68800  1.0000
  F   F13       1.0  0.39600  0.46500  0.81500  1.0000
  F   F14       1.0  0.59600  0.24300  0.82300  1.0000
  F   F15       1.0  0.33600  0.15000  0.83200  1.0000
  F   F16       1.0  0.10000  0.75100  0.87700  1.0000
  Fe  Fe1       1.0  0.29400  0.19900  0.02900  1.0000
  Fe  Fe2       1.0  0.20600  0.70000  0.47000  1.0000
  Fe  Fe3       1.0  0.79400  0.30000  0.53000  1.0000
  Fe  Fe4       1.0  0.70600  0.80000  0.97100  1.0000
  N   N1        1.0  0.20500  0.41500  0.05140  1.0000
  N   N2        1.0  0.17900  0.01610  0.07150  1.0000
  N   N3        1.0  0.48100  0.18500  0.13400  1.0000
  N   N4        1.0  0.02010  0.68300  0.36400  1.0000
  N   N5        1.0  0.32200  0.51600  0.42600  1.0000
  N   N6        1.0  0.29500  0.91500  0.44900  1.0000
  N   N7        1.0  0.70600  0.08470  0.55100  1.0000
  N   N8        1.0  0.67800  0.48500  0.57300  1.0000
  N   N9        1.0  0.98000  0.31600  0.63600  1.0000
  N   N10       1.0  0.51900  0.81500  0.86600  1.0000
  N   N11       1.0  0.82100  0.98400  0.92900  1.0000
  N   N12       1.0  0.79500  0.58400  0.94900  1.0000
  O   O1        1.0  0.14900  0.53600  0.11300  1.0000
  O   O2        1.0  0.11000  0.91500  0.13800  1.0000
  O   O3        1.0  0.57300  0.17000  0.24000  1.0000
  O   O4        1.0  0.92900  0.66600  0.25700  1.0000
  O   O5        1.0  0.39100  0.41500  0.36000  1.0000
  O   O6        1.0  0.35200  0.03470  0.38900  1.0000
  O   O7        1.0  0.64900  0.96500  0.61200  1.0000
  O   O8        1.0  0.60900  0.58600  0.63900  1.0000
  O   O9        1.0  0.07010  0.33200  0.74300  1.0000
  O   O10       1.0  0.42700  0.82900  0.76000  1.0000
  O   O11       1.0  0.89000  0.08510  0.86200  1.0000
  O   O12       1.0  0.85100  0.46400  0.88800  1.0000
