data_image0
_chemical_formula_structural       K4N28P16
_chemical_formula_sum              "K4 N28 P16"
_cell_length_a       10.0872
_cell_length_b       11.5362
_cell_length_c       4.66378
_cell_angle_alpha    90
_cell_angle_beta     90
_cell_angle_gamma    90

_space_group_name_H-M_alt    "P 1"
_space_group_IT_number       1

loop_
  _space_group_symop_operation_xyz
  'x, y, z'

loop_
  _atom_site_type_symbol
  _atom_site_label
  _atom_site_symmetry_multiplicity
  _atom_site_fract_x
  _atom_site_fract_y
  _atom_site_fract_z
  _atom_site_occupancy
  K   K1        1.0  0.64800  0.75000  0.23700  1.0000
  K   K2        1.0  0.14800  0.75000  0.26300  1.0000
  K   K3        1.0  0.85200  0.25000  0.73700  1.0000
  K   K4        1.0  0.35200  0.25000  0.76300  1.0000
  N   N1        1.0  0.39000  0.61400  0.13700  1.0000
  N   N2        1.0  0.39000  0.88600  0.13700  1.0000
  N   N3        1.0  0.19300  0.03240  0.13800  1.0000
  N   N4        1.0  0.19300  0.46800  0.13800  1.0000
  N   N5        1.0  0.14400  0.25000  0.19000  1.0000
  N   N6        1.0  0.93700  0.11100  0.20100  1.0000
  N   N7        1.0  0.93700  0.38900  0.20100  1.0000
  N   N8        1.0  0.43700  0.11100  0.29900  1.0000
  N   N9        1.0  0.43700  0.38900  0.29900  1.0000
  N   N10       1.0  0.64400  0.25000  0.31000  1.0000
  N   N11       1.0  0.69300  0.03240  0.36200  1.0000
  N   N12       1.0  0.69300  0.46800  0.36200  1.0000
  N   N13       1.0  0.89000  0.61400  0.36300  1.0000
  N   N14       1.0  0.89000  0.88600  0.36300  1.0000
  N   N15       1.0  0.11000  0.11400  0.63700  1.0000
  N   N16       1.0  0.11000  0.38600  0.63700  1.0000
  N   N17       1.0  0.30700  0.53200  0.63800  1.0000
  N   N18       1.0  0.30700  0.96800  0.63800  1.0000
  N   N19       1.0  0.35600  0.75000  0.69000  1.0000
  N   N20       1.0  0.56300  0.61100  0.70100  1.0000
  N   N21       1.0  0.56300  0.88900  0.70100  1.0000
  N   N22       1.0  0.06350  0.61100  0.79900  1.0000
  N   N23       1.0  0.06350  0.88900  0.79900  1.0000
  N   N24       1.0  0.85600  0.75000  0.81000  1.0000
  N   N25       1.0  0.80700  0.53200  0.86200  1.0000
  N   N26       1.0  0.80700  0.96800  0.86200  1.0000
  N   N27       1.0  0.61000  0.11400  0.86300  1.0000
  N   N28       1.0  0.61000  0.38600  0.86300  1.0000
  P   P1        1.0  0.58800  0.13000  0.20100  1.0000
  P   P2        1.0  0.58800  0.37000  0.20100  1.0000
  P   P3        1.0  0.84300  0.00120  0.21200  1.0000
  P   P4        1.0  0.84300  0.49900  0.21200  1.0000
  P   P5        1.0  0.34300  0.00120  0.28800  1.0000
  P   P6        1.0  0.34300  0.49900  0.28800  1.0000
  P   P7        1.0  0.08770  0.13000  0.29900  1.0000
  P   P8        1.0  0.08770  0.37000  0.29900  1.0000
  P   P9        1.0  0.91200  0.63000  0.70100  1.0000
  P   P10       1.0  0.91200  0.87000  0.70100  1.0000
  P   P11       1.0  0.65700  0.50100  0.71200  1.0000
  P   P12       1.0  0.65700  0.99900  0.71200  1.0000
  P   P13       1.0  0.15700  0.50100  0.78800  1.0000
  P   P14       1.0  0.15700  0.99900  0.78800  1.0000
  P   P15       1.0  0.41200  0.63000  0.79900  1.0000
  P   P16       1.0  0.41200  0.87000  0.79900  1.0000
