data_image0
_chemical_formula_structural       F12H4Na8O20S4Te4
_chemical_formula_sum              "F12 H4 Na8 O20 S4 Te4"
_cell_length_a       8.0286
_cell_length_b       7.22081
_cell_length_c       10.4659
_cell_angle_alpha    90
_cell_angle_beta     90.6176
_cell_angle_gamma    90

_space_group_name_H-M_alt    "P 1"
_space_group_IT_number       1

loop_
  _space_group_symop_operation_xyz
  'x, y, z'

loop_
  _atom_site_type_symbol
  _atom_site_label
  _atom_site_symmetry_multiplicity
  _atom_site_fract_x
  _atom_site_fract_y
  _atom_site_fract_z
  _atom_site_occupancy
  F   F1        1.0  0.02330  0.41500  0.12400  1.0000
  F   F2        1.0  0.15300  0.08430  0.19100  1.0000
  F   F3        1.0  0.69400  0.90100  0.24400  1.0000
  F   F4        1.0  0.30600  0.40100  0.25600  1.0000
  F   F5        1.0  0.84700  0.58400  0.30900  1.0000
  F   F6        1.0  0.97700  0.91500  0.37600  1.0000
  F   F7        1.0  0.02330  0.08480  0.62400  1.0000
  F   F8        1.0  0.15300  0.41600  0.69100  1.0000
  F   F9        1.0  0.69400  0.59900  0.74400  1.0000
  F   F10       1.0  0.30600  0.09910  0.75600  1.0000
  F   F11       1.0  0.84700  0.91600  0.80900  1.0000
  F   F12       1.0  0.97700  0.58500  0.87600  1.0000
  H   H1        1.0  0.06320  0.85600  0.07150  1.0000
  H   H2        1.0  0.93700  0.35600  0.42900  1.0000
  H   H3        1.0  0.06320  0.64400  0.57100  1.0000
  H   H4        1.0  0.93700  0.14400  0.92900  1.0000
  Na  Na1       1.0  0.24000  0.27100  0.02400  1.0000
  Na  Na2       1.0  0.57100  0.52400  0.24600  1.0000
  Na  Na3       1.0  0.42900  0.02420  0.25400  1.0000
  Na  Na4       1.0  0.76000  0.77100  0.47600  1.0000
  Na  Na5       1.0  0.24000  0.22900  0.52400  1.0000
  Na  Na6       1.0  0.57100  0.97600  0.74600  1.0000
  Na  Na7       1.0  0.42900  0.47600  0.75400  1.0000
  Na  Na8       1.0  0.76000  0.72900  0.97600  1.0000
  O   O1        1.0  0.79000  0.12700  0.02690  1.0000
  O   O2        1.0  0.68600  0.44500  0.04990  1.0000
  O   O3        1.0  0.50000  0.18500  0.07340  1.0000
  O   O4        1.0  0.95600  0.83300  0.12000  1.0000
  O   O5        1.0  0.38600  0.74200  0.13700  1.0000
  O   O6        1.0  0.61400  0.24200  0.36300  1.0000
  O   O7        1.0  0.04420  0.33300  0.38000  1.0000
  O   O8        1.0  0.50000  0.68500  0.42700  1.0000
  O   O9        1.0  0.31400  0.94500  0.45000  1.0000
  O   O10       1.0  0.21000  0.62700  0.47300  1.0000
  O   O11       1.0  0.79000  0.37300  0.52700  1.0000
  O   O12       1.0  0.68600  0.05460  0.55000  1.0000
  O   O13       1.0  0.50000  0.31500  0.57300  1.0000
  O   O14       1.0  0.95600  0.66700  0.62000  1.0000
  O   O15       1.0  0.38600  0.75800  0.63700  1.0000
  O   O16       1.0  0.61400  0.25800  0.86300  1.0000
  O   O17       1.0  0.04420  0.16700  0.88000  1.0000
  O   O18       1.0  0.50000  0.81500  0.92700  1.0000
  O   O19       1.0  0.31400  0.55500  0.95000  1.0000
  O   O20       1.0  0.21000  0.87300  0.97300  1.0000
  S   S1        1.0  0.64100  0.26000  0.00290  1.0000
  S   S2        1.0  0.35900  0.76000  0.49700  1.0000
  S   S3        1.0  0.64100  0.24000  0.50300  1.0000
  S   S4        1.0  0.35900  0.74000  0.99700  1.0000
  Te  Te1       1.0  0.90300  0.04920  0.22200  1.0000
  Te  Te2       1.0  0.09670  0.54900  0.27800  1.0000
  Te  Te3       1.0  0.90300  0.45100  0.72200  1.0000
  Te  Te4       1.0  0.09670  0.95100  0.77800  1.0000
