data_image0
_chemical_formula_structural       H24O22S2V2
_chemical_formula_sum              "H24 O22 S2 V2"
_cell_length_a       7.32889
_cell_length_b       9.69657
_cell_length_c       6.06208
_cell_angle_alpha    101.425
_cell_angle_beta     95.123
_cell_angle_gamma    92.5393

_space_group_name_H-M_alt    "P 1"
_space_group_IT_number       1

loop_
  _space_group_symop_operation_xyz
  'x, y, z'

loop_
  _atom_site_type_symbol
  _atom_site_label
  _atom_site_symmetry_multiplicity
  _atom_site_fract_x
  _atom_site_fract_y
  _atom_site_fract_z
  _atom_site_occupancy
  H   H1        1.0  0.05230  0.85400  0.01610  1.0000
  H   H2        1.0  0.42500  0.68400  0.12400  1.0000
  H   H3        1.0  0.63000  0.38500  0.14700  1.0000
  H   H4        1.0  0.30600  0.02820  0.17600  1.0000
  H   H5        1.0  0.51100  0.09220  0.18700  1.0000
  H   H6        1.0  0.87800  0.49100  0.20600  1.0000
  H   H7        1.0  0.99200  0.19200  0.26100  1.0000
  H   H8        1.0  0.74300  0.91300  0.29600  1.0000
  H   H9        1.0  0.87100  0.78700  0.35000  1.0000
  H   H10       1.0  0.87300  0.39100  0.39500  1.0000
  H   H11       1.0  0.44200  0.31400  0.48600  1.0000
  H   H12       1.0  0.72000  0.57200  0.48800  1.0000
  H   H13       1.0  0.28000  0.42800  0.51200  1.0000
  H   H14       1.0  0.55800  0.68600  0.51400  1.0000
  H   H15       1.0  0.12700  0.60900  0.60500  1.0000
  H   H16       1.0  0.12900  0.21300  0.65000  1.0000
  H   H17       1.0  0.25700  0.08710  0.70400  1.0000
  H   H18       1.0  0.00810  0.80800  0.73900  1.0000
  H   H19       1.0  0.12200  0.50900  0.79400  1.0000
  H   H20       1.0  0.48900  0.90800  0.81300  1.0000
  H   H21       1.0  0.69400  0.97200  0.82400  1.0000
  H   H22       1.0  0.37000  0.61500  0.85300  1.0000
  H   H23       1.0  0.57500  0.31600  0.87600  1.0000
  H   H24       1.0  0.94800  0.14600  0.98400  1.0000
  O   O1        1.0  0.52900  0.33900  0.02920  1.0000
  O   O2        1.0  0.15800  0.42800  0.03750  1.0000
  O   O3        1.0  0.04510  0.16600  0.11400  1.0000
  O   O4        1.0  0.38400  0.09760  0.12000  1.0000
  O   O5        1.0  0.18100  0.90200  0.25600  1.0000
  O   O6        1.0  0.75800  0.80900  0.26100  1.0000
  O   O7        1.0  0.80500  0.45700  0.31700  1.0000
  O   O8        1.0  0.70300  0.07540  0.34800  1.0000
  O   O9        1.0  0.37100  0.72300  0.37500  1.0000
  O   O10       1.0  0.33700  0.35100  0.40600  1.0000
  O   O11       1.0  0.06020  0.74400  0.47900  1.0000
  O   O12       1.0  0.94000  0.25600  0.52100  1.0000
  O   O13       1.0  0.66300  0.64900  0.59400  1.0000
  O   O14       1.0  0.62900  0.27700  0.62500  1.0000
  O   O15       1.0  0.29700  0.92500  0.65200  1.0000
  O   O16       1.0  0.19500  0.54300  0.68300  1.0000
  O   O17       1.0  0.24200  0.19100  0.73900  1.0000
  O   O18       1.0  0.81900  0.09840  0.74400  1.0000
  O   O19       1.0  0.61600  0.90200  0.88000  1.0000
  O   O20       1.0  0.95500  0.83400  0.88600  1.0000
  O   O21       1.0  0.84200  0.57200  0.96200  1.0000
  O   O22       1.0  0.47100  0.66100  0.97100  1.0000
  S   S1        1.0  0.23100  0.82500  0.43800  1.0000
  S   S2        1.0  0.76900  0.17500  0.56200  1.0000
  V   V1        1.0  0.26900  0.28800  0.07160  1.0000
  V   V2        1.0  0.73100  0.71200  0.92800  1.0000
