data_image0
_chemical_formula_structural       Cl8In8O24Se8
_chemical_formula_sum              "Cl8 In8 O24 Se8"
_cell_length_a       7.05958
_cell_length_b       7.0713
_cell_length_c       16.0701
_cell_angle_alpha    90
_cell_angle_beta     90
_cell_angle_gamma    90

_space_group_name_H-M_alt    "P 1"
_space_group_IT_number       1

loop_
  _space_group_symop_operation_xyz
  'x, y, z'

loop_
  _atom_site_type_symbol
  _atom_site_label
  _atom_site_symmetry_multiplicity
  _atom_site_fract_x
  _atom_site_fract_y
  _atom_site_fract_z
  _atom_site_occupancy
  Cl  Cl1       1.0  0.18800  0.21300  0.04060  1.0000
  Cl  Cl2       1.0  0.31200  0.71300  0.04060  1.0000
  Cl  Cl3       1.0  0.68800  0.21300  0.45900  1.0000
  Cl  Cl4       1.0  0.81200  0.71300  0.45900  1.0000
  Cl  Cl5       1.0  0.18800  0.28700  0.54100  1.0000
  Cl  Cl6       1.0  0.31200  0.78700  0.54100  1.0000
  Cl  Cl7       1.0  0.68800  0.28700  0.95900  1.0000
  Cl  Cl8       1.0  0.81200  0.78700  0.95900  1.0000
  In  In1       1.0  0.24900  0.46200  0.15200  1.0000
  In  In2       1.0  0.25100  0.96200  0.15200  1.0000
  In  In3       1.0  0.74900  0.46200  0.34800  1.0000
  In  In4       1.0  0.75100  0.96200  0.34800  1.0000
  In  In5       1.0  0.24900  0.03780  0.65200  1.0000
  In  In6       1.0  0.25100  0.53800  0.65200  1.0000
  In  In7       1.0  0.74900  0.03780  0.84800  1.0000
  In  In8       1.0  0.75100  0.53800  0.84800  1.0000
  O   O1        1.0  0.55000  0.01810  0.14800  1.0000
  O   O2        1.0  0.95000  0.51800  0.14800  1.0000
  O   O3        1.0  0.54900  0.41100  0.15200  1.0000
  O   O4        1.0  0.95100  0.91100  0.15200  1.0000
  O   O5        1.0  0.21900  0.21200  0.23100  1.0000
  O   O6        1.0  0.28100  0.71200  0.23100  1.0000
  O   O7        1.0  0.71900  0.21200  0.26900  1.0000
  O   O8        1.0  0.78100  0.71200  0.26900  1.0000
  O   O9        1.0  0.04890  0.41100  0.34800  1.0000
  O   O10       1.0  0.45100  0.91100  0.34800  1.0000
  O   O11       1.0  0.04960  0.01810  0.35200  1.0000
  O   O12       1.0  0.45000  0.51800  0.35200  1.0000
  O   O13       1.0  0.55000  0.48200  0.64800  1.0000
  O   O14       1.0  0.95000  0.98200  0.64800  1.0000
  O   O15       1.0  0.54900  0.08900  0.65200  1.0000
  O   O16       1.0  0.95100  0.58900  0.65200  1.0000
  O   O17       1.0  0.21900  0.28800  0.73100  1.0000
  O   O18       1.0  0.28100  0.78800  0.73100  1.0000
  O   O19       1.0  0.71900  0.28800  0.76900  1.0000
  O   O20       1.0  0.78100  0.78800  0.76900  1.0000
  O   O21       1.0  0.04890  0.08900  0.84800  1.0000
  O   O22       1.0  0.45100  0.58900  0.84800  1.0000
  O   O23       1.0  0.04960  0.48200  0.85200  1.0000
  O   O24       1.0  0.45000  0.98200  0.85200  1.0000
  Se  Se1       1.0  0.69000  0.21400  0.15700  1.0000
  Se  Se2       1.0  0.81000  0.71400  0.15700  1.0000
  Se  Se3       1.0  0.19000  0.21400  0.34300  1.0000
  Se  Se4       1.0  0.31000  0.71400  0.34300  1.0000
  Se  Se5       1.0  0.69000  0.28600  0.65700  1.0000
  Se  Se6       1.0  0.81000  0.78600  0.65700  1.0000
  Se  Se7       1.0  0.19000  0.28600  0.84300  1.0000
  Se  Se8       1.0  0.31000  0.78600  0.84300  1.0000
