data_image0
_chemical_formula_structural       Ce4P8S28Tl8
_chemical_formula_sum              "Ce4 P8 S28 Tl8"
_cell_length_a       9.48379
_cell_length_b       6.79157
_cell_length_c       19.9822
_cell_angle_alpha    90
_cell_angle_beta     97.4136
_cell_angle_gamma    90

_space_group_name_H-M_alt    "P 1"
_space_group_IT_number       1

loop_
  _space_group_symop_operation_xyz
  'x, y, z'

loop_
  _atom_site_type_symbol
  _atom_site_label
  _atom_site_symmetry_multiplicity
  _atom_site_fract_x
  _atom_site_fract_y
  _atom_site_fract_z
  _atom_site_occupancy
  Ce  Ce1       1.0  0.81300  0.02780  0.15300  1.0000
  Ce  Ce2       1.0  0.68700  0.52800  0.34700  1.0000
  Ce  Ce3       1.0  0.31300  0.47200  0.65300  1.0000
  Ce  Ce4       1.0  0.18700  0.97200  0.84700  1.0000
  P   P1        1.0  0.07730  0.99200  0.04670  1.0000
  P   P2        1.0  0.60000  0.48900  0.16700  1.0000
  P   P3        1.0  0.90000  0.98900  0.33300  1.0000
  P   P4        1.0  0.42300  0.49200  0.45300  1.0000
  P   P5        1.0  0.57700  0.50800  0.54700  1.0000
  P   P6        1.0  0.10000  0.01120  0.66700  1.0000
  P   P7        1.0  0.40000  0.51100  0.83300  1.0000
  P   P8        1.0  0.92300  0.00836  0.95300  1.0000
  S   S1        1.0  0.26800  0.97400  0.01220  1.0000
  S   S2        1.0  0.02010  0.75300  0.09860  1.0000
  S   S3        1.0  0.04760  0.24100  0.10000  1.0000
  S   S4        1.0  0.55500  0.25700  0.10200  1.0000
  S   S5        1.0  0.58900  0.73700  0.10700  1.0000
  S   S6        1.0  0.80300  0.44000  0.21700  1.0000
  S   S7        1.0  0.45900  0.50700  0.23500  1.0000
  S   S8        1.0  0.04140  0.00721  0.26500  1.0000
  S   S9        1.0  0.69700  0.94000  0.28300  1.0000
  S   S10       1.0  0.91100  0.23700  0.39300  1.0000
  S   S11       1.0  0.94500  0.75700  0.39800  1.0000
  S   S12       1.0  0.45200  0.74100  0.40000  1.0000
  S   S13       1.0  0.48000  0.25300  0.40100  1.0000
  S   S14       1.0  0.23200  0.47400  0.48800  1.0000
  S   S15       1.0  0.76800  0.52600  0.51200  1.0000
  S   S16       1.0  0.52000  0.74700  0.59900  1.0000
  S   S17       1.0  0.54800  0.25900  0.60000  1.0000
  S   S18       1.0  0.05460  0.24300  0.60200  1.0000
  S   S19       1.0  0.08910  0.76300  0.60700  1.0000
  S   S20       1.0  0.30300  0.06020  0.71700  1.0000
  S   S21       1.0  0.95900  0.99300  0.73500  1.0000
  S   S22       1.0  0.54100  0.49300  0.76500  1.0000
  S   S23       1.0  0.19700  0.56000  0.78300  1.0000
  S   S24       1.0  0.41100  0.26300  0.89300  1.0000
  S   S25       1.0  0.44500  0.74300  0.89800  1.0000
  S   S26       1.0  0.95200  0.75900  0.90000  1.0000
  S   S27       1.0  0.98000  0.24700  0.90100  1.0000
  S   S28       1.0  0.73200  0.02600  0.98800  1.0000
  Tl  Tl1       1.0  0.25100  0.47600  0.00798  1.0000
  Tl  Tl2       1.0  0.36500  0.97900  0.18000  1.0000
  Tl  Tl3       1.0  0.13500  0.47900  0.32000  1.0000
  Tl  Tl4       1.0  0.24900  0.97600  0.49200  1.0000
  Tl  Tl5       1.0  0.75100  0.02360  0.50800  1.0000
  Tl  Tl6       1.0  0.86500  0.52100  0.68000  1.0000
  Tl  Tl7       1.0  0.63500  0.02130  0.82000  1.0000
  Tl  Tl8       1.0  0.74900  0.52400  0.99200  1.0000
