data_image0
_chemical_formula_structural       Ag16Cr6I4O24
_chemical_formula_sum              "Ag16 Cr6 I4 O24"
_cell_length_a       9.40614
_cell_length_b       9.40616
_cell_length_c       10.2291
_cell_angle_alpha    90
_cell_angle_beta     90
_cell_angle_gamma    120.001

_space_group_name_H-M_alt    "P 1"
_space_group_IT_number       1

loop_
  _space_group_symop_operation_xyz
  'x, y, z'

loop_
  _atom_site_type_symbol
  _atom_site_label
  _atom_site_symmetry_multiplicity
  _atom_site_fract_x
  _atom_site_fract_y
  _atom_site_fract_z
  _atom_site_occupancy
  Ag  Ag1       1.0  0.00000  0.00000  0.00000  1.0000
  Ag  Ag2       1.0  0.37100  0.37200  0.07250  1.0000
  Ag  Ag3       1.0  0.00106  0.62900  0.07250  1.0000
  Ag  Ag4       1.0  0.62800  0.99900  0.07250  1.0000
  Ag  Ag5       1.0  0.33300  0.66700  0.25000  1.0000
  Ag  Ag6       1.0  0.37100  0.37200  0.42700  1.0000
  Ag  Ag7       1.0  0.62800  0.99900  0.42700  1.0000
  Ag  Ag8       1.0  0.00106  0.62900  0.42700  1.0000
  Ag  Ag9       1.0  0.00000  0.00000  0.50000  1.0000
  Ag  Ag10      1.0  0.37200  0.00106  0.57300  1.0000
  Ag  Ag11      1.0  0.99900  0.37100  0.57300  1.0000
  Ag  Ag12      1.0  0.62900  0.62800  0.57300  1.0000
  Ag  Ag13      1.0  0.66700  0.33300  0.75000  1.0000
  Ag  Ag14      1.0  0.37200  0.00106  0.92700  1.0000
  Ag  Ag15      1.0  0.99900  0.37100  0.92700  1.0000
  Ag  Ag16      1.0  0.62900  0.62800  0.92700  1.0000
  Cr  Cr1       1.0  0.00328  0.28300  0.25000  1.0000
  Cr  Cr2       1.0  0.71700  0.72000  0.25000  1.0000
  Cr  Cr3       1.0  0.28000  0.99700  0.25000  1.0000
  Cr  Cr4       1.0  0.72000  0.00331  0.75000  1.0000
  Cr  Cr5       1.0  0.28300  0.28000  0.75000  1.0000
  Cr  Cr6       1.0  0.99700  0.71700  0.75000  1.0000
  I   I1        1.0  0.66700  0.33300  0.02490  1.0000
  I   I2        1.0  0.66700  0.33300  0.47500  1.0000
  I   I3        1.0  0.33300  0.66700  0.52500  1.0000
  I   I4        1.0  0.33300  0.66700  0.97500  1.0000
  O   O1        1.0  0.08460  0.25400  0.11300  1.0000
  O   O2        1.0  0.74600  0.83100  0.11300  1.0000
  O   O3        1.0  0.16900  0.91500  0.11300  1.0000
  O   O4        1.0  0.80300  0.15500  0.25000  1.0000
  O   O5        1.0  0.35200  0.19700  0.25000  1.0000
  O   O6        1.0  0.04180  0.47900  0.25000  1.0000
  O   O7        1.0  0.52100  0.56300  0.25000  1.0000
  O   O8        1.0  0.84500  0.64800  0.25000  1.0000
  O   O9        1.0  0.43700  0.95800  0.25000  1.0000
  O   O10       1.0  0.16900  0.91500  0.38700  1.0000
  O   O11       1.0  0.74600  0.83100  0.38700  1.0000
  O   O12       1.0  0.08460  0.25400  0.38700  1.0000
  O   O13       1.0  0.91500  0.74600  0.61300  1.0000
  O   O14       1.0  0.25400  0.16900  0.61300  1.0000
  O   O15       1.0  0.83100  0.08460  0.61300  1.0000
  O   O16       1.0  0.56300  0.04180  0.75000  1.0000
  O   O17       1.0  0.15500  0.35200  0.75000  1.0000
  O   O18       1.0  0.47900  0.43700  0.75000  1.0000
  O   O19       1.0  0.95800  0.52100  0.75000  1.0000
  O   O20       1.0  0.64800  0.80300  0.75000  1.0000
  O   O21       1.0  0.19700  0.84500  0.75000  1.0000
  O   O22       1.0  0.83100  0.08460  0.88700  1.0000
  O   O23       1.0  0.25400  0.16900  0.88700  1.0000
  O   O24       1.0  0.91500  0.74600  0.88700  1.0000
