data_image0
_chemical_formula_structural       B14Cl2Co6O26
_chemical_formula_sum              "B14 Cl2 Co6 O26"
_cell_length_a       8.5304
_cell_length_b       8.5304
_cell_length_c       8.53516
_cell_angle_alpha    119.982
_cell_angle_beta     60.0185
_cell_angle_gamma    120

_space_group_name_H-M_alt    "P 1"
_space_group_IT_number       1

loop_
  _space_group_symop_operation_xyz
  'x, y, z'

loop_
  _atom_site_type_symbol
  _atom_site_label
  _atom_site_symmetry_multiplicity
  _atom_site_fract_x
  _atom_site_fract_y
  _atom_site_fract_z
  _atom_site_occupancy
  B   B1        1.0  0.07180  0.23500  0.09110  1.0000
  B   B2        1.0  0.76500  0.92800  0.09110  1.0000
  B   B3        1.0  0.07200  0.92800  0.09110  1.0000
  B   B4        1.0  0.59900  0.40100  0.20200  1.0000
  B   B5        1.0  0.74600  0.25400  0.25700  1.0000
  B   B6        1.0  0.25100  0.25400  0.25700  1.0000
  B   B7        1.0  0.74600  0.74900  0.25700  1.0000
  B   B8        1.0  0.57200  0.42800  0.59100  1.0000
  B   B9        1.0  0.26500  0.42800  0.59100  1.0000
  B   B10       1.0  0.57200  0.73500  0.59100  1.0000
  B   B11       1.0  0.09930  0.90100  0.70200  1.0000
  B   B12       1.0  0.24600  0.24900  0.75700  1.0000
  B   B13       1.0  0.75100  0.75400  0.75700  1.0000
  B   B14       1.0  0.24600  0.75400  0.75700  1.0000
  Cl  Cl1       1.0  0.26400  0.73600  0.20900  1.0000
  Cl  Cl2       1.0  0.76400  0.23600  0.70900  1.0000
  Co  Co1       1.0  0.46800  0.53000  0.02940  1.0000
  Co  Co2       1.0  0.03160  0.53200  0.02940  1.0000
  Co  Co3       1.0  0.47000  0.96800  0.02940  1.0000
  Co  Co4       1.0  0.53200  0.02950  0.52900  1.0000
  Co  Co5       1.0  0.97000  0.03150  0.52900  1.0000
  Co  Co6       1.0  0.96800  0.46800  0.52900  1.0000
  O   O1        1.0  0.98800  0.01230  0.03680  1.0000
  O   O2        1.0  0.25400  0.06620  0.11300  1.0000
  O   O3        1.0  0.93400  0.30000  0.11300  1.0000
  O   O4        1.0  0.70000  0.74600  0.11300  1.0000
  O   O5        1.0  0.60200  0.23600  0.19200  1.0000
  O   O6        1.0  0.44200  0.39800  0.19200  1.0000
  O   O7        1.0  0.76400  0.55800  0.19200  1.0000
  O   O8        1.0  0.68900  0.06680  0.27100  1.0000
  O   O9        1.0  0.10700  0.31100  0.27100  1.0000
  O   O10       1.0  0.93300  0.89300  0.27100  1.0000
  O   O11       1.0  0.21100  0.24900  0.44200  1.0000
  O   O12       1.0  0.75100  0.40400  0.44200  1.0000
  O   O13       1.0  0.59600  0.78900  0.44200  1.0000
  O   O14       1.0  0.48800  0.51200  0.53700  1.0000
  O   O15       1.0  0.43400  0.24600  0.61300  1.0000
  O   O16       1.0  0.20000  0.56600  0.61300  1.0000
  O   O17       1.0  0.75400  0.80000  0.61300  1.0000
  O   O18       1.0  0.10200  0.05780  0.69200  1.0000
  O   O19       1.0  0.94200  0.73600  0.69200  1.0000
  O   O20       1.0  0.26400  0.89800  0.69200  1.0000
  O   O21       1.0  0.18900  0.39300  0.77100  1.0000
  O   O22       1.0  0.60700  0.56700  0.77100  1.0000
  O   O23       1.0  0.43300  0.81100  0.77100  1.0000
  O   O24       1.0  0.25100  0.28900  0.94200  1.0000
  O   O25       1.0  0.09630  0.74900  0.94200  1.0000
  O   O26       1.0  0.71100  0.90400  0.94200  1.0000
