data_image0
_chemical_formula_structural       H10K6O28P8
_chemical_formula_sum              "H10 K6 O28 P8"
_cell_length_a       8.8068
_cell_length_b       9.49566
_cell_length_c       9.63543
_cell_angle_alpha    111.818
_cell_angle_beta     117.194
_cell_angle_gamma    62.3721

_space_group_name_H-M_alt    "P 1"
_space_group_IT_number       1

loop_
  _space_group_symop_operation_xyz
  'x, y, z'

loop_
  _atom_site_type_symbol
  _atom_site_label
  _atom_site_symmetry_multiplicity
  _atom_site_fract_x
  _atom_site_fract_y
  _atom_site_fract_z
  _atom_site_occupancy
  H   H1        1.0  0.00000  0.00000  0.00000  1.0000
  H   H2        1.0  0.50300  0.69700  0.05550  1.0000
  H   H3        1.0  0.21000  0.74000  0.23000  1.0000
  H   H4        1.0  0.71900  0.76000  0.27000  1.0000
  H   H5        1.0  0.14500  0.80300  0.44400  1.0000
  H   H6        1.0  0.00000  0.50000  0.50000  1.0000
  H   H7        1.0  0.85500  0.19700  0.55600  1.0000
  H   H8        1.0  0.28100  0.24000  0.73000  1.0000
  H   H9        1.0  0.79000  0.26000  0.77000  1.0000
  H   H10       1.0  0.49700  0.30300  0.94400  1.0000
  K   K1        1.0  0.90600  0.41600  0.11500  1.0000
  K   K2        1.0  0.43900  0.25000  0.25000  1.0000
  K   K3        1.0  0.20700  0.08440  0.38500  1.0000
  K   K4        1.0  0.79300  0.91600  0.61500  1.0000
  K   K5        1.0  0.56100  0.75000  0.75000  1.0000
  K   K6        1.0  0.09450  0.58400  0.88500  1.0000
  O   O1        1.0  0.85900  0.69900  0.04680  1.0000
  O   O2        1.0  0.57800  0.25900  0.04870  1.0000
  O   O3        1.0  0.91300  0.10300  0.08140  1.0000
  O   O4        1.0  0.72600  0.00602  0.13900  1.0000
  O   O5        1.0  0.32600  0.00759  0.15000  1.0000
  O   O6        1.0  0.31700  0.66800  0.18700  1.0000
  O   O7        1.0  0.62000  0.64800  0.21200  1.0000
  O   O8        1.0  0.05600  0.85200  0.28800  1.0000
  O   O9        1.0  0.79800  0.83200  0.31300  1.0000
  O   O10       1.0  0.18400  0.49200  0.35000  1.0000
  O   O11       1.0  0.59300  0.49400  0.36100  1.0000
  O   O12       1.0  0.93400  0.39700  0.41900  1.0000
  O   O13       1.0  0.78800  0.24100  0.45100  1.0000
  O   O14       1.0  0.51000  0.80100  0.45300  1.0000
  O   O15       1.0  0.49000  0.19900  0.54700  1.0000
  O   O16       1.0  0.21200  0.75900  0.54900  1.0000
  O   O17       1.0  0.06610  0.60300  0.58100  1.0000
  O   O18       1.0  0.40700  0.50600  0.63900  1.0000
  O   O19       1.0  0.81600  0.50800  0.65000  1.0000
  O   O20       1.0  0.20200  0.16800  0.68700  1.0000
  O   O21       1.0  0.94400  0.14800  0.71200  1.0000
  O   O22       1.0  0.38000  0.35200  0.78800  1.0000
  O   O23       1.0  0.68300  0.33200  0.81300  1.0000
  O   O24       1.0  0.67400  0.99200  0.85000  1.0000
  O   O25       1.0  0.27400  0.99400  0.86100  1.0000
  O   O26       1.0  0.08740  0.89700  0.91900  1.0000
  O   O27       1.0  0.42200  0.74100  0.95100  1.0000
  O   O28       1.0  0.14100  0.30100  0.95300  1.0000
  P   P1        1.0  0.72400  0.08630  0.01680  1.0000
  P   P2        1.0  0.86900  0.83300  0.19100  1.0000
  P   P3        1.0  0.51100  0.66700  0.30900  1.0000
  P   P4        1.0  0.79400  0.41400  0.48300  1.0000
  P   P5        1.0  0.20600  0.58600  0.51700  1.0000
  P   P6        1.0  0.48900  0.33300  0.69100  1.0000
  P   P7        1.0  0.13100  0.16700  0.80900  1.0000
  P   P8        1.0  0.27600  0.91400  0.98300  1.0000
