data_image0
_chemical_formula_structural       I12Nd4O36
_chemical_formula_sum              "I12 Nd4 O36"
_cell_length_a       8.77093
_cell_length_b       5.80166
_cell_length_c       15.0331
_cell_angle_alpha    90
_cell_angle_beta     97.054
_cell_angle_gamma    90

_space_group_name_H-M_alt    "P 1"
_space_group_IT_number       1

loop_
  _space_group_symop_operation_xyz
  'x, y, z'

loop_
  _atom_site_type_symbol
  _atom_site_label
  _atom_site_symmetry_multiplicity
  _atom_site_fract_x
  _atom_site_fract_y
  _atom_site_fract_z
  _atom_site_occupancy
  I   I1        1.0  0.66100  0.14600  0.02490  1.0000
  I   I2        1.0  0.22700  0.31100  0.15300  1.0000
  I   I3        1.0  0.61600  0.59500  0.20100  1.0000
  I   I4        1.0  0.88400  0.09460  0.29900  1.0000
  I   I5        1.0  0.27300  0.81100  0.34700  1.0000
  I   I6        1.0  0.83900  0.64600  0.47500  1.0000
  I   I7        1.0  0.16100  0.35400  0.52500  1.0000
  I   I8        1.0  0.72700  0.18900  0.65300  1.0000
  I   I9        1.0  0.11600  0.90500  0.70100  1.0000
  I   I10       1.0  0.38400  0.40500  0.79900  1.0000
  I   I11       1.0  0.77300  0.68900  0.84700  1.0000
  I   I12       1.0  0.33900  0.85400  0.97500  1.0000
  Nd  Nd1       1.0  0.96200  0.76100  0.09860  1.0000
  Nd  Nd2       1.0  0.53800  0.26100  0.40100  1.0000
  Nd  Nd3       1.0  0.46200  0.73900  0.59900  1.0000
  Nd  Nd4       1.0  0.03790  0.23900  0.90100  1.0000
  O   O1        1.0  0.14400  0.90900  0.00756  1.0000
  O   O2        1.0  0.13600  0.42300  0.04430  1.0000
  O   O3        1.0  0.41400  0.09420  0.05330  1.0000
  O   O4        1.0  0.44600  0.59400  0.11600  1.0000
  O   O5        1.0  0.71500  0.96600  0.12500  1.0000
  O   O6        1.0  0.76300  0.49000  0.13100  1.0000
  O   O7        1.0  0.07130  0.10900  0.17300  1.0000
  O   O8        1.0  0.14800  0.55700  0.21100  1.0000
  O   O9        1.0  0.58600  0.30300  0.24300  1.0000
  O   O10       1.0  0.91400  0.80300  0.25700  1.0000
  O   O11       1.0  0.35200  0.05670  0.28900  1.0000
  O   O12       1.0  0.42900  0.60900  0.32700  1.0000
  O   O13       1.0  0.73700  0.99000  0.36900  1.0000
  O   O14       1.0  0.78500  0.46600  0.37500  1.0000
  O   O15       1.0  0.05390  0.09420  0.38400  1.0000
  O   O16       1.0  0.08630  0.59400  0.44700  1.0000
  O   O17       1.0  0.36400  0.92300  0.45600  1.0000
  O   O18       1.0  0.35600  0.40900  0.49200  1.0000
  O   O19       1.0  0.64400  0.59100  0.50800  1.0000
  O   O20       1.0  0.63600  0.07720  0.54400  1.0000
  O   O21       1.0  0.91400  0.40600  0.55300  1.0000
  O   O22       1.0  0.94600  0.90600  0.61600  1.0000
  O   O23       1.0  0.21500  0.53400  0.62500  1.0000
  O   O24       1.0  0.26300  0.01020  0.63100  1.0000
  O   O25       1.0  0.57100  0.39100  0.67300  1.0000
  O   O26       1.0  0.64800  0.94300  0.71100  1.0000
  O   O27       1.0  0.08570  0.19700  0.74300  1.0000
  O   O28       1.0  0.41400  0.69700  0.75700  1.0000
  O   O29       1.0  0.85200  0.44300  0.78900  1.0000
  O   O30       1.0  0.92900  0.89100  0.82700  1.0000
  O   O31       1.0  0.23700  0.51000  0.86900  1.0000
  O   O32       1.0  0.28500  0.03390  0.87500  1.0000
  O   O33       1.0  0.55400  0.40600  0.88400  1.0000
  O   O34       1.0  0.58600  0.90600  0.94700  1.0000
  O   O35       1.0  0.86400  0.57700  0.95600  1.0000
  O   O36       1.0  0.85600  0.09060  0.99200  1.0000
