data_image0
_chemical_formula_structural       O32Sb4Tl4V8
_chemical_formula_sum              "O32 Sb4 Tl4 V8"
_cell_length_a       5.58207
_cell_length_b       8.57192
_cell_length_c       14.5575
_cell_angle_alpha    90
_cell_angle_beta     89.996
_cell_angle_gamma    90

_space_group_name_H-M_alt    "P 1"
_space_group_IT_number       1

loop_
  _space_group_symop_operation_xyz
  'x, y, z'

loop_
  _atom_site_type_symbol
  _atom_site_label
  _atom_site_symmetry_multiplicity
  _atom_site_fract_x
  _atom_site_fract_y
  _atom_site_fract_z
  _atom_site_occupancy
  O   O1        1.0  0.50300  0.28000  0.03040  1.0000
  O   O2        1.0  0.99600  0.28000  0.03070  1.0000
  O   O3        1.0  0.75000  0.99500  0.04210  1.0000
  O   O4        1.0  0.75000  0.70600  0.13200  1.0000
  O   O5        1.0  0.25000  0.86500  0.13400  1.0000
  O   O6        1.0  0.75000  0.39600  0.17700  1.0000
  O   O7        1.0  0.50900  0.11200  0.20300  1.0000
  O   O8        1.0  0.99100  0.11200  0.20300  1.0000
  O   O9        1.0  0.00873  0.61200  0.29700  1.0000
  O   O10       1.0  0.49100  0.61200  0.29700  1.0000
  O   O11       1.0  0.25000  0.89600  0.32300  1.0000
  O   O12       1.0  0.75000  0.36500  0.36600  1.0000
  O   O13       1.0  0.25000  0.20600  0.36800  1.0000
  O   O14       1.0  0.25000  0.49500  0.45800  1.0000
  O   O15       1.0  0.00358  0.78000  0.46900  1.0000
  O   O16       1.0  0.49700  0.78000  0.47000  1.0000
  O   O17       1.0  0.50300  0.22000  0.53000  1.0000
  O   O18       1.0  0.99600  0.22000  0.53100  1.0000
  O   O19       1.0  0.75000  0.50500  0.54200  1.0000
  O   O20       1.0  0.75000  0.79400  0.63200  1.0000
  O   O21       1.0  0.25000  0.63500  0.63400  1.0000
  O   O22       1.0  0.75000  0.10400  0.67700  1.0000
  O   O23       1.0  0.50900  0.38800  0.70300  1.0000
  O   O24       1.0  0.99100  0.38800  0.70300  1.0000
  O   O25       1.0  0.00873  0.88800  0.79700  1.0000
  O   O26       1.0  0.49100  0.88800  0.79700  1.0000
  O   O27       1.0  0.25000  0.60400  0.82300  1.0000
  O   O28       1.0  0.75000  0.13500  0.86600  1.0000
  O   O29       1.0  0.25000  0.29400  0.86800  1.0000
  O   O30       1.0  0.25000  0.00490  0.95800  1.0000
  O   O31       1.0  0.00358  0.72000  0.96900  1.0000
  O   O32       1.0  0.49700  0.72000  0.97000  1.0000
  Sb  Sb1       1.0  0.75000  0.19100  0.11400  1.0000
  Sb  Sb2       1.0  0.25000  0.69100  0.38600  1.0000
  Sb  Sb3       1.0  0.75000  0.30900  0.61400  1.0000
  Sb  Sb4       1.0  0.25000  0.80900  0.88600  1.0000
  Tl  Tl1       1.0  0.25000  0.55600  0.12100  1.0000
  Tl  Tl2       1.0  0.75000  0.05600  0.37900  1.0000
  Tl  Tl3       1.0  0.25000  0.94400  0.62100  1.0000
  Tl  Tl4       1.0  0.75000  0.44400  0.87900  1.0000
  V   V1        1.0  0.75000  0.79300  0.03200  1.0000
  V   V2        1.0  0.25000  0.99400  0.21600  1.0000
  V   V3        1.0  0.75000  0.49400  0.28400  1.0000
  V   V4        1.0  0.25000  0.29300  0.46800  1.0000
  V   V5        1.0  0.75000  0.70700  0.53200  1.0000
  V   V6        1.0  0.25000  0.50600  0.71600  1.0000
  V   V7        1.0  0.75000  0.00588  0.78400  1.0000
  V   V8        1.0  0.25000  0.20700  0.96800  1.0000
