data_image0
_chemical_formula_structural       Be16Na10O22Rb2
_chemical_formula_sum              "Be16 Na10 O22 Rb2"
_cell_length_a       10.5133
_cell_length_b       6.42183
_cell_length_c       9.44102
_cell_angle_alpha    110.008
_cell_angle_beta     115.197
_cell_angle_gamma    90.5381

_space_group_name_H-M_alt    "P 1"
_space_group_IT_number       1

loop_
  _space_group_symop_operation_xyz
  'x, y, z'

loop_
  _atom_site_type_symbol
  _atom_site_label
  _atom_site_symmetry_multiplicity
  _atom_site_fract_x
  _atom_site_fract_y
  _atom_site_fract_z
  _atom_site_occupancy
  Be  Be1       1.0  0.72400  0.53500  0.08700  1.0000
  Be  Be2       1.0  0.35500  0.89200  0.11000  1.0000
  Be  Be3       1.0  0.29800  0.24800  0.15600  1.0000
  Be  Be4       1.0  0.27200  0.59900  0.21500  1.0000
  Be  Be5       1.0  0.24100  0.94700  0.28200  1.0000
  Be  Be6       1.0  0.21500  0.30200  0.34400  1.0000
  Be  Be7       1.0  0.15000  0.66100  0.38800  1.0000
  Be  Be8       1.0  0.74500  0.90400  0.40700  1.0000
  Be  Be9       1.0  0.25500  0.09610  0.59300  1.0000
  Be  Be10      1.0  0.85000  0.33900  0.61200  1.0000
  Be  Be11      1.0  0.78500  0.69800  0.65600  1.0000
  Be  Be12      1.0  0.75900  0.05330  0.71800  1.0000
  Be  Be13      1.0  0.72800  0.40100  0.78500  1.0000
  Be  Be14      1.0  0.70200  0.75200  0.84400  1.0000
  Be  Be15      1.0  0.64500  0.10800  0.89000  1.0000
  Be  Be16      1.0  0.27600  0.46500  0.91300  1.0000
  Na  Na1       1.0  0.97300  0.30600  0.05450  1.0000
  Na  Na2       1.0  0.62800  0.00966  0.13800  1.0000
  Na  Na3       1.0  0.53900  0.52500  0.26400  1.0000
  Na  Na4       1.0  0.85700  0.45700  0.36300  1.0000
  Na  Na5       1.0  0.51900  0.19900  0.44700  1.0000
  Na  Na6       1.0  0.48100  0.80100  0.55300  1.0000
  Na  Na7       1.0  0.14300  0.54300  0.63700  1.0000
  Na  Na8       1.0  0.46100  0.47500  0.73600  1.0000
  Na  Na9       1.0  0.37200  0.99000  0.86200  1.0000
  Na  Na10      1.0  0.02680  0.69400  0.94600  1.0000
  O   O1        1.0  0.24400  0.39900  0.03890  1.0000
  O   O2        1.0  0.71500  0.28700  0.07230  1.0000
  O   O3        1.0  0.43000  0.13100  0.15000  1.0000
  O   O4        1.0  0.17700  0.07860  0.15100  1.0000
  O   O5        1.0  0.13700  0.71300  0.23100  1.0000
  O   O6        1.0  0.71700  0.71200  0.24000  1.0000
  O   O7        1.0  0.37800  0.82900  0.26700  1.0000
  O   O8        1.0  0.33600  0.46600  0.34400  1.0000
  O   O9        1.0  0.08350  0.42100  0.35500  1.0000
  O   O10       1.0  0.79000  0.15000  0.43400  1.0000
  O   O11       1.0  0.28000  0.15400  0.46000  1.0000
  O   O12       1.0  0.72000  0.84600  0.54000  1.0000
  O   O13       1.0  0.21000  0.85000  0.56600  1.0000
  O   O14       1.0  0.91600  0.57900  0.64500  1.0000
  O   O15       1.0  0.66400  0.53400  0.65600  1.0000
  O   O16       1.0  0.62200  0.17100  0.73300  1.0000
  O   O17       1.0  0.28300  0.28800  0.76000  1.0000
  O   O18       1.0  0.86300  0.28700  0.76900  1.0000
  O   O19       1.0  0.82300  0.92100  0.84900  1.0000
  O   O20       1.0  0.57000  0.86900  0.85000  1.0000
  O   O21       1.0  0.28500  0.71300  0.92800  1.0000
  O   O22       1.0  0.75600  0.60100  0.96100  1.0000
  Rb  Rb1       1.0  0.93900  0.98700  0.23800  1.0000
  Rb  Rb2       1.0  0.06130  0.01310  0.76200  1.0000
