data_image0
_chemical_formula_structural       Al8H6O30P6
_chemical_formula_sum              "Al8 H6 O30 P6"
_cell_length_a       7.15471
_cell_length_b       7.1308
_cell_length_c       10.1198
_cell_angle_alpha    100.948
_cell_angle_beta     110.702
_cell_angle_gamma    90

_space_group_name_H-M_alt    "P 1"
_space_group_IT_number       1

loop_
  _space_group_symop_operation_xyz
  'x, y, z'

loop_
  _atom_site_type_symbol
  _atom_site_label
  _atom_site_symmetry_multiplicity
  _atom_site_fract_x
  _atom_site_fract_y
  _atom_site_fract_z
  _atom_site_occupancy
  Al  Al1       1.0  0.80500  0.16000  0.15200  1.0000
  Al  Al2       1.0  0.34700  0.66000  0.15200  1.0000
  Al  Al3       1.0  0.17400  0.34900  0.33600  1.0000
  Al  Al4       1.0  0.16100  0.84900  0.33600  1.0000
  Al  Al5       1.0  0.83900  0.15100  0.66400  1.0000
  Al  Al6       1.0  0.82600  0.65100  0.66400  1.0000
  Al  Al7       1.0  0.19500  0.84000  0.84800  1.0000
  Al  Al8       1.0  0.65300  0.34000  0.84800  1.0000
  H   H1        1.0  0.49900  0.25000  0.00000  1.0000
  H   H2        1.0  0.50100  0.75000  0.00000  1.0000
  H   H3        1.0  0.99300  0.11000  0.40600  1.0000
  H   H4        1.0  0.41300  0.61000  0.40600  1.0000
  H   H5        1.0  0.58700  0.39000  0.59400  1.0000
  H   H6        1.0  0.00689  0.89000  0.59400  1.0000
  O   O1        1.0  0.63500  0.25000  0.00000  1.0000
  O   O2        1.0  0.36500  0.75000  0.00000  1.0000
  O   O3        1.0  0.26200  0.42400  0.04150  1.0000
  O   O4        1.0  0.78000  0.92400  0.04150  1.0000
  O   O5        1.0  0.05410  0.23900  0.13000  1.0000
  O   O6        1.0  0.07560  0.73900  0.13000  1.0000
  O   O7        1.0  0.60300  0.60600  0.22100  1.0000
  O   O8        1.0  0.61800  0.10600  0.22100  1.0000
  O   O9        1.0  0.89800  0.40800  0.28300  1.0000
  O   O10       1.0  0.38400  0.90800  0.28300  1.0000
  O   O11       1.0  0.03920  0.09350  0.32300  1.0000
  O   O12       1.0  0.28400  0.59400  0.32300  1.0000
  O   O13       1.0  0.94800  0.76200  0.36900  1.0000
  O   O14       1.0  0.42000  0.26200  0.36900  1.0000
  O   O15       1.0  0.77100  0.56400  0.47500  1.0000
  O   O16       1.0  0.70400  0.06390  0.47500  1.0000
  O   O17       1.0  0.29600  0.93600  0.52500  1.0000
  O   O18       1.0  0.22900  0.43600  0.52500  1.0000
  O   O19       1.0  0.58000  0.73800  0.63100  1.0000
  O   O20       1.0  0.05190  0.23800  0.63100  1.0000
  O   O21       1.0  0.71600  0.40600  0.67700  1.0000
  O   O22       1.0  0.96100  0.90600  0.67700  1.0000
  O   O23       1.0  0.61600  0.09220  0.71700  1.0000
  O   O24       1.0  0.10200  0.59200  0.71700  1.0000
  O   O25       1.0  0.38200  0.89400  0.77900  1.0000
  O   O26       1.0  0.39700  0.39400  0.77900  1.0000
  O   O27       1.0  0.94600  0.76100  0.87000  1.0000
  O   O28       1.0  0.92400  0.26100  0.87000  1.0000
  O   O29       1.0  0.22000  0.07560  0.95800  1.0000
  O   O30       1.0  0.73800  0.57600  0.95800  1.0000
  P   P1        1.0  0.11900  0.25000  0.00000  1.0000
  P   P2        1.0  0.88100  0.75000  0.00000  1.0000
  P   P3        1.0  0.80100  0.58900  0.33700  1.0000
  P   P4        1.0  0.53600  0.08930  0.33700  1.0000
  P   P5        1.0  0.46400  0.91100  0.66300  1.0000
  P   P6        1.0  0.19900  0.41100  0.66300  1.0000
