data_image0
_chemical_formula_structural       Co8Gd8O28Sr4
_chemical_formula_sum              "Co8 Gd8 O28 Sr4"
_cell_length_a       5.38511
_cell_length_b       5.38511
_cell_length_c       19.4389
_cell_angle_alpha    90
_cell_angle_beta     90
_cell_angle_gamma    90

_space_group_name_H-M_alt    "P 1"
_space_group_IT_number       1

loop_
  _space_group_symop_operation_xyz
  'x, y, z'

loop_
  _atom_site_type_symbol
  _atom_site_label
  _atom_site_symmetry_multiplicity
  _atom_site_fract_x
  _atom_site_fract_y
  _atom_site_fract_z
  _atom_site_occupancy
  Co  Co1       1.0  0.75300  0.24700  0.10000  1.0000
  Co  Co2       1.0  0.24700  0.75300  0.10000  1.0000
  Co  Co3       1.0  0.25300  0.25300  0.40000  1.0000
  Co  Co4       1.0  0.74700  0.74700  0.40000  1.0000
  Co  Co5       1.0  0.25300  0.25300  0.60000  1.0000
  Co  Co6       1.0  0.74700  0.74700  0.60000  1.0000
  Co  Co7       1.0  0.75300  0.24700  0.90000  1.0000
  Co  Co8       1.0  0.24700  0.75300  0.90000  1.0000
  Gd  Gd1       1.0  0.26900  0.26900  0.18100  1.0000
  Gd  Gd2       1.0  0.73100  0.73100  0.18100  1.0000
  Gd  Gd3       1.0  0.76900  0.23100  0.31900  1.0000
  Gd  Gd4       1.0  0.23100  0.76900  0.31900  1.0000
  Gd  Gd5       1.0  0.76900  0.23100  0.68100  1.0000
  Gd  Gd6       1.0  0.23100  0.76900  0.68100  1.0000
  Gd  Gd7       1.0  0.26900  0.26900  0.81900  1.0000
  Gd  Gd8       1.0  0.73100  0.73100  0.81900  1.0000
  O   O1        1.0  0.77800  0.22200  0.00000  1.0000
  O   O2        1.0  0.22200  0.77800  0.00000  1.0000
  O   O3        1.0  0.50000  0.50000  0.09300  1.0000
  O   O4        1.0  0.50000  0.00000  0.10700  1.0000
  O   O5        1.0  0.00000  0.50000  0.10700  1.0000
  O   O6        1.0  0.00000  0.00000  0.12100  1.0000
  O   O7        1.0  0.70500  0.29500  0.20700  1.0000
  O   O8        1.0  0.29500  0.70500  0.20700  1.0000
  O   O9        1.0  0.20500  0.20500  0.29300  1.0000
  O   O10       1.0  0.79500  0.79500  0.29300  1.0000
  O   O11       1.0  0.50000  0.50000  0.37900  1.0000
  O   O12       1.0  0.50000  0.00000  0.39300  1.0000
  O   O13       1.0  0.00000  0.50000  0.39300  1.0000
  O   O14       1.0  0.00000  0.00000  0.40700  1.0000
  O   O15       1.0  0.27800  0.27800  0.50000  1.0000
  O   O16       1.0  0.72200  0.72200  0.50000  1.0000
  O   O17       1.0  0.00000  0.00000  0.59300  1.0000
  O   O18       1.0  0.50000  0.00000  0.60700  1.0000
  O   O19       1.0  0.00000  0.50000  0.60700  1.0000
  O   O20       1.0  0.50000  0.50000  0.62100  1.0000
  O   O21       1.0  0.20500  0.20500  0.70700  1.0000
  O   O22       1.0  0.79500  0.79500  0.70700  1.0000
  O   O23       1.0  0.70500  0.29500  0.79300  1.0000
  O   O24       1.0  0.29500  0.70500  0.79300  1.0000
  O   O25       1.0  0.00000  0.00000  0.87900  1.0000
  O   O26       1.0  0.50000  0.00000  0.89300  1.0000
  O   O27       1.0  0.00000  0.50000  0.89300  1.0000
  O   O28       1.0  0.50000  0.50000  0.90700  1.0000
  Sr  Sr1       1.0  0.25400  0.25400  0.00000  1.0000
  Sr  Sr2       1.0  0.74600  0.74600  0.00000  1.0000
  Sr  Sr3       1.0  0.75400  0.24600  0.50000  1.0000
  Sr  Sr4       1.0  0.24600  0.75400  0.50000  1.0000
