data_image0
_chemical_formula_structural       H12O28Rb4W4
_chemical_formula_sum              "H12 O28 Rb4 W4"
_cell_length_a       6.17427
_cell_length_b       7.89481
_cell_length_c       12.0864
_cell_angle_alpha    105.926
_cell_angle_beta     93.7801
_cell_angle_gamma    104.701

_space_group_name_H-M_alt    "P 1"
_space_group_IT_number       1

loop_
  _space_group_symop_operation_xyz
  'x, y, z'

loop_
  _atom_site_type_symbol
  _atom_site_label
  _atom_site_symmetry_multiplicity
  _atom_site_fract_x
  _atom_site_fract_y
  _atom_site_fract_z
  _atom_site_occupancy
  H   H1        1.0  0.16200  0.02280  0.06850  1.0000
  H   H2        1.0  0.40800  0.00825  0.08590  1.0000
  H   H3        1.0  0.34700  0.51500  0.18700  1.0000
  H   H4        1.0  0.35800  0.70700  0.27000  1.0000
  H   H5        1.0  0.21900  0.26500  0.27700  1.0000
  H   H6        1.0  0.39700  0.44800  0.35400  1.0000
  H   H7        1.0  0.60300  0.55200  0.64600  1.0000
  H   H8        1.0  0.78100  0.73500  0.72300  1.0000
  H   H9        1.0  0.64200  0.29300  0.73000  1.0000
  H   H10       1.0  0.65300  0.48500  0.81300  1.0000
  H   H11       1.0  0.59200  0.99200  0.91400  1.0000
  H   H12       1.0  0.83800  0.97700  0.93200  1.0000
  O   O1        1.0  0.21300  0.59200  0.00254  1.0000
  O   O2        1.0  0.26700  0.96000  0.02800  1.0000
  O   O3        1.0  0.56800  0.34000  0.03870  1.0000
  O   O4        1.0  0.13300  0.30500  0.09060  1.0000
  O   O5        1.0  0.05400  0.17400  0.15800  1.0000
  O   O6        1.0  0.61000  0.14800  0.19400  1.0000
  O   O7        1.0  0.90700  0.50300  0.24200  1.0000
  O   O8        1.0  0.44000  0.61300  0.25500  1.0000
  O   O9        1.0  0.27500  0.93800  0.27300  1.0000
  O   O10       1.0  0.33300  0.31800  0.35000  1.0000
  O   O11       1.0  0.75000  0.99600  0.35800  1.0000
  O   O12       1.0  0.29900  0.99300  0.40300  1.0000
  O   O13       1.0  0.77800  0.37500  0.42000  1.0000
  O   O14       1.0  0.34500  0.69500  0.49200  1.0000
  O   O15       1.0  0.65500  0.30500  0.50800  1.0000
  O   O16       1.0  0.22200  0.62500  0.58000  1.0000
  O   O17       1.0  0.70100  0.00744  0.59700  1.0000
  O   O18       1.0  0.25000  0.00368  0.64200  1.0000
  O   O19       1.0  0.66700  0.68200  0.65000  1.0000
  O   O20       1.0  0.72500  0.06240  0.72700  1.0000
  O   O21       1.0  0.56000  0.38700  0.74500  1.0000
  O   O22       1.0  0.09290  0.49700  0.75800  1.0000
  O   O23       1.0  0.39000  0.85200  0.80600  1.0000
  O   O24       1.0  0.94600  0.82600  0.84200  1.0000
  O   O25       1.0  0.86700  0.69500  0.90900  1.0000
  O   O26       1.0  0.43200  0.66000  0.96100  1.0000
  O   O27       1.0  0.73300  0.04020  0.97200  1.0000
  O   O28       1.0  0.78700  0.40800  0.99700  1.0000
  Rb  Rb1       1.0  0.80200  0.77600  0.14400  1.0000
  Rb  Rb2       1.0  0.89000  0.74400  0.45400  1.0000
  Rb  Rb3       1.0  0.11000  0.25600  0.54600  1.0000
  Rb  Rb4       1.0  0.19800  0.22400  0.85600  1.0000
  W   W1        1.0  0.82300  0.30400  0.12500  1.0000
  W   W2        1.0  0.56500  0.12900  0.35100  1.0000
  W   W3        1.0  0.43500  0.87100  0.64900  1.0000
  W   W4        1.0  0.17700  0.69600  0.87500  1.0000
