data_image0
_chemical_formula_structural       In8Na20Te24
_chemical_formula_sum              "In8 Na20 Te24"
_cell_length_a       8.89404
_cell_length_b       8.89404
_cell_length_c       23.5931
_cell_angle_alpha    90
_cell_angle_beta     90
_cell_angle_gamma    118.828

_space_group_name_H-M_alt    "P 1"
_space_group_IT_number       1

loop_
  _space_group_symop_operation_xyz
  'x, y, z'

loop_
  _atom_site_type_symbol
  _atom_site_label
  _atom_site_symmetry_multiplicity
  _atom_site_fract_x
  _atom_site_fract_y
  _atom_site_fract_z
  _atom_site_occupancy
  In  In1       1.0  0.96700  0.03320  0.12000  1.0000
  In  In2       1.0  0.48800  0.51200  0.12000  1.0000
  In  In3       1.0  0.73400  0.26600  0.37800  1.0000
  In  In4       1.0  0.21700  0.78300  0.38300  1.0000
  In  In5       1.0  0.03320  0.96700  0.62000  1.0000
  In  In6       1.0  0.51200  0.48800  0.62000  1.0000
  In  In7       1.0  0.26600  0.73400  0.87800  1.0000
  In  In8       1.0  0.78300  0.21700  0.88300  1.0000
  Na  Na1       1.0  0.18300  0.43200  0.00000  1.0000
  Na  Na2       1.0  0.56800  0.81700  0.00000  1.0000
  Na  Na3       1.0  0.43300  0.08520  0.08810  1.0000
  Na  Na4       1.0  0.91500  0.56700  0.08810  1.0000
  Na  Na5       1.0  0.25500  0.24900  0.24800  1.0000
  Na  Na6       1.0  0.75100  0.74500  0.24800  1.0000
  Na  Na7       1.0  0.00983  0.50500  0.25300  1.0000
  Na  Na8       1.0  0.49500  0.99000  0.25300  1.0000
  Na  Na9       1.0  0.15800  0.31600  0.41300  1.0000
  Na  Na10      1.0  0.68400  0.84200  0.41300  1.0000
  Na  Na11      1.0  0.43200  0.18300  0.50000  1.0000
  Na  Na12      1.0  0.81700  0.56800  0.50000  1.0000
  Na  Na13      1.0  0.08520  0.43300  0.58800  1.0000
  Na  Na14      1.0  0.56700  0.91500  0.58800  1.0000
  Na  Na15      1.0  0.24900  0.25500  0.74800  1.0000
  Na  Na16      1.0  0.74500  0.75100  0.74800  1.0000
  Na  Na17      1.0  0.50500  0.00983  0.75300  1.0000
  Na  Na18      1.0  0.99000  0.49500  0.75300  1.0000
  Na  Na19      1.0  0.31600  0.15800  0.91300  1.0000
  Na  Na20      1.0  0.84200  0.68400  0.91300  1.0000
  Te  Te1       1.0  0.77900  0.22100  0.00416  1.0000
  Te  Te2       1.0  0.54800  0.45200  0.00690  1.0000
  Te  Te3       1.0  0.13200  0.39400  0.14100  1.0000
  Te  Te4       1.0  0.60600  0.86800  0.14100  1.0000
  Te  Te5       1.0  0.12400  0.87600  0.17800  1.0000
  Te  Te6       1.0  0.63200  0.36800  0.19100  1.0000
  Te  Te7       1.0  0.87900  0.12100  0.30800  1.0000
  Te  Te8       1.0  0.37300  0.62700  0.32400  1.0000
  Te  Te9       1.0  0.37500  0.14200  0.36000  1.0000
  Te  Te10      1.0  0.85800  0.62500  0.36000  1.0000
  Te  Te11      1.0  0.79600  0.20400  0.49100  1.0000
  Te  Te12      1.0  0.02910  0.97100  0.49800  1.0000
  Te  Te13      1.0  0.22100  0.77900  0.50400  1.0000
  Te  Te14      1.0  0.45200  0.54800  0.50700  1.0000
  Te  Te15      1.0  0.39400  0.13200  0.64100  1.0000
  Te  Te16      1.0  0.86800  0.60600  0.64100  1.0000
  Te  Te17      1.0  0.87600  0.12400  0.67800  1.0000
  Te  Te18      1.0  0.36800  0.63200  0.69100  1.0000
  Te  Te19      1.0  0.12100  0.87900  0.80800  1.0000
  Te  Te20      1.0  0.62700  0.37300  0.82400  1.0000
  Te  Te21      1.0  0.14200  0.37500  0.86000  1.0000
  Te  Te22      1.0  0.62500  0.85800  0.86000  1.0000
  Te  Te23      1.0  0.20400  0.79600  0.99100  1.0000
  Te  Te24      1.0  0.97100  0.02910  0.99800  1.0000
