data_image0
_chemical_formula_structural       C12Cl8H8O16Ru4
_chemical_formula_sum              "C12 Cl8 H8 O16 Ru4"
_cell_length_a       6.09629
_cell_length_b       10.0924
_cell_length_c       11.608
_cell_angle_alpha    90
_cell_angle_beta     97.6407
_cell_angle_gamma    90.0001

_space_group_name_H-M_alt    "P 1"
_space_group_IT_number       1

loop_
  _space_group_symop_operation_xyz
  'x, y, z'

loop_
  _atom_site_type_symbol
  _atom_site_label
  _atom_site_symmetry_multiplicity
  _atom_site_fract_x
  _atom_site_fract_y
  _atom_site_fract_z
  _atom_site_occupancy
  C   C1        1.0  0.73100  0.86400  0.02210  1.0000
  C   C2        1.0  0.92500  0.71400  0.20700  1.0000
  C   C3        1.0  0.53300  0.83700  0.21400  1.0000
  C   C4        1.0  0.96700  0.33700  0.28600  1.0000
  C   C5        1.0  0.57500  0.21400  0.29300  1.0000
  C   C6        1.0  0.76900  0.36400  0.47800  1.0000
  C   C7        1.0  0.23100  0.63600  0.52200  1.0000
  C   C8        1.0  0.42500  0.78600  0.70700  1.0000
  C   C9        1.0  0.03270  0.66300  0.71400  1.0000
  C   C10       1.0  0.46700  0.16300  0.78600  1.0000
  C   C11       1.0  0.07510  0.28600  0.79300  1.0000
  C   C12       1.0  0.26900  0.13600  0.97800  1.0000
  Cl  Cl1       1.0  0.71000  0.28000  0.00941  1.0000
  Cl  Cl2       1.0  0.53300  0.53300  0.22000  1.0000
  Cl  Cl3       1.0  0.96700  0.03260  0.28000  1.0000
  Cl  Cl4       1.0  0.79000  0.78000  0.49100  1.0000
  Cl  Cl5       1.0  0.21000  0.22000  0.50900  1.0000
  Cl  Cl6       1.0  0.03280  0.96700  0.72000  1.0000
  Cl  Cl7       1.0  0.46700  0.46700  0.78000  1.0000
  Cl  Cl8       1.0  0.29000  0.72000  0.99100  1.0000
  H   H1        1.0  0.76400  0.48500  0.02210  1.0000
  H   H2        1.0  0.34300  0.43000  0.08140  1.0000
  H   H3        1.0  0.15700  0.93000  0.41900  1.0000
  H   H4        1.0  0.73600  0.98500  0.47800  1.0000
  H   H5        1.0  0.26400  0.01460  0.52200  1.0000
  H   H6        1.0  0.84300  0.07040  0.58100  1.0000
  H   H7        1.0  0.65700  0.57000  0.91900  1.0000
  H   H8        1.0  0.23600  0.51500  0.97800  1.0000
  O   O1        1.0  0.24200  0.42100  0.00681  1.0000
  O   O2        1.0  0.22400  0.04620  0.03140  1.0000
  O   O3        1.0  0.04440  0.40800  0.22500  1.0000
  O   O4        1.0  0.40900  0.21100  0.23400  1.0000
  O   O5        1.0  0.09160  0.71100  0.26600  1.0000
  O   O6        1.0  0.45600  0.90900  0.27500  1.0000
  O   O7        1.0  0.27600  0.54600  0.46900  1.0000
  O   O8        1.0  0.25800  0.92100  0.49300  1.0000
  O   O9        1.0  0.74200  0.07870  0.50700  1.0000
  O   O10       1.0  0.72400  0.45400  0.53100  1.0000
  O   O11       1.0  0.54400  0.09160  0.72500  1.0000
  O   O12       1.0  0.90900  0.28900  0.73400  1.0000
  O   O13       1.0  0.59200  0.78900  0.76600  1.0000
  O   O14       1.0  0.95600  0.59100  0.77500  1.0000
  O   O15       1.0  0.77600  0.95400  0.96900  1.0000
  O   O16       1.0  0.75800  0.57900  0.99300  1.0000
  Ru  Ru1       1.0  0.64600  0.71900  0.11200  1.0000
  Ru  Ru2       1.0  0.85400  0.21900  0.38800  1.0000
  Ru  Ru3       1.0  0.14600  0.78100  0.61200  1.0000
  Ru  Ru4       1.0  0.35400  0.28100  0.88800  1.0000
