data_image0
_chemical_formula_structural       Hg20I24Sb8
_chemical_formula_sum              "Hg20 I24 Sb8"
_cell_length_a       8.23414
_cell_length_b       10.854
_cell_length_c       21.5609
_cell_angle_alpha    90
_cell_angle_beta     90
_cell_angle_gamma    90

_space_group_name_H-M_alt    "P 1"
_space_group_IT_number       1

loop_
  _space_group_symop_operation_xyz
  'x, y, z'

loop_
  _atom_site_type_symbol
  _atom_site_label
  _atom_site_symmetry_multiplicity
  _atom_site_fract_x
  _atom_site_fract_y
  _atom_site_fract_z
  _atom_site_occupancy
  Hg  Hg1       1.0  0.74300  0.14200  0.02050  1.0000
  Hg  Hg2       1.0  0.55400  0.49700  0.10100  1.0000
  Hg  Hg3       1.0  0.41900  0.90500  0.11300  1.0000
  Hg  Hg4       1.0  0.90800  0.77700  0.17500  1.0000
  Hg  Hg5       1.0  0.85100  0.16600  0.22900  1.0000
  Hg  Hg6       1.0  0.35100  0.66600  0.27100  1.0000
  Hg  Hg7       1.0  0.40800  0.27700  0.32500  1.0000
  Hg  Hg8       1.0  0.91900  0.40500  0.38700  1.0000
  Hg  Hg9       1.0  0.05350  0.99700  0.39900  1.0000
  Hg  Hg10      1.0  0.24300  0.64200  0.48000  1.0000
  Hg  Hg11      1.0  0.75700  0.14200  0.52000  1.0000
  Hg  Hg12      1.0  0.94600  0.49700  0.60100  1.0000
  Hg  Hg13      1.0  0.08140  0.90500  0.61300  1.0000
  Hg  Hg14      1.0  0.59200  0.77700  0.67500  1.0000
  Hg  Hg15      1.0  0.64900  0.16600  0.72900  1.0000
  Hg  Hg16      1.0  0.14900  0.66600  0.77100  1.0000
  Hg  Hg17      1.0  0.09200  0.27700  0.82500  1.0000
  Hg  Hg18      1.0  0.58100  0.40500  0.88700  1.0000
  Hg  Hg19      1.0  0.44600  0.99700  0.89900  1.0000
  Hg  Hg20      1.0  0.25700  0.64200  0.98000  1.0000
  I   I1        1.0  0.80400  0.41800  0.01120  1.0000
  I   I2        1.0  0.70900  0.78400  0.05480  1.0000
  I   I3        1.0  0.00779  0.10900  0.12100  1.0000
  I   I4        1.0  0.49800  0.15700  0.12200  1.0000
  I   I5        1.0  0.75500  0.50100  0.20800  1.0000
  I   I6        1.0  0.17800  0.38200  0.24800  1.0000
  I   I7        1.0  0.67800  0.88200  0.25200  1.0000
  I   I8        1.0  0.25500  0.00148  0.29200  1.0000
  I   I9        1.0  0.99800  0.65700  0.37800  1.0000
  I   I10       1.0  0.50800  0.60900  0.37900  1.0000
  I   I11       1.0  0.20900  0.28400  0.44500  1.0000
  I   I12       1.0  0.30400  0.91800  0.48900  1.0000
  I   I13       1.0  0.69600  0.41800  0.51100  1.0000
  I   I14       1.0  0.79100  0.78400  0.55500  1.0000
  I   I15       1.0  0.49200  0.10900  0.62100  1.0000
  I   I16       1.0  0.00217  0.15700  0.62200  1.0000
  I   I17       1.0  0.74500  0.50100  0.70800  1.0000
  I   I18       1.0  0.32200  0.38200  0.74800  1.0000
  I   I19       1.0  0.82200  0.88200  0.75200  1.0000
  I   I20       1.0  0.24500  0.00148  0.79200  1.0000
  I   I21       1.0  0.50200  0.65700  0.87800  1.0000
  I   I22       1.0  0.99200  0.60900  0.87900  1.0000
  I   I23       1.0  0.29100  0.28400  0.94500  1.0000
  I   I24       1.0  0.19600  0.91800  0.98900  1.0000
  Sb  Sb1       1.0  0.22500  0.49900  0.08340  1.0000
  Sb  Sb2       1.0  0.22600  0.71900  0.15800  1.0000
  Sb  Sb3       1.0  0.72600  0.21900  0.34200  1.0000
  Sb  Sb4       1.0  0.72500  0.99900  0.41700  1.0000
  Sb  Sb5       1.0  0.27500  0.49900  0.58300  1.0000
  Sb  Sb6       1.0  0.27400  0.71900  0.65800  1.0000
  Sb  Sb7       1.0  0.77400  0.21900  0.84200  1.0000
  Sb  Sb8       1.0  0.77500  0.99900  0.91700  1.0000
