data_image0
_chemical_formula_structural       C8Cu4H16N8O8S8
_chemical_formula_sum              "C8 Cu4 H16 N8 O8 S8"
_cell_length_a       14.5248
_cell_length_b       5.16493
_cell_length_c       8.6887
_cell_angle_alpha    90
_cell_angle_beta     90
_cell_angle_gamma    90

_space_group_name_H-M_alt    "P 1"
_space_group_IT_number       1

loop_
  _space_group_symop_operation_xyz
  'x, y, z'

loop_
  _atom_site_type_symbol
  _atom_site_label
  _atom_site_symmetry_multiplicity
  _atom_site_fract_x
  _atom_site_fract_y
  _atom_site_fract_z
  _atom_site_occupancy
  C   C1        1.0  0.72800  0.75000  0.07860  1.0000
  C   C2        1.0  0.59600  0.25000  0.20700  1.0000
  C   C3        1.0  0.09630  0.25000  0.29300  1.0000
  C   C4        1.0  0.22800  0.75000  0.42100  1.0000
  C   C5        1.0  0.77200  0.25000  0.57900  1.0000
  C   C6        1.0  0.90400  0.75000  0.70700  1.0000
  C   C7        1.0  0.40400  0.75000  0.79300  1.0000
  C   C8        1.0  0.27200  0.25000  0.92100  1.0000
  Cu  Cu1       1.0  0.32200  0.75000  0.11000  1.0000
  Cu  Cu2       1.0  0.82200  0.75000  0.39000  1.0000
  Cu  Cu3       1.0  0.17800  0.25000  0.61000  1.0000
  Cu  Cu4       1.0  0.67800  0.25000  0.89000  1.0000
  H   H1        1.0  0.13600  0.59900  0.03850  1.0000
  H   H2        1.0  0.13600  0.90100  0.03850  1.0000
  H   H3        1.0  0.97800  0.59800  0.22100  1.0000
  H   H4        1.0  0.97800  0.90200  0.22100  1.0000
  H   H5        1.0  0.47800  0.59800  0.27900  1.0000
  H   H6        1.0  0.47800  0.90200  0.27900  1.0000
  H   H7        1.0  0.63600  0.59900  0.46100  1.0000
  H   H8        1.0  0.63600  0.90100  0.46100  1.0000
  H   H9        1.0  0.36400  0.09920  0.53900  1.0000
  H   H10       1.0  0.36400  0.40100  0.53900  1.0000
  H   H11       1.0  0.52200  0.09810  0.72100  1.0000
  H   H12       1.0  0.52200  0.40200  0.72100  1.0000
  H   H13       1.0  0.02160  0.09810  0.77900  1.0000
  H   H14       1.0  0.02160  0.40200  0.77900  1.0000
  H   H15       1.0  0.86400  0.09920  0.96100  1.0000
  H   H16       1.0  0.86400  0.40100  0.96100  1.0000
  N   N1        1.0  0.62900  0.25000  0.08350  1.0000
  N   N2        1.0  0.76400  0.75000  0.20000  1.0000
  N   N3        1.0  0.26400  0.75000  0.30000  1.0000
  N   N4        1.0  0.12900  0.25000  0.41700  1.0000
  N   N5        1.0  0.87100  0.75000  0.58300  1.0000
  N   N6        1.0  0.73600  0.25000  0.70000  1.0000
  N   N7        1.0  0.23600  0.25000  0.80000  1.0000
  N   N8        1.0  0.37100  0.75000  0.91700  1.0000
  O   O1        1.0  0.83200  0.25000  0.00558  1.0000
  O   O2        1.0  0.46500  0.75000  0.21500  1.0000
  O   O3        1.0  0.96500  0.75000  0.28500  1.0000
  O   O4        1.0  0.33200  0.25000  0.49400  1.0000
  O   O5        1.0  0.66800  0.75000  0.50600  1.0000
  O   O6        1.0  0.03480  0.25000  0.71500  1.0000
  O   O7        1.0  0.53500  0.25000  0.78500  1.0000
  O   O8        1.0  0.16800  0.75000  0.99400  1.0000
  S   S1        1.0  0.32000  0.25000  0.09260  1.0000
  S   S2        1.0  0.05010  0.25000  0.12200  1.0000
  S   S3        1.0  0.55000  0.25000  0.37800  1.0000
  S   S4        1.0  0.82000  0.25000  0.40700  1.0000
  S   S5        1.0  0.18000  0.75000  0.59300  1.0000
  S   S6        1.0  0.45000  0.75000  0.62200  1.0000
  S   S7        1.0  0.95000  0.75000  0.87800  1.0000
  S   S8        1.0  0.68000  0.75000  0.90700  1.0000
