data_image0
_chemical_formula_structural       Ga4H8K2Ni2O28P6
_chemical_formula_sum              "Ga4 H8 K2 Ni2 O28 P6"
_cell_length_a       8.26545
_cell_length_b       8.26545
_cell_length_c       8.79926
_cell_angle_alpha    104.246
_cell_angle_beta     104.246
_cell_angle_gamma    74.5141

_space_group_name_H-M_alt    "P 1"
_space_group_IT_number       1

loop_
  _space_group_symop_operation_xyz
  'x, y, z'

loop_
  _atom_site_type_symbol
  _atom_site_label
  _atom_site_symmetry_multiplicity
  _atom_site_fract_x
  _atom_site_fract_y
  _atom_site_fract_z
  _atom_site_occupancy
  Ga  Ga1       1.0  0.09720  0.24600  0.06820  1.0000
  Ga  Ga2       1.0  0.75400  0.90300  0.43200  1.0000
  Ga  Ga3       1.0  0.24600  0.09720  0.56800  1.0000
  Ga  Ga4       1.0  0.90300  0.75400  0.93200  1.0000
  H   H1        1.0  0.47500  0.23600  0.00013  1.0000
  H   H2        1.0  0.36800  0.91400  0.04770  1.0000
  H   H3        1.0  0.08650  0.63200  0.45200  1.0000
  H   H4        1.0  0.76400  0.52500  0.50000  1.0000
  H   H5        1.0  0.23600  0.47500  0.50000  1.0000
  H   H6        1.0  0.91400  0.36800  0.54800  1.0000
  H   H7        1.0  0.63200  0.08650  0.95200  1.0000
  H   H8        1.0  0.52500  0.76400  0.00000  1.0000
  K   K1        1.0  0.36400  0.63600  0.25000  1.0000
  K   K2        1.0  0.63600  0.36400  0.75000  1.0000
  Ni  Ni1       1.0  0.72300  0.27700  0.25000  1.0000
  Ni  Ni2       1.0  0.27700  0.72300  0.75000  1.0000
  O   O1        1.0  0.60200  0.20600  0.01110  1.0000
  O   O2        1.0  0.76100  0.68900  0.04630  1.0000
  O   O3        1.0  0.04180  0.85100  0.11200  1.0000
  O   O4        1.0  0.29600  0.10600  0.15600  1.0000
  O   O5        1.0  0.01290  0.47000  0.15700  1.0000
  O   O6        1.0  0.69800  0.50100  0.19100  1.0000
  O   O7        1.0  0.97600  0.17900  0.20800  1.0000
  O   O8        1.0  0.82100  0.02420  0.29200  1.0000
  O   O9        1.0  0.49900  0.30200  0.30900  1.0000
  O   O10       1.0  0.53000  0.98700  0.34300  1.0000
  O   O11       1.0  0.89400  0.70400  0.34400  1.0000
  O   O12       1.0  0.14900  0.95800  0.38800  1.0000
  O   O13       1.0  0.31100  0.23900  0.45400  1.0000
  O   O14       1.0  0.79400  0.39800  0.48900  1.0000
  O   O15       1.0  0.20600  0.60200  0.51100  1.0000
  O   O16       1.0  0.68900  0.76100  0.54600  1.0000
  O   O17       1.0  0.85100  0.04180  0.61200  1.0000
  O   O18       1.0  0.10600  0.29600  0.65600  1.0000
  O   O19       1.0  0.47000  0.01290  0.65700  1.0000
  O   O20       1.0  0.50100  0.69800  0.69100  1.0000
  O   O21       1.0  0.17900  0.97600  0.70800  1.0000
  O   O22       1.0  0.02420  0.82100  0.79200  1.0000
  O   O23       1.0  0.30200  0.49900  0.80900  1.0000
  O   O24       1.0  0.98700  0.53000  0.84300  1.0000
  O   O25       1.0  0.70400  0.89400  0.84400  1.0000
  O   O26       1.0  0.95800  0.14900  0.88800  1.0000
  O   O27       1.0  0.23900  0.31100  0.95400  1.0000
  O   O28       1.0  0.39800  0.79400  0.98900  1.0000
  P   P1        1.0  0.83700  0.58500  0.18200  1.0000
  P   P2        1.0  0.99900  0.00111  0.25000  1.0000
  P   P3        1.0  0.41500  0.16300  0.31800  1.0000
  P   P4        1.0  0.58500  0.83700  0.68200  1.0000
  P   P5        1.0  0.00111  0.99900  0.75000  1.0000
  P   P6        1.0  0.16300  0.41500  0.81800  1.0000
