data_image0
_chemical_formula_structural       Cl4H24Mg2O20
_chemical_formula_sum              "Cl4 H24 Mg2 O20"
_cell_length_a       7.23413
_cell_length_b       7.23413
_cell_length_c       9.55036
_cell_angle_alpha    90
_cell_angle_beta     90
_cell_angle_gamma    90

_space_group_name_H-M_alt    "P 1"
_space_group_IT_number       1

loop_
  _space_group_symop_operation_xyz
  'x, y, z'

loop_
  _atom_site_type_symbol
  _atom_site_label
  _atom_site_symmetry_multiplicity
  _atom_site_fract_x
  _atom_site_fract_y
  _atom_site_fract_z
  _atom_site_occupancy
  Cl  Cl1       1.0  0.75000  0.75000  0.00758  1.0000
  Cl  Cl2       1.0  0.25000  0.25000  0.49200  1.0000
  Cl  Cl3       1.0  0.75000  0.75000  0.50800  1.0000
  Cl  Cl4       1.0  0.25000  0.25000  0.99200  1.0000
  H   H1        1.0  0.63600  0.25000  0.01750  1.0000
  H   H2        1.0  0.86400  0.25000  0.01750  1.0000
  H   H3        1.0  0.05210  0.06200  0.19000  1.0000
  H   H4        1.0  0.44800  0.06200  0.19000  1.0000
  H   H5        1.0  0.05210  0.43800  0.19000  1.0000
  H   H6        1.0  0.44800  0.43800  0.19000  1.0000
  H   H7        1.0  0.56200  0.55200  0.31000  1.0000
  H   H8        1.0  0.93800  0.55200  0.31000  1.0000
  H   H9        1.0  0.56200  0.94800  0.31000  1.0000
  H   H10       1.0  0.93800  0.94800  0.31000  1.0000
  H   H11       1.0  0.75000  0.13600  0.48300  1.0000
  H   H12       1.0  0.75000  0.36400  0.48300  1.0000
  H   H13       1.0  0.25000  0.63600  0.51700  1.0000
  H   H14       1.0  0.25000  0.86400  0.51700  1.0000
  H   H15       1.0  0.06200  0.05210  0.69000  1.0000
  H   H16       1.0  0.43800  0.05210  0.69000  1.0000
  H   H17       1.0  0.06200  0.44800  0.69000  1.0000
  H   H18       1.0  0.43800  0.44800  0.69000  1.0000
  H   H19       1.0  0.55200  0.56200  0.81000  1.0000
  H   H20       1.0  0.94800  0.56200  0.81000  1.0000
  H   H21       1.0  0.55200  0.93800  0.81000  1.0000
  H   H22       1.0  0.94800  0.93800  0.81000  1.0000
  H   H23       1.0  0.13600  0.75000  0.98300  1.0000
  H   H24       1.0  0.36400  0.75000  0.98300  1.0000
  Mg  Mg1       1.0  0.25000  0.75000  0.25000  1.0000
  Mg  Mg2       1.0  0.75000  0.25000  0.75000  1.0000
  O   O1        1.0  0.25000  0.75000  0.03920  1.0000
  O   O2        1.0  0.07410  0.25000  0.09170  1.0000
  O   O3        1.0  0.42600  0.25000  0.09170  1.0000
  O   O4        1.0  0.05030  0.55000  0.25000  1.0000
  O   O5        1.0  0.45000  0.55000  0.25000  1.0000
  O   O6        1.0  0.05030  0.95000  0.25000  1.0000
  O   O7        1.0  0.45000  0.95000  0.25000  1.0000
  O   O8        1.0  0.75000  0.57400  0.40800  1.0000
  O   O9        1.0  0.75000  0.92600  0.40800  1.0000
  O   O10       1.0  0.25000  0.75000  0.46100  1.0000
  O   O11       1.0  0.75000  0.25000  0.53900  1.0000
  O   O12       1.0  0.25000  0.07410  0.59200  1.0000
  O   O13       1.0  0.25000  0.42600  0.59200  1.0000
  O   O14       1.0  0.55000  0.05030  0.75000  1.0000
  O   O15       1.0  0.95000  0.05030  0.75000  1.0000
  O   O16       1.0  0.55000  0.45000  0.75000  1.0000
  O   O17       1.0  0.95000  0.45000  0.75000  1.0000
  O   O18       1.0  0.57400  0.75000  0.90800  1.0000
  O   O19       1.0  0.92600  0.75000  0.90800  1.0000
  O   O20       1.0  0.75000  0.25000  0.96100  1.0000
