data_image0
_chemical_formula_structural       C4Cl24H12O4S4Sb4
_chemical_formula_sum              "C4 Cl24 H12 O4 S4 Sb4"
_cell_length_a       6.5543
_cell_length_b       19.465
_cell_length_c       9.16434
_cell_angle_alpha    90
_cell_angle_beta     98.4231
_cell_angle_gamma    90

_space_group_name_H-M_alt    "P 1"
_space_group_IT_number       1

loop_
  _space_group_symop_operation_xyz
  'x, y, z'

loop_
  _atom_site_type_symbol
  _atom_site_label
  _atom_site_symmetry_multiplicity
  _atom_site_fract_x
  _atom_site_fract_y
  _atom_site_fract_z
  _atom_site_occupancy
  C   C1        1.0  0.19100  0.39100  0.11000  1.0000
  C   C2        1.0  0.30900  0.89100  0.39000  1.0000
  C   C3        1.0  0.69100  0.10900  0.61000  1.0000
  C   C4        1.0  0.80900  0.60900  0.89000  1.0000
  Cl  Cl1       1.0  0.05220  0.84300  0.00612  1.0000
  Cl  Cl2       1.0  0.33900  0.03730  0.10300  1.0000
  Cl  Cl3       1.0  0.47900  0.70900  0.13900  1.0000
  Cl  Cl4       1.0  0.42700  0.20600  0.18000  1.0000
  Cl  Cl5       1.0  0.79300  0.37600  0.21300  1.0000
  Cl  Cl6       1.0  0.57000  0.54200  0.21400  1.0000
  Cl  Cl7       1.0  0.93000  0.04200  0.28600  1.0000
  Cl  Cl8       1.0  0.70700  0.87600  0.28700  1.0000
  Cl  Cl9       1.0  0.07280  0.70600  0.32000  1.0000
  Cl  Cl10      1.0  0.02050  0.20900  0.36100  1.0000
  Cl  Cl11      1.0  0.16100  0.53700  0.39700  1.0000
  Cl  Cl12      1.0  0.44800  0.34300  0.49400  1.0000
  Cl  Cl13      1.0  0.55200  0.65700  0.50600  1.0000
  Cl  Cl14      1.0  0.83900  0.46300  0.60300  1.0000
  Cl  Cl15      1.0  0.97900  0.79100  0.63900  1.0000
  Cl  Cl16      1.0  0.92700  0.29400  0.68000  1.0000
  Cl  Cl17      1.0  0.29300  0.12400  0.71300  1.0000
  Cl  Cl18      1.0  0.06950  0.95800  0.71400  1.0000
  Cl  Cl19      1.0  0.43000  0.45800  0.78600  1.0000
  Cl  Cl20      1.0  0.20700  0.62400  0.78700  1.0000
  Cl  Cl21      1.0  0.57300  0.79400  0.82000  1.0000
  Cl  Cl22      1.0  0.52100  0.29100  0.86100  1.0000
  Cl  Cl23      1.0  0.66100  0.96300  0.89700  1.0000
  Cl  Cl24      1.0  0.94800  0.15700  0.99400  1.0000
  H   H1        1.0  0.28800  0.38300  0.02350  1.0000
  H   H2        1.0  0.17400  0.44600  0.13400  1.0000
  H   H3        1.0  0.25100  0.36200  0.21000  1.0000
  H   H4        1.0  0.24900  0.86200  0.29000  1.0000
  H   H5        1.0  0.32600  0.94600  0.36600  1.0000
  H   H6        1.0  0.21200  0.88300  0.47600  1.0000
  H   H7        1.0  0.78800  0.11700  0.52400  1.0000
  H   H8        1.0  0.67400  0.05440  0.63400  1.0000
  H   H9        1.0  0.75100  0.13800  0.71000  1.0000
  H   H10       1.0  0.74900  0.63800  0.79000  1.0000
  H   H11       1.0  0.82600  0.55400  0.86600  1.0000
  H   H12       1.0  0.71200  0.61700  0.97600  1.0000
  O   O1        1.0  0.13100  0.59300  0.08290  1.0000
  O   O2        1.0  0.36900  0.09280  0.41700  1.0000
  O   O3        1.0  0.63100  0.90700  0.58300  1.0000
  O   O4        1.0  0.86900  0.40700  0.91700  1.0000
  S   S1        1.0  0.94700  0.35500  0.03870  1.0000
  S   S2        1.0  0.55300  0.85500  0.46100  1.0000
  S   S3        1.0  0.44700  0.14500  0.53900  1.0000
  S   S4        1.0  0.05330  0.64500  0.96100  1.0000
  Sb  Sb1       1.0  0.16200  0.12500  0.21300  1.0000
  Sb  Sb2       1.0  0.33800  0.62500  0.28700  1.0000
  Sb  Sb3       1.0  0.66200  0.37500  0.71300  1.0000
  Sb  Sb4       1.0  0.83800  0.87500  0.78700  1.0000
