data_image0
_chemical_formula_structural       Cu36In16
_chemical_formula_sum              "Cu36 In16"
_cell_length_a       9.15579
_cell_length_b       9.15579
_cell_length_c       9.15579
_cell_angle_alpha    90
_cell_angle_beta     90
_cell_angle_gamma    90

_space_group_name_H-M_alt    "P 1"
_space_group_IT_number       1

loop_
  _space_group_symop_operation_xyz
  'x, y, z'

loop_
  _atom_site_type_symbol
  _atom_site_label
  _atom_site_symmetry_multiplicity
  _atom_site_fract_x
  _atom_site_fract_y
  _atom_site_fract_z
  _atom_site_occupancy
  Cu  Cu1       1.0  0.35800  0.00000  0.00000  1.0000
  Cu  Cu2       1.0  0.64200  0.00000  0.00000  1.0000
  Cu  Cu3       1.0  0.00000  0.35800  0.00000  1.0000
  Cu  Cu4       1.0  0.00000  0.64200  0.00000  1.0000
  Cu  Cu5       1.0  0.32500  0.32500  0.02890  1.0000
  Cu  Cu6       1.0  0.67500  0.67500  0.02890  1.0000
  Cu  Cu7       1.0  0.50000  0.50000  0.14700  1.0000
  Cu  Cu8       1.0  0.83400  0.16600  0.16600  1.0000
  Cu  Cu9       1.0  0.16600  0.83400  0.16600  1.0000
  Cu  Cu10      1.0  0.32500  0.02890  0.32500  1.0000
  Cu  Cu11      1.0  0.02890  0.32500  0.32500  1.0000
  Cu  Cu12      1.0  0.97100  0.67500  0.32500  1.0000
  Cu  Cu13      1.0  0.67500  0.97100  0.32500  1.0000
  Cu  Cu14      1.0  0.33000  0.33000  0.33000  1.0000
  Cu  Cu15      1.0  0.67000  0.67000  0.33000  1.0000
  Cu  Cu16      1.0  0.00000  0.00000  0.35800  1.0000
  Cu  Cu17      1.0  0.59800  0.40200  0.40200  1.0000
  Cu  Cu18      1.0  0.40200  0.59800  0.40200  1.0000
  Cu  Cu19      1.0  0.50000  0.14700  0.50000  1.0000
  Cu  Cu20      1.0  0.14700  0.50000  0.50000  1.0000
  Cu  Cu21      1.0  0.85300  0.50000  0.50000  1.0000
  Cu  Cu22      1.0  0.50000  0.85300  0.50000  1.0000
  Cu  Cu23      1.0  0.40200  0.40200  0.59800  1.0000
  Cu  Cu24      1.0  0.59800  0.59800  0.59800  1.0000
  Cu  Cu25      1.0  0.00000  0.00000  0.64200  1.0000
  Cu  Cu26      1.0  0.67000  0.33000  0.67000  1.0000
  Cu  Cu27      1.0  0.33000  0.67000  0.67000  1.0000
  Cu  Cu28      1.0  0.67500  0.02890  0.67500  1.0000
  Cu  Cu29      1.0  0.97100  0.32500  0.67500  1.0000
  Cu  Cu30      1.0  0.02890  0.67500  0.67500  1.0000
  Cu  Cu31      1.0  0.32500  0.97100  0.67500  1.0000
  Cu  Cu32      1.0  0.16600  0.16600  0.83400  1.0000
  Cu  Cu33      1.0  0.83400  0.83400  0.83400  1.0000
  Cu  Cu34      1.0  0.50000  0.50000  0.85300  1.0000
  Cu  Cu35      1.0  0.67500  0.32500  0.97100  1.0000
  Cu  Cu36      1.0  0.32500  0.67500  0.97100  1.0000
  In  In1       1.0  0.13200  0.13200  0.13200  1.0000
  In  In2       1.0  0.86800  0.86800  0.13200  1.0000
  In  In3       1.0  0.53600  0.19200  0.19200  1.0000
  In  In4       1.0  0.80800  0.46400  0.19200  1.0000
  In  In5       1.0  0.19200  0.53600  0.19200  1.0000
  In  In6       1.0  0.46400  0.80800  0.19200  1.0000
  In  In7       1.0  0.80800  0.19200  0.46400  1.0000
  In  In8       1.0  0.19200  0.80800  0.46400  1.0000
  In  In9       1.0  0.19200  0.19200  0.53600  1.0000
  In  In10      1.0  0.80800  0.80800  0.53600  1.0000
  In  In11      1.0  0.46400  0.19200  0.80800  1.0000
  In  In12      1.0  0.19200  0.46400  0.80800  1.0000
  In  In13      1.0  0.80800  0.53600  0.80800  1.0000
  In  In14      1.0  0.53600  0.80800  0.80800  1.0000
  In  In15      1.0  0.86800  0.13200  0.86800  1.0000
  In  In16      1.0  0.13200  0.86800  0.86800  1.0000
