data_image0
_chemical_formula_structural       Ce32Ru18
_chemical_formula_sum              "Ce32 Ru18"
_cell_length_a       11.2468
_cell_length_b       11.2468
_cell_length_c       11.2468
_cell_angle_alpha    80.1153
_cell_angle_beta     99.8847
_cell_angle_gamma    99.8847

_space_group_name_H-M_alt    "P 1"
_space_group_IT_number       1

loop_
  _space_group_symop_operation_xyz
  'x, y, z'

loop_
  _atom_site_type_symbol
  _atom_site_label
  _atom_site_symmetry_multiplicity
  _atom_site_fract_x
  _atom_site_fract_y
  _atom_site_fract_z
  _atom_site_occupancy
  Ce  Ce1       1.0  0.00000  0.00000  0.00000  1.0000
  Ce  Ce2       1.0  0.28700  0.28700  0.00000  1.0000
  Ce  Ce3       1.0  0.71300  0.71300  0.00000  1.0000
  Ce  Ce4       1.0  0.20500  0.79500  0.05550  1.0000
  Ce  Ce5       1.0  0.56100  0.15000  0.15000  1.0000
  Ce  Ce6       1.0  0.85000  0.43900  0.15000  1.0000
  Ce  Ce7       1.0  0.53200  0.46800  0.18200  1.0000
  Ce  Ce8       1.0  0.79500  0.94500  0.20500  1.0000
  Ce  Ce9       1.0  0.05550  0.20500  0.20500  1.0000
  Ce  Ce10      1.0  0.20700  0.50000  0.20700  1.0000
  Ce  Ce11      1.0  0.50000  0.79300  0.20700  1.0000
  Ce  Ce12      1.0  0.28700  0.00000  0.28700  1.0000
  Ce  Ce13      1.0  0.00000  0.71300  0.28700  1.0000
  Ce  Ce14      1.0  0.85000  0.15000  0.43900  1.0000
  Ce  Ce15      1.0  0.81800  0.46800  0.46800  1.0000
  Ce  Ce16      1.0  0.53200  0.18200  0.46800  1.0000
  Ce  Ce17      1.0  0.79300  0.79300  0.50000  1.0000
  Ce  Ce18      1.0  0.50000  0.50000  0.50000  1.0000
  Ce  Ce19      1.0  0.20700  0.20700  0.50000  1.0000
  Ce  Ce20      1.0  0.18200  0.53200  0.53200  1.0000
  Ce  Ce21      1.0  0.46800  0.81800  0.53200  1.0000
  Ce  Ce22      1.0  0.15000  0.85000  0.56100  1.0000
  Ce  Ce23      1.0  0.71300  0.00000  0.71300  1.0000
  Ce  Ce24      1.0  0.00000  0.28700  0.71300  1.0000
  Ce  Ce25      1.0  0.50000  0.20700  0.79300  1.0000
  Ce  Ce26      1.0  0.79300  0.50000  0.79300  1.0000
  Ce  Ce27      1.0  0.94500  0.79500  0.79500  1.0000
  Ce  Ce28      1.0  0.20500  0.05550  0.79500  1.0000
  Ce  Ce29      1.0  0.46800  0.53200  0.81800  1.0000
  Ce  Ce30      1.0  0.43900  0.85000  0.85000  1.0000
  Ce  Ce31      1.0  0.15000  0.56100  0.85000  1.0000
  Ce  Ce32      1.0  0.79500  0.20500  0.94500  1.0000
  Ru  Ru1       1.0  0.37500  0.62500  0.01360  1.0000
  Ru  Ru2       1.0  0.36400  0.01640  0.01640  1.0000
  Ru  Ru3       1.0  0.98400  0.63600  0.01640  1.0000
  Ru  Ru4       1.0  0.34800  0.28400  0.28400  1.0000
  Ru  Ru5       1.0  0.71600  0.65200  0.28400  1.0000
  Ru  Ru6       1.0  0.28400  0.71600  0.34800  1.0000
  Ru  Ru7       1.0  0.01640  0.98400  0.36400  1.0000
  Ru  Ru8       1.0  0.01360  0.37500  0.37500  1.0000
  Ru  Ru9       1.0  0.62500  0.98600  0.37500  1.0000
  Ru  Ru10      1.0  0.98600  0.62500  0.62500  1.0000
  Ru  Ru11      1.0  0.37500  0.01360  0.62500  1.0000
  Ru  Ru12      1.0  0.98400  0.01640  0.63600  1.0000
  Ru  Ru13      1.0  0.71600  0.28400  0.65200  1.0000
  Ru  Ru14      1.0  0.65200  0.71600  0.71600  1.0000
  Ru  Ru15      1.0  0.28400  0.34800  0.71600  1.0000
  Ru  Ru16      1.0  0.01640  0.36400  0.98400  1.0000
  Ru  Ru17      1.0  0.63600  0.98400  0.98400  1.0000
  Ru  Ru18      1.0  0.62500  0.37500  0.98600  1.0000
