data_image0
_chemical_formula_structural       Cs4N28P16
_chemical_formula_sum              "Cs4 N28 P16"
_cell_length_a       10.2906
_cell_length_b       11.7265
_cell_length_c       4.72912
_cell_angle_alpha    90
_cell_angle_beta     90
_cell_angle_gamma    90

_space_group_name_H-M_alt    "P 1"
_space_group_IT_number       1

loop_
  _space_group_symop_operation_xyz
  'x, y, z'

loop_
  _atom_site_type_symbol
  _atom_site_label
  _atom_site_symmetry_multiplicity
  _atom_site_fract_x
  _atom_site_fract_y
  _atom_site_fract_z
  _atom_site_occupancy
  Cs  Cs1       1.0  0.64100  0.75000  0.22500  1.0000
  Cs  Cs2       1.0  0.14100  0.75000  0.27500  1.0000
  Cs  Cs3       1.0  0.85900  0.25000  0.72500  1.0000
  Cs  Cs4       1.0  0.35900  0.25000  0.77500  1.0000
  N   N1        1.0  0.38300  0.61300  0.11700  1.0000
  N   N2        1.0  0.38300  0.88700  0.11700  1.0000
  N   N3        1.0  0.19900  0.03890  0.11900  1.0000
  N   N4        1.0  0.19900  0.46100  0.11900  1.0000
  N   N5        1.0  0.13000  0.25000  0.17900  1.0000
  N   N6        1.0  0.94300  0.09970  0.19400  1.0000
  N   N7        1.0  0.94300  0.40000  0.19400  1.0000
  N   N8        1.0  0.44300  0.09970  0.30600  1.0000
  N   N9        1.0  0.44300  0.40000  0.30600  1.0000
  N   N10       1.0  0.63000  0.25000  0.32100  1.0000
  N   N11       1.0  0.69900  0.03890  0.38100  1.0000
  N   N12       1.0  0.69900  0.46100  0.38100  1.0000
  N   N13       1.0  0.88300  0.61300  0.38300  1.0000
  N   N14       1.0  0.88300  0.88700  0.38300  1.0000
  N   N15       1.0  0.11700  0.11300  0.61700  1.0000
  N   N16       1.0  0.11700  0.38700  0.61700  1.0000
  N   N17       1.0  0.30100  0.53900  0.61900  1.0000
  N   N18       1.0  0.30100  0.96100  0.61900  1.0000
  N   N19       1.0  0.37000  0.75000  0.67900  1.0000
  N   N20       1.0  0.55700  0.60000  0.69400  1.0000
  N   N21       1.0  0.55700  0.90000  0.69400  1.0000
  N   N22       1.0  0.05730  0.60000  0.80600  1.0000
  N   N23       1.0  0.05730  0.90000  0.80600  1.0000
  N   N24       1.0  0.87000  0.75000  0.82100  1.0000
  N   N25       1.0  0.80100  0.53900  0.88100  1.0000
  N   N26       1.0  0.80100  0.96100  0.88100  1.0000
  N   N27       1.0  0.61700  0.11300  0.88300  1.0000
  N   N28       1.0  0.61700  0.38700  0.88300  1.0000
  P   P1        1.0  0.58900  0.12800  0.21300  1.0000
  P   P2        1.0  0.58900  0.37200  0.21300  1.0000
  P   P3        1.0  0.84200  0.50100  0.22300  1.0000
  P   P4        1.0  0.84200  0.99900  0.22300  1.0000
  P   P5        1.0  0.34200  0.50100  0.27700  1.0000
  P   P6        1.0  0.34200  0.99900  0.27700  1.0000
  P   P7        1.0  0.08900  0.12800  0.28700  1.0000
  P   P8        1.0  0.08900  0.37200  0.28700  1.0000
  P   P9        1.0  0.91100  0.62800  0.71300  1.0000
  P   P10       1.0  0.91100  0.87200  0.71300  1.0000
  P   P11       1.0  0.65800  0.00088  0.72300  1.0000
  P   P12       1.0  0.65800  0.49900  0.72300  1.0000
  P   P13       1.0  0.15800  0.00088  0.77700  1.0000
  P   P14       1.0  0.15800  0.49900  0.77700  1.0000
  P   P15       1.0  0.41100  0.62800  0.78700  1.0000
  P   P16       1.0  0.41100  0.87200  0.78700  1.0000
