data_image0
_chemical_formula_structural       P8Pr8S32
_chemical_formula_sum              "P8 Pr8 S32"
_cell_length_a       12.4654
_cell_length_b       11.024
_cell_length_c       11.024
_cell_angle_alpha    90
_cell_angle_beta     116.243
_cell_angle_gamma    116.243

_space_group_name_H-M_alt    "P 1"
_space_group_IT_number       1

loop_
  _space_group_symop_operation_xyz
  'x, y, z'

loop_
  _atom_site_type_symbol
  _atom_site_label
  _atom_site_symmetry_multiplicity
  _atom_site_fract_x
  _atom_site_fract_y
  _atom_site_fract_z
  _atom_site_occupancy
  P   P1        1.0  0.00000  0.25000  0.21300  1.0000
  P   P2        1.0  0.50000  0.21300  0.25000  1.0000
  P   P3        1.0  0.50000  0.71300  0.25000  1.0000
  P   P4        1.0  0.00000  0.75000  0.28700  1.0000
  P   P5        1.0  0.00000  0.25000  0.71300  1.0000
  P   P6        1.0  0.50000  0.28700  0.75000  1.0000
  P   P7        1.0  0.50000  0.78700  0.75000  1.0000
  P   P8        1.0  0.00000  0.75000  0.78700  1.0000
  Pr  Pr1       1.0  0.75000  0.37500  0.12500  1.0000
  Pr  Pr2       1.0  0.75000  0.87500  0.12500  1.0000
  Pr  Pr3       1.0  0.25000  0.12500  0.37500  1.0000
  Pr  Pr4       1.0  0.25000  0.62500  0.37500  1.0000
  Pr  Pr5       1.0  0.75000  0.37500  0.62500  1.0000
  Pr  Pr6       1.0  0.75000  0.87500  0.62500  1.0000
  Pr  Pr7       1.0  0.25000  0.12500  0.87500  1.0000
  Pr  Pr8       1.0  0.25000  0.62500  0.87500  1.0000
  S   S1        1.0  0.49700  0.11200  0.09140  1.0000
  S   S2        1.0  0.50300  0.61500  0.09420  1.0000
  S   S3        1.0  0.82600  0.66100  0.09540  1.0000
  S   S4        1.0  0.99700  0.09140  0.11200  1.0000
  S   S5        1.0  0.00281  0.40900  0.11500  1.0000
  S   S6        1.0  0.32600  0.73100  0.16100  1.0000
  S   S7        1.0  0.32600  0.23100  0.16500  1.0000
  S   S8        1.0  0.82600  0.16500  0.23100  1.0000
  S   S9        1.0  0.17400  0.83900  0.26900  1.0000
  S   S10       1.0  0.67400  0.40500  0.33500  1.0000
  S   S11       1.0  0.67400  0.90500  0.33900  1.0000
  S   S12       1.0  0.99700  0.90600  0.38500  1.0000
  S   S13       1.0  0.00281  0.59400  0.38800  1.0000
  S   S14       1.0  0.17400  0.33500  0.40500  1.0000
  S   S15       1.0  0.49700  0.61200  0.40600  1.0000
  S   S16       1.0  0.50300  0.11500  0.40900  1.0000
  S   S17       1.0  0.49700  0.88500  0.59100  1.0000
  S   S18       1.0  0.50300  0.38800  0.59400  1.0000
  S   S19       1.0  0.82600  0.66500  0.59500  1.0000
  S   S20       1.0  0.99700  0.40600  0.61200  1.0000
  S   S21       1.0  0.00281  0.09420  0.61500  1.0000
  S   S22       1.0  0.32600  0.09540  0.66100  1.0000
  S   S23       1.0  0.32600  0.59500  0.66500  1.0000
  S   S24       1.0  0.82600  0.16100  0.73100  1.0000
  S   S25       1.0  0.17400  0.83500  0.76900  1.0000
  S   S26       1.0  0.67400  0.76900  0.83500  1.0000
  S   S27       1.0  0.67400  0.26900  0.83900  1.0000
  S   S28       1.0  0.99700  0.59100  0.88500  1.0000
  S   S29       1.0  0.00281  0.90900  0.88800  1.0000
  S   S30       1.0  0.17400  0.33900  0.90500  1.0000
  S   S31       1.0  0.49700  0.38500  0.90600  1.0000
  S   S32       1.0  0.50300  0.88800  0.90900  1.0000
