data_image0
_chemical_formula_structural       Lu2Na10O32W8
_chemical_formula_sum              "Lu2 Na10 O32 W8"
_cell_length_a       9.74045
_cell_length_b       9.74045
_cell_length_c       9.74045
_cell_angle_alpha    109.088
_cell_angle_beta     110.24
_cell_angle_gamma    109.088

_space_group_name_H-M_alt    "P 1"
_space_group_IT_number       1

loop_
  _space_group_symop_operation_xyz
  'x, y, z'

loop_
  _atom_site_type_symbol
  _atom_site_label
  _atom_site_symmetry_multiplicity
  _atom_site_fract_x
  _atom_site_fract_y
  _atom_site_fract_z
  _atom_site_occupancy
  Lu  Lu1       1.0  0.87500  0.25000  0.12500  1.0000
  Lu  Lu2       1.0  0.12500  0.75000  0.87500  1.0000
  Na  Na1       1.0  0.77300  0.57600  0.11100  1.0000
  Na  Na2       1.0  0.30300  0.33900  0.22700  1.0000
  Na  Na3       1.0  0.46400  0.07580  0.30300  1.0000
  Na  Na4       1.0  0.62500  0.75000  0.37500  1.0000
  Na  Na5       1.0  0.88900  0.16100  0.46400  1.0000
  Na  Na6       1.0  0.11100  0.83900  0.53600  1.0000
  Na  Na7       1.0  0.37500  0.25000  0.62500  1.0000
  Na  Na8       1.0  0.53600  0.92400  0.69700  1.0000
  Na  Na9       1.0  0.69700  0.66100  0.77300  1.0000
  Na  Na10      1.0  0.22700  0.42400  0.88900  1.0000
  O   O1        1.0  0.66400  0.71900  0.01600  1.0000
  O   O2        1.0  0.02270  0.15400  0.02020  1.0000
  O   O3        1.0  0.36900  0.00249  0.02270  1.0000
  O   O4        1.0  0.65700  0.30700  0.08050  1.0000
  O   O5        1.0  0.98000  0.50200  0.13300  1.0000
  O   O6        1.0  0.22700  0.80700  0.15000  1.0000
  O   O7        1.0  0.33100  0.57100  0.19100  1.0000
  O   O8        1.0  0.91900  0.07650  0.22700  1.0000
  O   O9        1.0  0.62000  0.92900  0.26000  1.0000
  O   O10       1.0  0.01600  0.85200  0.29700  1.0000
  O   O11       1.0  0.26000  0.14000  0.33100  1.0000
  O   O12       1.0  0.55500  0.35200  0.33600  1.0000
  O   O13       1.0  0.15000  0.42400  0.34300  1.0000
  O   O14       1.0  0.86700  0.34600  0.36900  1.0000
  O   O15       1.0  0.80900  0.64000  0.38000  1.0000
  O   O16       1.0  0.29700  0.78100  0.44500  1.0000
  O   O17       1.0  0.70300  0.21900  0.55500  1.0000
  O   O18       1.0  0.19100  0.36000  0.62000  1.0000
  O   O19       1.0  0.13300  0.65400  0.63100  1.0000
  O   O20       1.0  0.85000  0.57600  0.65700  1.0000
  O   O21       1.0  0.44500  0.64800  0.66400  1.0000
  O   O22       1.0  0.74000  0.86000  0.66900  1.0000
  O   O23       1.0  0.98400  0.14800  0.70300  1.0000
  O   O24       1.0  0.38000  0.07120  0.74000  1.0000
  O   O25       1.0  0.08050  0.92400  0.77300  1.0000
  O   O26       1.0  0.66900  0.42900  0.80900  1.0000
  O   O27       1.0  0.77300  0.19300  0.85000  1.0000
  O   O28       1.0  0.02020  0.49800  0.86700  1.0000
  O   O29       1.0  0.34300  0.69300  0.91900  1.0000
  O   O30       1.0  0.63100  0.99800  0.97700  1.0000
  O   O31       1.0  0.97700  0.84600  0.98000  1.0000
  O   O32       1.0  0.33600  0.28100  0.98400  1.0000
  W   W1        1.0  0.56600  0.84300  0.04350  1.0000
  W   W2        1.0  0.04350  0.97700  0.20100  1.0000
  W   W3        1.0  0.20100  0.65700  0.22400  1.0000
  W   W4        1.0  0.77600  0.47700  0.43400  1.0000
  W   W5        1.0  0.22400  0.52300  0.56600  1.0000
  W   W6        1.0  0.79900  0.34300  0.77600  1.0000
  W   W7        1.0  0.95700  0.02290  0.79900  1.0000
  W   W8        1.0  0.43400  0.15700  0.95700  1.0000
