data_image0
_chemical_formula_structural       Hg28K20
_chemical_formula_sum              "Hg28 K20"
_cell_length_a       10.3385
_cell_length_b       19.8152
_cell_length_c       8.4907
_cell_angle_alpha    90
_cell_angle_beta     90
_cell_angle_gamma    90

_space_group_name_H-M_alt    "P 1"
_space_group_IT_number       1

loop_
  _space_group_symop_operation_xyz
  'x, y, z'

loop_
  _atom_site_type_symbol
  _atom_site_label
  _atom_site_symmetry_multiplicity
  _atom_site_fract_x
  _atom_site_fract_y
  _atom_site_fract_z
  _atom_site_occupancy
  Hg  Hg1       1.0  0.87600  0.25000  0.00000  1.0000
  Hg  Hg2       1.0  0.12400  0.75000  0.00000  1.0000
  Hg  Hg3       1.0  0.19500  0.02910  0.06530  1.0000
  Hg  Hg4       1.0  0.80500  0.52900  0.06530  1.0000
  Hg  Hg5       1.0  0.37000  0.35700  0.06740  1.0000
  Hg  Hg6       1.0  0.63000  0.85700  0.06740  1.0000
  Hg  Hg7       1.0  0.68000  0.38100  0.06800  1.0000
  Hg  Hg8       1.0  0.32000  0.88100  0.06800  1.0000
  Hg  Hg9       1.0  0.68000  0.38100  0.43200  1.0000
  Hg  Hg10      1.0  0.32000  0.88100  0.43200  1.0000
  Hg  Hg11      1.0  0.37000  0.35700  0.43300  1.0000
  Hg  Hg12      1.0  0.63000  0.85700  0.43300  1.0000
  Hg  Hg13      1.0  0.19500  0.02910  0.43500  1.0000
  Hg  Hg14      1.0  0.80500  0.52900  0.43500  1.0000
  Hg  Hg15      1.0  0.87600  0.25000  0.50000  1.0000
  Hg  Hg16      1.0  0.12400  0.75000  0.50000  1.0000
  Hg  Hg17      1.0  0.19500  0.47100  0.56500  1.0000
  Hg  Hg18      1.0  0.80500  0.97100  0.56500  1.0000
  Hg  Hg19      1.0  0.37000  0.14300  0.56700  1.0000
  Hg  Hg20      1.0  0.63000  0.64300  0.56700  1.0000
  Hg  Hg21      1.0  0.68000  0.11900  0.56800  1.0000
  Hg  Hg22      1.0  0.32000  0.61900  0.56800  1.0000
  Hg  Hg23      1.0  0.68000  0.11900  0.93200  1.0000
  Hg  Hg24      1.0  0.32000  0.61900  0.93200  1.0000
  Hg  Hg25      1.0  0.37000  0.14300  0.93300  1.0000
  Hg  Hg26      1.0  0.63000  0.64300  0.93300  1.0000
  Hg  Hg27      1.0  0.19500  0.47100  0.93500  1.0000
  Hg  Hg28      1.0  0.80500  0.97100  0.93500  1.0000
  K   K1        1.0  0.51800  0.01730  0.25000  1.0000
  K   K2        1.0  0.89400  0.08790  0.25000  1.0000
  K   K3        1.0  0.18600  0.20900  0.25000  1.0000
  K   K4        1.0  0.57500  0.22800  0.25000  1.0000
  K   K5        1.0  0.00574  0.39000  0.25000  1.0000
  K   K6        1.0  0.48200  0.51700  0.25000  1.0000
  K   K7        1.0  0.10600  0.58800  0.25000  1.0000
  K   K8        1.0  0.81400  0.70900  0.25000  1.0000
  K   K9        1.0  0.42500  0.72800  0.25000  1.0000
  K   K10       1.0  0.99400  0.89000  0.25000  1.0000
  K   K11       1.0  0.00574  0.11000  0.75000  1.0000
  K   K12       1.0  0.57500  0.27200  0.75000  1.0000
  K   K13       1.0  0.18600  0.29100  0.75000  1.0000
  K   K14       1.0  0.89400  0.41200  0.75000  1.0000
  K   K15       1.0  0.51800  0.48300  0.75000  1.0000
  K   K16       1.0  0.99400  0.61000  0.75000  1.0000
  K   K17       1.0  0.42500  0.77200  0.75000  1.0000
  K   K18       1.0  0.81400  0.79100  0.75000  1.0000
  K   K19       1.0  0.10600  0.91200  0.75000  1.0000
  K   K20       1.0  0.48200  0.98300  0.75000  1.0000
