data_image0
_chemical_formula_structural       Ge24Ni24Sc4
_chemical_formula_sum              "Ge24 Ni24 Sc4"
_cell_length_a       10.2187
_cell_length_b       10.2187
_cell_length_c       7.83165
_cell_angle_alpha    90
_cell_angle_beta     90
_cell_angle_gamma    120

_space_group_name_H-M_alt    "P 1"
_space_group_IT_number       1

loop_
  _space_group_symop_operation_xyz
  'x, y, z'

loop_
  _atom_site_type_symbol
  _atom_site_label
  _atom_site_symmetry_multiplicity
  _atom_site_fract_x
  _atom_site_fract_y
  _atom_site_fract_z
  _atom_site_occupancy
  Ge  Ge1       1.0  0.83400  0.16600  0.00000  1.0000
  Ge  Ge2       1.0  0.33200  0.16600  0.00000  1.0000
  Ge  Ge3       1.0  0.16600  0.33200  0.00000  1.0000
  Ge  Ge4       1.0  0.66700  0.33300  0.00000  1.0000
  Ge  Ge5       1.0  0.33300  0.66700  0.00000  1.0000
  Ge  Ge6       1.0  0.83400  0.66800  0.00000  1.0000
  Ge  Ge7       1.0  0.66800  0.83400  0.00000  1.0000
  Ge  Ge8       1.0  0.16600  0.83400  0.00000  1.0000
  Ge  Ge9       1.0  0.50000  0.00000  0.15900  1.0000
  Ge  Ge10      1.0  0.50000  0.50000  0.15900  1.0000
  Ge  Ge11      1.0  0.00000  0.50000  0.15900  1.0000
  Ge  Ge12      1.0  0.00000  0.00000  0.34200  1.0000
  Ge  Ge13      1.0  0.83200  0.16800  0.50000  1.0000
  Ge  Ge14      1.0  0.33600  0.16800  0.50000  1.0000
  Ge  Ge15      1.0  0.66700  0.33300  0.50000  1.0000
  Ge  Ge16      1.0  0.16800  0.33600  0.50000  1.0000
  Ge  Ge17      1.0  0.83200  0.66400  0.50000  1.0000
  Ge  Ge18      1.0  0.33300  0.66700  0.50000  1.0000
  Ge  Ge19      1.0  0.16800  0.83200  0.50000  1.0000
  Ge  Ge20      1.0  0.66400  0.83200  0.50000  1.0000
  Ge  Ge21      1.0  0.00000  0.00000  0.65800  1.0000
  Ge  Ge22      1.0  0.50000  0.00000  0.84100  1.0000
  Ge  Ge23      1.0  0.00000  0.50000  0.84100  1.0000
  Ge  Ge24      1.0  0.50000  0.50000  0.84100  1.0000
  Ni  Ni1       1.0  0.75000  0.25000  0.24800  1.0000
  Ni  Ni2       1.0  0.75000  0.50000  0.24800  1.0000
  Ni  Ni3       1.0  0.50000  0.75000  0.24800  1.0000
  Ni  Ni4       1.0  0.25000  0.75000  0.24800  1.0000
  Ni  Ni5       1.0  0.50000  0.25000  0.24800  1.0000
  Ni  Ni6       1.0  0.25000  0.50000  0.24800  1.0000
  Ni  Ni7       1.0  0.25000  0.00000  0.25200  1.0000
  Ni  Ni8       1.0  0.00000  0.25000  0.25200  1.0000
  Ni  Ni9       1.0  0.75000  0.75000  0.25200  1.0000
  Ni  Ni10      1.0  0.75000  0.00000  0.25200  1.0000
  Ni  Ni11      1.0  0.25000  0.25000  0.25200  1.0000
  Ni  Ni12      1.0  0.00000  0.75000  0.25200  1.0000
  Ni  Ni13      1.0  0.25000  0.25000  0.74800  1.0000
  Ni  Ni14      1.0  0.75000  0.00000  0.74800  1.0000
  Ni  Ni15      1.0  0.75000  0.75000  0.74800  1.0000
  Ni  Ni16      1.0  0.00000  0.75000  0.74800  1.0000
  Ni  Ni17      1.0  0.25000  0.00000  0.74800  1.0000
  Ni  Ni18      1.0  0.00000  0.25000  0.74800  1.0000
  Ni  Ni19      1.0  0.50000  0.25000  0.75200  1.0000
  Ni  Ni20      1.0  0.75000  0.25000  0.75200  1.0000
  Ni  Ni21      1.0  0.25000  0.50000  0.75200  1.0000
  Ni  Ni22      1.0  0.25000  0.75000  0.75200  1.0000
  Ni  Ni23      1.0  0.75000  0.50000  0.75200  1.0000
  Ni  Ni24      1.0  0.50000  0.75000  0.75200  1.0000
  Sc  Sc1       1.0  0.00000  0.00000  0.00000  1.0000
  Sc  Sc2       1.0  0.50000  0.00000  0.50000  1.0000
  Sc  Sc3       1.0  0.00000  0.50000  0.50000  1.0000
  Sc  Sc4       1.0  0.50000  0.50000  0.50000  1.0000
