data_image0
_chemical_formula_structural       Eu4O32Se8V4
_chemical_formula_sum              "Eu4 O32 Se8 V4"
_cell_length_a       6.65155
_cell_length_b       7.03896
_cell_length_c       13.5666
_cell_angle_alpha    90
_cell_angle_beta     93.1289
_cell_angle_gamma    90

_space_group_name_H-M_alt    "P 1"
_space_group_IT_number       1

loop_
  _space_group_symop_operation_xyz
  'x, y, z'

loop_
  _atom_site_type_symbol
  _atom_site_label
  _atom_site_symmetry_multiplicity
  _atom_site_fract_x
  _atom_site_fract_y
  _atom_site_fract_z
  _atom_site_occupancy
  Eu  Eu1       1.0  0.07700  0.25000  0.06460  1.0000
  Eu  Eu2       1.0  0.36500  0.75000  0.15000  1.0000
  Eu  Eu3       1.0  0.63500  0.25000  0.85000  1.0000
  Eu  Eu4       1.0  0.92300  0.75000  0.93500  1.0000
  O   O1        1.0  0.72000  0.25000  0.03120  1.0000
  O   O2        1.0  0.68200  0.75000  0.07610  1.0000
  O   O3        1.0  0.39700  0.07030  0.10500  1.0000
  O   O4        1.0  0.39700  0.43000  0.10500  1.0000
  O   O5        1.0  0.02680  0.57100  0.10900  1.0000
  O   O6        1.0  0.02680  0.92900  0.10900  1.0000
  O   O7        1.0  0.93300  0.25000  0.22900  1.0000
  O   O8        1.0  0.59200  0.55600  0.27100  1.0000
  O   O9        1.0  0.59200  0.94400  0.27100  1.0000
  O   O10       1.0  0.16600  0.75000  0.29000  1.0000
  O   O11       1.0  0.57600  0.25000  0.38800  1.0000
  O   O12       1.0  0.91300  0.05540  0.40100  1.0000
  O   O13       1.0  0.91300  0.44500  0.40100  1.0000
  O   O14       1.0  0.70000  0.75000  0.43100  1.0000
  O   O15       1.0  0.35300  0.55300  0.43500  1.0000
  O   O16       1.0  0.35300  0.94700  0.43500  1.0000
  O   O17       1.0  0.64700  0.05320  0.56500  1.0000
  O   O18       1.0  0.64700  0.44700  0.56500  1.0000
  O   O19       1.0  0.30000  0.25000  0.56900  1.0000
  O   O20       1.0  0.08700  0.55500  0.59900  1.0000
  O   O21       1.0  0.08700  0.94500  0.59900  1.0000
  O   O22       1.0  0.42400  0.75000  0.61200  1.0000
  O   O23       1.0  0.83400  0.25000  0.71000  1.0000
  O   O24       1.0  0.40800  0.05590  0.72900  1.0000
  O   O25       1.0  0.40800  0.44400  0.72900  1.0000
  O   O26       1.0  0.06750  0.75000  0.77100  1.0000
  O   O27       1.0  0.97300  0.07140  0.89100  1.0000
  O   O28       1.0  0.97300  0.42900  0.89100  1.0000
  O   O29       1.0  0.60300  0.57000  0.89500  1.0000
  O   O30       1.0  0.60300  0.93000  0.89500  1.0000
  O   O31       1.0  0.31800  0.25000  0.92400  1.0000
  O   O32       1.0  0.28000  0.75000  0.96900  1.0000
  Se  Se1       1.0  0.56100  0.25000  0.12300  1.0000
  Se  Se2       1.0  0.88700  0.75000  0.15600  1.0000
  Se  Se3       1.0  0.03000  0.25000  0.34600  1.0000
  Se  Se4       1.0  0.18800  0.75000  0.41300  1.0000
  Se  Se5       1.0  0.81200  0.25000  0.58700  1.0000
  Se  Se6       1.0  0.97000  0.75000  0.65400  1.0000
  Se  Se7       1.0  0.11300  0.25000  0.84400  1.0000
  Se  Se8       1.0  0.43900  0.75000  0.87700  1.0000
  V   V1        1.0  0.62600  0.50800  0.39000  1.0000
  V   V2        1.0  0.62600  0.99200  0.39000  1.0000
  V   V3        1.0  0.37400  0.00848  0.61000  1.0000
  V   V4        1.0  0.37400  0.49200  0.61000  1.0000
