data_image0
_chemical_formula_structural       Ba10Fe10O28
_chemical_formula_sum              "Ba10 Fe10 O28"
_cell_length_a       5.78416
_cell_length_b       5.78416
_cell_length_c       24.0283
_cell_angle_alpha    90
_cell_angle_beta     90
_cell_angle_gamma    59.7661

_space_group_name_H-M_alt    "P 1"
_space_group_IT_number       1

loop_
  _space_group_symop_operation_xyz
  'x, y, z'

loop_
  _atom_site_type_symbol
  _atom_site_label
  _atom_site_symmetry_multiplicity
  _atom_site_fract_x
  _atom_site_fract_y
  _atom_site_fract_z
  _atom_site_occupancy
  Ba  Ba1       1.0  0.66800  0.66800  0.04080  1.0000
  Ba  Ba2       1.0  0.35000  0.35000  0.14600  1.0000
  Ba  Ba3       1.0  0.03680  0.03680  0.25000  1.0000
  Ba  Ba4       1.0  0.35000  0.35000  0.35400  1.0000
  Ba  Ba5       1.0  0.66800  0.66800  0.45900  1.0000
  Ba  Ba6       1.0  0.33200  0.33200  0.54100  1.0000
  Ba  Ba7       1.0  0.65000  0.65000  0.64600  1.0000
  Ba  Ba8       1.0  0.96300  0.96300  0.75000  1.0000
  Ba  Ba9       1.0  0.65000  0.65000  0.85400  1.0000
  Ba  Ba10      1.0  0.33200  0.33200  0.95900  1.0000
  Fe  Fe1       1.0  0.00000  0.00000  0.00000  1.0000
  Fe  Fe2       1.0  0.01270  0.01270  0.10700  1.0000
  Fe  Fe3       1.0  0.68300  0.68300  0.18200  1.0000
  Fe  Fe4       1.0  0.68300  0.68300  0.31800  1.0000
  Fe  Fe5       1.0  0.01270  0.01270  0.39300  1.0000
  Fe  Fe6       1.0  0.00000  0.00000  0.50000  1.0000
  Fe  Fe7       1.0  0.98700  0.98700  0.60700  1.0000
  Fe  Fe8       1.0  0.31700  0.31700  0.68200  1.0000
  Fe  Fe9       1.0  0.31700  0.31700  0.81800  1.0000
  Fe  Fe10      1.0  0.98700  0.98700  0.89300  1.0000
  O   O1        1.0  0.15400  0.15400  0.04440  1.0000
  O   O2        1.0  0.70600  0.15400  0.05010  1.0000
  O   O3        1.0  0.15400  0.70600  0.05010  1.0000
  O   O4        1.0  0.85900  0.35200  0.14700  1.0000
  O   O5        1.0  0.35200  0.85900  0.14700  1.0000
  O   O6        1.0  0.85900  0.85900  0.15900  1.0000
  O   O7        1.0  0.28800  0.28800  0.25000  1.0000
  O   O8        1.0  0.59800  0.59800  0.25000  1.0000
  O   O9        1.0  0.85900  0.85900  0.34100  1.0000
  O   O10       1.0  0.85900  0.35200  0.35300  1.0000
  O   O11       1.0  0.35200  0.85900  0.35300  1.0000
  O   O12       1.0  0.70600  0.15400  0.45000  1.0000
  O   O13       1.0  0.15400  0.70600  0.45000  1.0000
  O   O14       1.0  0.15400  0.15400  0.45600  1.0000
  O   O15       1.0  0.84600  0.84600  0.54400  1.0000
  O   O16       1.0  0.84600  0.29400  0.55000  1.0000
  O   O17       1.0  0.29400  0.84600  0.55000  1.0000
  O   O18       1.0  0.64800  0.14100  0.64700  1.0000
  O   O19       1.0  0.14100  0.64800  0.64700  1.0000
  O   O20       1.0  0.14100  0.14100  0.65900  1.0000
  O   O21       1.0  0.40200  0.40200  0.75000  1.0000
  O   O22       1.0  0.71200  0.71200  0.75000  1.0000
  O   O23       1.0  0.14100  0.14100  0.84100  1.0000
  O   O24       1.0  0.64800  0.14100  0.85300  1.0000
  O   O25       1.0  0.14100  0.64800  0.85300  1.0000
  O   O26       1.0  0.84600  0.29400  0.95000  1.0000
  O   O27       1.0  0.29400  0.84600  0.95000  1.0000
  O   O28       1.0  0.84600  0.84600  0.95600  1.0000
