data_image0
_chemical_formula_structural       H2I10K5O30Pd2
_chemical_formula_sum              "H2 I10 K5 O30 Pd2"
_cell_length_a       8.09788
_cell_length_b       8.09788
_cell_length_c       12.7803
_cell_angle_alpha    107.261
_cell_angle_beta     107.261
_cell_angle_gamma    91.1031

_space_group_name_H-M_alt    "P 1"
_space_group_IT_number       1

loop_
  _space_group_symop_operation_xyz
  'x, y, z'

loop_
  _atom_site_type_symbol
  _atom_site_label
  _atom_site_symmetry_multiplicity
  _atom_site_fract_x
  _atom_site_fract_y
  _atom_site_fract_z
  _atom_site_occupancy
  H   H1        1.0  0.45500  0.45500  0.04050  1.0000
  H   H2        1.0  0.54500  0.54500  0.96000  1.0000
  I   I1        1.0  0.24100  0.24100  0.03670  1.0000
  I   I2        1.0  0.09010  0.09010  0.22600  1.0000
  I   I3        1.0  0.62700  0.11900  0.24600  1.0000
  I   I4        1.0  0.11900  0.62700  0.24600  1.0000
  I   I5        1.0  0.63900  0.63900  0.27600  1.0000
  I   I6        1.0  0.36100  0.36100  0.72400  1.0000
  I   I7        1.0  0.88100  0.37300  0.75400  1.0000
  I   I8        1.0  0.37300  0.88100  0.75400  1.0000
  I   I9        1.0  0.91000  0.91000  0.77400  1.0000
  I   I10       1.0  0.75900  0.75900  0.96300  1.0000
  K   K1        1.0  0.73900  0.26100  0.00000  1.0000
  K   K2        1.0  0.26100  0.73900  0.00000  1.0000
  K   K3        1.0  0.50000  0.00000  0.50000  1.0000
  K   K4        1.0  0.00000  0.50000  0.50000  1.0000
  K   K5        1.0  0.00000  0.00000  0.50000  1.0000
  O   O1        1.0  0.62500  0.62500  0.03120  1.0000
  O   O2        1.0  0.96500  0.72700  0.05900  1.0000
  O   O3        1.0  0.72700  0.96500  0.05900  1.0000
  O   O4        1.0  0.27300  0.04170  0.16300  1.0000
  O   O5        1.0  0.04170  0.27300  0.16300  1.0000
  O   O6        1.0  0.58900  0.29800  0.17900  1.0000
  O   O7        1.0  0.29800  0.58900  0.17900  1.0000
  O   O8        1.0  0.86500  0.16700  0.31800  1.0000
  O   O9        1.0  0.16700  0.86500  0.31800  1.0000
  O   O10       1.0  0.87800  0.64200  0.32900  1.0000
  O   O11       1.0  0.64200  0.87800  0.32900  1.0000
  O   O12       1.0  0.22000  0.22000  0.37500  1.0000
  O   O13       1.0  0.58000  0.22600  0.38200  1.0000
  O   O14       1.0  0.22600  0.58000  0.38200  1.0000
  O   O15       1.0  0.59600  0.59600  0.40000  1.0000
  O   O16       1.0  0.40400  0.40400  0.60000  1.0000
  O   O17       1.0  0.77400  0.42000  0.61800  1.0000
  O   O18       1.0  0.42000  0.77400  0.61800  1.0000
  O   O19       1.0  0.78000  0.78000  0.62500  1.0000
  O   O20       1.0  0.35800  0.12200  0.67100  1.0000
  O   O21       1.0  0.12200  0.35800  0.67100  1.0000
  O   O22       1.0  0.83300  0.13500  0.68200  1.0000
  O   O23       1.0  0.13500  0.83300  0.68200  1.0000
  O   O24       1.0  0.70200  0.41100  0.82100  1.0000
  O   O25       1.0  0.41100  0.70200  0.82100  1.0000
  O   O26       1.0  0.95800  0.72700  0.83700  1.0000
  O   O27       1.0  0.72700  0.95800  0.83700  1.0000
  O   O28       1.0  0.27300  0.03520  0.94100  1.0000
  O   O29       1.0  0.03520  0.27300  0.94100  1.0000
  O   O30       1.0  0.37500  0.37500  0.96900  1.0000
  Pd  Pd1       1.0  0.40500  0.40500  0.38000  1.0000
  Pd  Pd2       1.0  0.59500  0.59500  0.62000  1.0000
