data_image0
_chemical_formula_structural       La4O36Ta12
_chemical_formula_sum              "La4 O36 Ta12"
_cell_length_a       6.57898
_cell_length_b       7.67516
_cell_length_c       12.4895
_cell_angle_alpha    90
_cell_angle_beta     90
_cell_angle_gamma    90

_space_group_name_H-M_alt    "P 1"
_space_group_IT_number       1

loop_
  _space_group_symop_operation_xyz
  'x, y, z'

loop_
  _atom_site_type_symbol
  _atom_site_label
  _atom_site_symmetry_multiplicity
  _atom_site_fract_x
  _atom_site_fract_y
  _atom_site_fract_z
  _atom_site_occupancy
  La  La1       1.0  0.55000  0.25000  0.02350  1.0000
  La  La2       1.0  0.04990  0.25000  0.47700  1.0000
  La  La3       1.0  0.95000  0.75000  0.52300  1.0000
  La  La4       1.0  0.45000  0.75000  0.97700  1.0000
  O   O1        1.0  0.93400  0.25000  0.02390  1.0000
  O   O2        1.0  0.28500  0.03000  0.04190  1.0000
  O   O3        1.0  0.28500  0.47000  0.04190  1.0000
  O   O4        1.0  0.97500  0.53900  0.15700  1.0000
  O   O5        1.0  0.97500  0.96100  0.15700  1.0000
  O   O6        1.0  0.59300  0.01810  0.16500  1.0000
  O   O7        1.0  0.59300  0.48200  0.16500  1.0000
  O   O8        1.0  0.31400  0.75000  0.17700  1.0000
  O   O9        1.0  0.29600  0.25000  0.20400  1.0000
  O   O10       1.0  0.79600  0.25000  0.29600  1.0000
  O   O11       1.0  0.81400  0.75000  0.32300  1.0000
  O   O12       1.0  0.09280  0.01810  0.33500  1.0000
  O   O13       1.0  0.09280  0.48200  0.33500  1.0000
  O   O14       1.0  0.47500  0.53900  0.34300  1.0000
  O   O15       1.0  0.47500  0.96100  0.34300  1.0000
  O   O16       1.0  0.78500  0.03000  0.45800  1.0000
  O   O17       1.0  0.78500  0.47000  0.45800  1.0000
  O   O18       1.0  0.43400  0.25000  0.47600  1.0000
  O   O19       1.0  0.56600  0.75000  0.52400  1.0000
  O   O20       1.0  0.21500  0.53000  0.54200  1.0000
  O   O21       1.0  0.21500  0.97000  0.54200  1.0000
  O   O22       1.0  0.52500  0.03890  0.65700  1.0000
  O   O23       1.0  0.52500  0.46100  0.65700  1.0000
  O   O24       1.0  0.90700  0.51800  0.66500  1.0000
  O   O25       1.0  0.90700  0.98200  0.66500  1.0000
  O   O26       1.0  0.18600  0.25000  0.67700  1.0000
  O   O27       1.0  0.20400  0.75000  0.70400  1.0000
  O   O28       1.0  0.70400  0.75000  0.79600  1.0000
  O   O29       1.0  0.68600  0.25000  0.82300  1.0000
  O   O30       1.0  0.40700  0.51800  0.83500  1.0000
  O   O31       1.0  0.40700  0.98200  0.83500  1.0000
  O   O32       1.0  0.02480  0.03890  0.84300  1.0000
  O   O33       1.0  0.02480  0.46100  0.84300  1.0000
  O   O34       1.0  0.71500  0.53000  0.95800  1.0000
  O   O35       1.0  0.71500  0.97000  0.95800  1.0000
  O   O36       1.0  0.06640  0.75000  0.97600  1.0000
  Ta  Ta1       1.0  0.00000  0.00000  0.00000  1.0000
  Ta  Ta2       1.0  0.00000  0.50000  0.00000  1.0000
  Ta  Ta3       1.0  0.28400  0.50300  0.21600  1.0000
  Ta  Ta4       1.0  0.28400  0.99700  0.21600  1.0000
  Ta  Ta5       1.0  0.78400  0.50300  0.28400  1.0000
  Ta  Ta6       1.0  0.78400  0.99700  0.28400  1.0000
  Ta  Ta7       1.0  0.50000  0.00000  0.50000  1.0000
  Ta  Ta8       1.0  0.50000  0.50000  0.50000  1.0000
  Ta  Ta9       1.0  0.21600  0.00292  0.71600  1.0000
  Ta  Ta10      1.0  0.21600  0.49700  0.71600  1.0000
  Ta  Ta11      1.0  0.71600  0.00292  0.78400  1.0000
  Ta  Ta12      1.0  0.71600  0.49700  0.78400  1.0000
