data_image0
_chemical_formula_structural       Cs4Nb4O36S8
_chemical_formula_sum              "Cs4 Nb4 O36 S8"
_cell_length_a       17.3224
_cell_length_b       8.71445
_cell_length_c       5.22696
_cell_angle_alpha    90
_cell_angle_beta     90
_cell_angle_gamma    90

_space_group_name_H-M_alt    "P 1"
_space_group_IT_number       1

loop_
  _space_group_symop_operation_xyz
  'x, y, z'

loop_
  _atom_site_type_symbol
  _atom_site_label
  _atom_site_symmetry_multiplicity
  _atom_site_fract_x
  _atom_site_fract_y
  _atom_site_fract_z
  _atom_site_occupancy
  Cs  Cs1       1.0  0.06880  0.15100  0.25000  1.0000
  Cs  Cs2       1.0  0.56900  0.34900  0.25000  1.0000
  Cs  Cs3       1.0  0.43100  0.65100  0.75000  1.0000
  Cs  Cs4       1.0  0.93100  0.84900  0.75000  1.0000
  Nb  Nb1       1.0  0.31600  0.06230  0.25000  1.0000
  Nb  Nb2       1.0  0.81600  0.43800  0.25000  1.0000
  Nb  Nb3       1.0  0.18400  0.56200  0.75000  1.0000
  Nb  Nb4       1.0  0.68400  0.93800  0.75000  1.0000
  O   O1        1.0  0.27200  0.54900  0.01930  1.0000
  O   O2        1.0  0.77200  0.95100  0.01930  1.0000
  O   O3        1.0  0.11800  0.65700  0.02250  1.0000
  O   O4        1.0  0.61800  0.84300  0.02250  1.0000
  O   O5        1.0  0.53200  0.01770  0.25000  1.0000
  O   O6        1.0  0.88400  0.03670  0.25000  1.0000
  O   O7        1.0  0.76400  0.19100  0.25000  1.0000
  O   O8        1.0  0.26400  0.30900  0.25000  1.0000
  O   O9        1.0  0.38400  0.46300  0.25000  1.0000
  O   O10       1.0  0.03220  0.48200  0.25000  1.0000
  O   O11       1.0  0.84800  0.62600  0.25000  1.0000
  O   O12       1.0  0.51100  0.73600  0.25000  1.0000
  O   O13       1.0  0.01080  0.76400  0.25000  1.0000
  O   O14       1.0  0.34800  0.87400  0.25000  1.0000
  O   O15       1.0  0.11800  0.65700  0.47700  1.0000
  O   O16       1.0  0.61800  0.84300  0.47700  1.0000
  O   O17       1.0  0.27200  0.54900  0.48100  1.0000
  O   O18       1.0  0.77200  0.95100  0.48100  1.0000
  O   O19       1.0  0.22800  0.04870  0.51900  1.0000
  O   O20       1.0  0.72800  0.45100  0.51900  1.0000
  O   O21       1.0  0.38200  0.15700  0.52300  1.0000
  O   O22       1.0  0.88200  0.34300  0.52300  1.0000
  O   O23       1.0  0.65200  0.12600  0.75000  1.0000
  O   O24       1.0  0.98900  0.23600  0.75000  1.0000
  O   O25       1.0  0.48900  0.26400  0.75000  1.0000
  O   O26       1.0  0.15200  0.37400  0.75000  1.0000
  O   O27       1.0  0.96800  0.51800  0.75000  1.0000
  O   O28       1.0  0.61600  0.53700  0.75000  1.0000
  O   O29       1.0  0.73600  0.69100  0.75000  1.0000
  O   O30       1.0  0.23600  0.80900  0.75000  1.0000
  O   O31       1.0  0.11600  0.96300  0.75000  1.0000
  O   O32       1.0  0.46800  0.98200  0.75000  1.0000
  O   O33       1.0  0.38200  0.15700  0.97700  1.0000
  O   O34       1.0  0.88200  0.34300  0.97700  1.0000
  O   O35       1.0  0.22800  0.04870  0.98100  1.0000
  O   O36       1.0  0.72800  0.45100  0.98100  1.0000
  S   S1        1.0  0.80100  0.03940  0.25000  1.0000
  S   S2        1.0  0.30100  0.46100  0.25000  1.0000
  S   S3        1.0  0.06360  0.63500  0.25000  1.0000
  S   S4        1.0  0.56400  0.86500  0.25000  1.0000
  S   S5        1.0  0.43600  0.13500  0.75000  1.0000
  S   S6        1.0  0.93600  0.36500  0.75000  1.0000
  S   S7        1.0  0.69900  0.53900  0.75000  1.0000
  S   S8        1.0  0.19900  0.96100  0.75000  1.0000
