data_image0
_chemical_formula_structural       H16Na4Ni2O24S4
_chemical_formula_sum              "H16 Na4 Ni2 O24 S4"
_cell_length_a       10.7806
_cell_length_b       7.96734
_cell_length_c       5.42494
_cell_angle_alpha    90
_cell_angle_beta     99.9406
_cell_angle_gamma    90

_space_group_name_H-M_alt    "P 1"
_space_group_IT_number       1

loop_
  _space_group_symop_operation_xyz
  'x, y, z'

loop_
  _atom_site_type_symbol
  _atom_site_label
  _atom_site_symmetry_multiplicity
  _atom_site_fract_x
  _atom_site_fract_y
  _atom_site_fract_z
  _atom_site_occupancy
  H   H1        1.0  0.84500  0.85600  0.21900  1.0000
  H   H2        1.0  0.34500  0.64400  0.21900  1.0000
  H   H3        1.0  0.51500  0.78500  0.22600  1.0000
  H   H4        1.0  0.01510  0.71500  0.22600  1.0000
  H   H5        1.0  0.82100  0.05610  0.23600  1.0000
  H   H6        1.0  0.32100  0.44400  0.23600  1.0000
  H   H7        1.0  0.64100  0.69600  0.32500  1.0000
  H   H8        1.0  0.14100  0.80400  0.32500  1.0000
  H   H9        1.0  0.35900  0.30400  0.67500  1.0000
  H   H10       1.0  0.85900  0.19600  0.67500  1.0000
  H   H11       1.0  0.17900  0.94400  0.76400  1.0000
  H   H12       1.0  0.67900  0.55600  0.76400  1.0000
  H   H13       1.0  0.48500  0.21500  0.77400  1.0000
  H   H14       1.0  0.98500  0.28500  0.77400  1.0000
  H   H15       1.0  0.15500  0.14400  0.78100  1.0000
  H   H16       1.0  0.65500  0.35600  0.78100  1.0000
  Na  Na1       1.0  0.36100  0.07740  0.12400  1.0000
  Na  Na2       1.0  0.86100  0.42300  0.12400  1.0000
  Na  Na3       1.0  0.63900  0.92300  0.87600  1.0000
  Na  Na4       1.0  0.13900  0.57700  0.87600  1.0000
  Ni  Ni1       1.0  0.00000  0.00000  0.00000  1.0000
  Ni  Ni2       1.0  0.50000  0.50000  0.00000  1.0000
  O   O1        1.0  0.33600  0.53700  0.12000  1.0000
  O   O2        1.0  0.83600  0.96300  0.12000  1.0000
  O   O3        1.0  0.08060  0.78400  0.16700  1.0000
  O   O4        1.0  0.58100  0.71600  0.16700  1.0000
  O   O5        1.0  0.57900  0.08070  0.21000  1.0000
  O   O6        1.0  0.07900  0.41900  0.21000  1.0000
  O   O7        1.0  0.07290  0.12400  0.32600  1.0000
  O   O8        1.0  0.57300  0.37600  0.32600  1.0000
  O   O9        1.0  0.87300  0.66900  0.35300  1.0000
  O   O10       1.0  0.37300  0.83100  0.35300  1.0000
  O   O11       1.0  0.27500  0.27300  0.36900  1.0000
  O   O12       1.0  0.77500  0.22700  0.36900  1.0000
  O   O13       1.0  0.72500  0.72700  0.63100  1.0000
  O   O14       1.0  0.22500  0.77300  0.63100  1.0000
  O   O15       1.0  0.12700  0.33100  0.64700  1.0000
  O   O16       1.0  0.62700  0.16900  0.64700  1.0000
  O   O17       1.0  0.92700  0.87600  0.67400  1.0000
  O   O18       1.0  0.42700  0.62400  0.67400  1.0000
  O   O19       1.0  0.42100  0.91900  0.79000  1.0000
  O   O20       1.0  0.92100  0.58100  0.79000  1.0000
  O   O21       1.0  0.41900  0.28400  0.83300  1.0000
  O   O22       1.0  0.91900  0.21600  0.83300  1.0000
  O   O23       1.0  0.16400  0.03730  0.88000  1.0000
  O   O24       1.0  0.66400  0.46300  0.88000  1.0000
  S   S1        1.0  0.63700  0.21200  0.38100  1.0000
  S   S2        1.0  0.13700  0.28800  0.38100  1.0000
  S   S3        1.0  0.36300  0.78800  0.61900  1.0000
  S   S4        1.0  0.86300  0.71200  0.61900  1.0000
