data_image0
_chemical_formula_structural       Cd2O2Sr2Te2
_chemical_formula_sum              "Cd2 O2 Sr2 Te2"
_cell_length_a       4.26525
_cell_length_b       6.31552
_cell_length_c       7.53049
_cell_angle_alpha    90
_cell_angle_beta     73.5488
_cell_angle_gamma    90

_space_group_name_H-M_alt    "P 1"
_space_group_IT_number       1

loop_
  _space_group_symop_operation_xyz
  'x, y, z'

loop_
  _atom_site_type_symbol
  _atom_site_label
  _atom_site_symmetry_multiplicity
  _atom_site_fract_x
  _atom_site_fract_y
  _atom_site_fract_z
  _atom_site_occupancy
  Cd  Cd1       1.0  0.89400  0.25000  0.21300  1.0000
  Cd  Cd2       1.0  0.10600  0.75000  0.78700  1.0000
  O   O1        1.0  0.00000  0.00000  0.00000  1.0000
  O   O2        1.0  0.00000  0.50000  0.00000  1.0000
  Sr  Sr1       1.0  0.41600  0.75000  0.16800  1.0000
  Sr  Sr2       1.0  0.58400  0.25000  0.83200  1.0000
  Te  Te1       1.0  0.28000  0.25000  0.44100  1.0000
  Te  Te2       1.0  0.72000  0.75000  0.55900  1.0000
