data_image0
_chemical_formula_structural       C8F4Na8O24Yb4
_chemical_formula_sum              "C8 F4 Na8 O24 Yb4"
_cell_length_a       6.03804
_cell_length_b       9.0244
_cell_length_c       11.0997
_cell_angle_alpha    94.4396
_cell_angle_beta     90
_cell_angle_gamma    109.545

_space_group_name_H-M_alt    "P 1"
_space_group_IT_number       1

loop_
  _space_group_symop_operation_xyz
  'x, y, z'

loop_
  _atom_site_type_symbol
  _atom_site_label
  _atom_site_symmetry_multiplicity
  _atom_site_fract_x
  _atom_site_fract_y
  _atom_site_fract_z
  _atom_site_occupancy
  C   C1        1.0  0.12800  0.42000  0.07840  1.0000
  C   C2        1.0  0.36600  0.14200  0.11800  1.0000
  C   C3        1.0  0.22400  0.85800  0.38200  1.0000
  C   C4        1.0  0.70800  0.58000  0.42200  1.0000
  C   C5        1.0  0.29200  0.42000  0.57800  1.0000
  C   C6        1.0  0.77600  0.14200  0.61800  1.0000
  C   C7        1.0  0.63400  0.85800  0.88200  1.0000
  C   C8        1.0  0.87200  0.58000  0.92200  1.0000
  F   F1        1.0  0.67800  0.87300  0.17800  1.0000
  F   F2        1.0  0.80500  0.12700  0.32200  1.0000
  F   F3        1.0  0.19500  0.87300  0.67800  1.0000
  F   F4        1.0  0.32200  0.12700  0.82200  1.0000
  Na  Na1       1.0  0.30100  0.78200  0.12000  1.0000
  Na  Na2       1.0  0.66400  0.49500  0.14400  1.0000
  Na  Na3       1.0  0.16900  0.50500  0.35600  1.0000
  Na  Na4       1.0  0.51900  0.21800  0.38000  1.0000
  Na  Na5       1.0  0.48100  0.78200  0.62000  1.0000
  Na  Na6       1.0  0.83100  0.49500  0.64400  1.0000
  Na  Na7       1.0  0.33600  0.50500  0.85600  1.0000
  Na  Na8       1.0  0.69900  0.21800  0.88000  1.0000
  O   O1        1.0  0.93300  0.68600  0.01120  1.0000
  O   O2        1.0  0.21500  0.01430  0.06810  1.0000
  O   O3        1.0  0.32300  0.53400  0.08000  1.0000
  O   O4        1.0  0.58000  0.19000  0.08390  1.0000
  O   O5        1.0  0.99000  0.40900  0.16900  1.0000
  O   O6        1.0  0.30000  0.22200  0.20300  1.0000
  O   O7        1.0  0.07850  0.77800  0.29700  1.0000
  O   O8        1.0  0.58100  0.59100  0.33100  1.0000
  O   O9        1.0  0.39100  0.81000  0.41600  1.0000
  O   O10       1.0  0.78900  0.46600  0.42000  1.0000
  O   O11       1.0  0.20100  0.98600  0.43200  1.0000
  O   O12       1.0  0.24700  0.31400  0.48900  1.0000
  O   O13       1.0  0.75300  0.68600  0.51100  1.0000
  O   O14       1.0  0.79900  0.01430  0.56800  1.0000
  O   O15       1.0  0.21100  0.53400  0.58000  1.0000
  O   O16       1.0  0.60900  0.19000  0.58400  1.0000
  O   O17       1.0  0.41900  0.40900  0.66900  1.0000
  O   O18       1.0  0.92200  0.22200  0.70300  1.0000
  O   O19       1.0  0.70000  0.77800  0.79700  1.0000
  O   O20       1.0  0.01000  0.59100  0.83100  1.0000
  O   O21       1.0  0.42000  0.81000  0.91600  1.0000
  O   O22       1.0  0.67700  0.46600  0.92000  1.0000
  O   O23       1.0  0.78500  0.98600  0.93200  1.0000
  O   O24       1.0  0.06740  0.31400  0.98900  1.0000
  Yb  Yb1       1.0  0.89100  0.11000  0.13100  1.0000
  Yb  Yb2       1.0  0.78200  0.89000  0.36900  1.0000
  Yb  Yb3       1.0  0.21800  0.11000  0.63100  1.0000
  Yb  Yb4       1.0  0.10900  0.89000  0.86900  1.0000
