data_image0
_chemical_formula_structural       F34Fe10Rb5
_chemical_formula_sum              "F34 Fe10 Rb5"
_cell_length_a       7.43476
_cell_length_b       8.21419
_cell_length_c       12.8189
_cell_angle_alpha    97.5411
_cell_angle_beta     73.1426
_cell_angle_gamma    116.908

_space_group_name_H-M_alt    "P 1"
_space_group_IT_number       1

loop_
  _space_group_symop_operation_xyz
  'x, y, z'

loop_
  _atom_site_type_symbol
  _atom_site_label
  _atom_site_symmetry_multiplicity
  _atom_site_fract_x
  _atom_site_fract_y
  _atom_site_fract_z
  _atom_site_occupancy
  F   F1        1.0  0.28600  0.31700  0.10700  1.0000
  F   F2        1.0  0.92400  0.31700  0.10700  1.0000
  F   F3        1.0  0.60600  0.68300  0.10700  1.0000
  F   F4        1.0  0.96900  0.68300  0.10700  1.0000
  F   F5        1.0  0.13900  0.00000  0.20300  1.0000
  F   F6        1.0  0.65700  0.00000  0.20300  1.0000
  F   F7        1.0  0.53300  0.27600  0.21100  1.0000
  F   F8        1.0  0.25700  0.72400  0.21100  1.0000
  F   F9        1.0  0.97200  0.24600  0.30200  1.0000
  F   F10       1.0  0.72600  0.75400  0.30200  1.0000
  F   F11       1.0  0.34300  0.50000  0.31400  1.0000
  F   F12       1.0  0.84300  0.50000  0.31400  1.0000
  F   F13       1.0  0.21300  0.19200  0.39900  1.0000
  F   F14       1.0  0.57900  0.19200  0.39900  1.0000
  F   F15       1.0  0.02140  0.80800  0.39900  1.0000
  F   F16       1.0  0.38700  0.80800  0.39900  1.0000
  F   F17       1.0  0.77500  0.00000  0.45100  1.0000
  F   F18       1.0  0.22500  0.00000  0.54900  1.0000
  F   F19       1.0  0.61300  0.19200  0.60100  1.0000
  F   F20       1.0  0.97900  0.19200  0.60100  1.0000
  F   F21       1.0  0.42100  0.80800  0.60100  1.0000
  F   F22       1.0  0.78700  0.80800  0.60100  1.0000
  F   F23       1.0  0.15700  0.50000  0.68600  1.0000
  F   F24       1.0  0.65700  0.50000  0.68600  1.0000
  F   F25       1.0  0.27400  0.24600  0.69800  1.0000
  F   F26       1.0  0.02810  0.75400  0.69800  1.0000
  F   F27       1.0  0.74300  0.27600  0.78900  1.0000
  F   F28       1.0  0.46700  0.72400  0.78900  1.0000
  F   F29       1.0  0.34300  0.00000  0.79700  1.0000
  F   F30       1.0  0.86100  0.00000  0.79700  1.0000
  F   F31       1.0  0.03120  0.31700  0.89300  1.0000
  F   F32       1.0  0.39400  0.31700  0.89300  1.0000
  F   F33       1.0  0.07620  0.68300  0.89300  1.0000
  F   F34       1.0  0.71400  0.68300  0.89300  1.0000
  Fe  Fe1       1.0  0.24900  0.25500  0.24700  1.0000
  Fe  Fe2       1.0  0.75900  0.25500  0.24700  1.0000
  Fe  Fe3       1.0  0.50400  0.74500  0.24700  1.0000
  Fe  Fe4       1.0  0.99400  0.74500  0.24700  1.0000
  Fe  Fe5       1.0  0.00000  0.00000  0.50000  1.0000
  Fe  Fe6       1.0  0.50000  0.00000  0.50000  1.0000
  Fe  Fe7       1.0  0.00596  0.25500  0.75300  1.0000
  Fe  Fe8       1.0  0.49600  0.25500  0.75300  1.0000
  Fe  Fe9       1.0  0.24100  0.74500  0.75300  1.0000
  Fe  Fe10      1.0  0.75100  0.74500  0.75300  1.0000
  Rb  Rb1       1.0  0.00000  0.00000  0.00000  1.0000
  Rb  Rb2       1.0  0.70300  0.40700  0.00000  1.0000
  Rb  Rb3       1.0  0.29700  0.59300  0.00000  1.0000
  Rb  Rb4       1.0  0.00000  0.50000  0.50000  1.0000
  Rb  Rb5       1.0  0.50000  0.50000  0.50000  1.0000
