data_image0
_chemical_formula_structural       Mo10Na6O33
_chemical_formula_sum              "Mo10 Na6 O33"
_cell_length_a       7.91034
_cell_length_b       12.0407
_cell_length_c       7.56178
_cell_angle_alpha    99.6171
_cell_angle_beta     100.939
_cell_angle_gamma    109.718

_space_group_name_H-M_alt    "P 1"
_space_group_IT_number       1

loop_
  _space_group_symop_operation_xyz
  'x, y, z'

loop_
  _atom_site_type_symbol
  _atom_site_label
  _atom_site_symmetry_multiplicity
  _atom_site_fract_x
  _atom_site_fract_y
  _atom_site_fract_z
  _atom_site_occupancy
  Mo  Mo1       1.0  0.73100  0.49500  0.04920  1.0000
  Mo  Mo2       1.0  0.99500  0.97500  0.28000  1.0000
  Mo  Mo3       1.0  0.58700  0.98700  0.28200  1.0000
  Mo  Mo4       1.0  0.61400  0.68500  0.32300  1.0000
  Mo  Mo5       1.0  0.26800  0.50100  0.45000  1.0000
  Mo  Mo6       1.0  0.73200  0.49900  0.55000  1.0000
  Mo  Mo7       1.0  0.38600  0.31500  0.67700  1.0000
  Mo  Mo8       1.0  0.41300  0.01270  0.71800  1.0000
  Mo  Mo9       1.0  0.00460  0.02480  0.72000  1.0000
  Mo  Mo10      1.0  0.26900  0.50500  0.95100  1.0000
  Na  Na1       1.0  0.87800  0.21300  0.10700  1.0000
  Na  Na2       1.0  0.39500  0.23200  0.15000  1.0000
  Na  Na3       1.0  0.16000  0.76800  0.36900  1.0000
  Na  Na4       1.0  0.84000  0.23200  0.63100  1.0000
  Na  Na5       1.0  0.60500  0.76800  0.85000  1.0000
  Na  Na6       1.0  0.12200  0.78700  0.89300  1.0000
  O   O1        1.0  0.59500  0.62400  0.06140  1.0000
  O   O2        1.0  0.74100  0.35500  0.06640  1.0000
  O   O3        1.0  0.38300  0.92700  0.10600  1.0000
  O   O4        1.0  0.95800  0.59900  0.10800  1.0000
  O   O5        1.0  0.74100  0.93200  0.14100  1.0000
  O   O6        1.0  0.03970  0.86000  0.14900  1.0000
  O   O7        1.0  0.33700  0.52800  0.21600  1.0000
  O   O8        1.0  0.11000  0.10800  0.21900  1.0000
  O   O9        1.0  0.66900  0.14300  0.29100  1.0000
  O   O10       1.0  0.68500  0.52000  0.30100  1.0000
  O   O11       1.0  0.50200  0.79000  0.32000  1.0000
  O   O12       1.0  0.07850  0.36900  0.33400  1.0000
  O   O13       1.0  0.85100  0.77400  0.39600  1.0000
  O   O14       1.0  0.43900  0.37300  0.46300  1.0000
  O   O15       1.0  0.84800  0.00845  0.48100  1.0000
  O   O16       1.0  0.17900  0.61300  0.48500  1.0000
  O   O17       1.0  0.50000  0.00000  0.50000  1.0000
  O   O18       1.0  0.82100  0.38700  0.51500  1.0000
  O   O19       1.0  0.15200  0.99200  0.51900  1.0000
  O   O20       1.0  0.56100  0.62700  0.53700  1.0000
  O   O21       1.0  0.14900  0.22600  0.60400  1.0000
  O   O22       1.0  0.92100  0.63100  0.66600  1.0000
  O   O23       1.0  0.49800  0.21000  0.68000  1.0000
  O   O24       1.0  0.31500  0.48000  0.69900  1.0000
  O   O25       1.0  0.33100  0.85700  0.70900  1.0000
  O   O26       1.0  0.89000  0.89200  0.78100  1.0000
  O   O27       1.0  0.66300  0.47200  0.78400  1.0000
  O   O28       1.0  0.96000  0.14000  0.85100  1.0000
  O   O29       1.0  0.25900  0.06820  0.85900  1.0000
  O   O30       1.0  0.04180  0.40100  0.89200  1.0000
  O   O31       1.0  0.61700  0.07300  0.89400  1.0000
  O   O32       1.0  0.25900  0.64500  0.93400  1.0000
  O   O33       1.0  0.40500  0.37600  0.93900  1.0000
