data_image0
_chemical_formula_structural       I28K8La12Os2
_chemical_formula_sum              "I28 K8 La12 Os2"
_cell_length_a       10.1214
_cell_length_b       10.1214
_cell_length_c       22.3542
_cell_angle_alpha    90
_cell_angle_beta     90
_cell_angle_gamma    90

_space_group_name_H-M_alt    "P 1"
_space_group_IT_number       1

loop_
  _space_group_symop_operation_xyz
  'x, y, z'

loop_
  _atom_site_type_symbol
  _atom_site_label
  _atom_site_symmetry_multiplicity
  _atom_site_fract_x
  _atom_site_fract_y
  _atom_site_fract_z
  _atom_site_occupancy
  I   I1        1.0  0.70000  0.09290  0.00000  1.0000
  I   I2        1.0  0.09290  0.30000  0.00000  1.0000
  I   I3        1.0  0.90700  0.70000  0.00000  1.0000
  I   I4        1.0  0.30000  0.90700  0.00000  1.0000
  I   I5        1.0  0.39700  0.19300  0.14600  1.0000
  I   I6        1.0  0.80700  0.39700  0.14600  1.0000
  I   I7        1.0  0.19300  0.60300  0.14600  1.0000
  I   I8        1.0  0.60300  0.80700  0.14600  1.0000
  I   I9        1.0  0.00000  0.00000  0.22300  1.0000
  I   I10       1.0  0.50000  0.50000  0.27700  1.0000
  I   I11       1.0  0.30700  0.10300  0.35400  1.0000
  I   I12       1.0  0.89700  0.30700  0.35400  1.0000
  I   I13       1.0  0.10300  0.69300  0.35400  1.0000
  I   I14       1.0  0.69300  0.89700  0.35400  1.0000
  I   I15       1.0  0.59300  0.20000  0.50000  1.0000
  I   I16       1.0  0.20000  0.40700  0.50000  1.0000
  I   I17       1.0  0.80000  0.59300  0.50000  1.0000
  I   I18       1.0  0.40700  0.80000  0.50000  1.0000
  I   I19       1.0  0.30700  0.10300  0.64600  1.0000
  I   I20       1.0  0.89700  0.30700  0.64600  1.0000
  I   I21       1.0  0.10300  0.69300  0.64600  1.0000
  I   I22       1.0  0.69300  0.89700  0.64600  1.0000
  I   I23       1.0  0.50000  0.50000  0.72300  1.0000
  I   I24       1.0  0.00000  0.00000  0.77700  1.0000
  I   I25       1.0  0.39700  0.19300  0.85400  1.0000
  I   I26       1.0  0.80700  0.39700  0.85400  1.0000
  I   I27       1.0  0.19300  0.60300  0.85400  1.0000
  I   I28       1.0  0.60300  0.80700  0.85400  1.0000
  K   K1        1.0  0.66900  0.16900  0.25000  1.0000
  K   K2        1.0  0.16900  0.33100  0.25000  1.0000
  K   K3        1.0  0.83100  0.66900  0.25000  1.0000
  K   K4        1.0  0.33100  0.83100  0.25000  1.0000
  K   K5        1.0  0.66900  0.16900  0.75000  1.0000
  K   K6        1.0  0.16900  0.33100  0.75000  1.0000
  K   K7        1.0  0.83100  0.66900  0.75000  1.0000
  K   K8        1.0  0.33100  0.83100  0.75000  1.0000
  La  La1       1.0  0.40800  0.23000  0.00000  1.0000
  La  La2       1.0  0.77000  0.40800  0.00000  1.0000
  La  La3       1.0  0.23000  0.59200  0.00000  1.0000
  La  La4       1.0  0.59200  0.77000  0.00000  1.0000
  La  La5       1.0  0.50000  0.50000  0.12800  1.0000
  La  La6       1.0  0.00000  0.00000  0.37200  1.0000
  La  La7       1.0  0.27000  0.09180  0.50000  1.0000
  La  La8       1.0  0.90800  0.27000  0.50000  1.0000
  La  La9       1.0  0.09180  0.73000  0.50000  1.0000
  La  La10      1.0  0.73000  0.90800  0.50000  1.0000
  La  La11      1.0  0.00000  0.00000  0.62800  1.0000
  La  La12      1.0  0.50000  0.50000  0.87200  1.0000
  Os  Os1       1.0  0.50000  0.50000  0.00000  1.0000
  Os  Os2       1.0  0.00000  0.00000  0.50000  1.0000
