data_image0
_chemical_formula_structural       Br36Nd16
_chemical_formula_sum              "Br36 Nd16"
_cell_length_a       7.63838
_cell_length_b       29.153
_cell_length_c       7.04975
_cell_angle_alpha    90
_cell_angle_beta     90
_cell_angle_gamma    90.9688

_space_group_name_H-M_alt    "P 1"
_space_group_IT_number       1

loop_
  _space_group_symop_operation_xyz
  'x, y, z'

loop_
  _atom_site_type_symbol
  _atom_site_label
  _atom_site_symmetry_multiplicity
  _atom_site_fract_x
  _atom_site_fract_y
  _atom_site_fract_z
  _atom_site_occupancy
  Br  Br1       1.0  0.65600  0.70300  0.11700  1.0000
  Br  Br2       1.0  0.33700  0.79600  0.11800  1.0000
  Br  Br3       1.0  0.65900  0.89900  0.16000  1.0000
  Br  Br4       1.0  0.96600  0.13000  0.16900  1.0000
  Br  Br5       1.0  0.32900  0.60100  0.17400  1.0000
  Br  Br6       1.0  0.01980  0.37100  0.18200  1.0000
  Br  Br7       1.0  0.99800  0.25000  0.18900  1.0000
  Br  Br8       1.0  0.39100  0.00921  0.23400  1.0000
  Br  Br9       1.0  0.60700  0.49100  0.24500  1.0000
  Br  Br10      1.0  0.89100  0.00949  0.25200  1.0000
  Br  Br11      1.0  0.10600  0.49100  0.27700  1.0000
  Br  Br12      1.0  0.15800  0.89900  0.31800  1.0000
  Br  Br13      1.0  0.49000  0.25000  0.32300  1.0000
  Br  Br14      1.0  0.47600  0.12900  0.32500  1.0000
  Br  Br15      1.0  0.83300  0.60100  0.33500  1.0000
  Br  Br16      1.0  0.51800  0.37100  0.33600  1.0000
  Br  Br17      1.0  0.15200  0.70500  0.37000  1.0000
  Br  Br18      1.0  0.82900  0.79600  0.37000  1.0000
  Br  Br19      1.0  0.82900  0.29600  0.63000  1.0000
  Br  Br20      1.0  0.15200  0.20500  0.63000  1.0000
  Br  Br21      1.0  0.51800  0.87100  0.66400  1.0000
  Br  Br22      1.0  0.83300  0.10100  0.66500  1.0000
  Br  Br23      1.0  0.47600  0.62900  0.67500  1.0000
  Br  Br24      1.0  0.49000  0.75000  0.67700  1.0000
  Br  Br25      1.0  0.15800  0.39900  0.68200  1.0000
  Br  Br26      1.0  0.10600  0.99100  0.72300  1.0000
  Br  Br27      1.0  0.89100  0.50900  0.74800  1.0000
  Br  Br28      1.0  0.60700  0.99100  0.75500  1.0000
  Br  Br29      1.0  0.39100  0.50900  0.76600  1.0000
  Br  Br30      1.0  0.99800  0.75000  0.81100  1.0000
  Br  Br31      1.0  0.01980  0.87100  0.81800  1.0000
  Br  Br32      1.0  0.32900  0.10100  0.82600  1.0000
  Br  Br33      1.0  0.96600  0.63000  0.83100  1.0000
  Br  Br34      1.0  0.65900  0.39900  0.84000  1.0000
  Br  Br35      1.0  0.33700  0.29600  0.88200  1.0000
  Br  Br36      1.0  0.65600  0.20300  0.88300  1.0000
  Nd  Nd1       1.0  0.29300  0.19200  0.02500  1.0000
  Nd  Nd2       1.0  0.65100  0.07020  0.02540  1.0000
  Nd  Nd3       1.0  0.69700  0.30700  0.03170  1.0000
  Nd  Nd4       1.0  0.33900  0.43000  0.04260  1.0000
  Nd  Nd5       1.0  0.15400  0.07160  0.45600  1.0000
  Nd  Nd6       1.0  0.83900  0.42900  0.47700  1.0000
  Nd  Nd7       1.0  0.79300  0.19400  0.48100  1.0000
  Nd  Nd8       1.0  0.19200  0.30800  0.48900  1.0000
  Nd  Nd9       1.0  0.19200  0.80800  0.51100  1.0000
  Nd  Nd10      1.0  0.79300  0.69400  0.51900  1.0000
  Nd  Nd11      1.0  0.83900  0.92900  0.52300  1.0000
  Nd  Nd12      1.0  0.15400  0.57200  0.54400  1.0000
  Nd  Nd13      1.0  0.33900  0.93000  0.95700  1.0000
  Nd  Nd14      1.0  0.69700  0.80700  0.96800  1.0000
  Nd  Nd15      1.0  0.65100  0.57000  0.97500  1.0000
  Nd  Nd16      1.0  0.29300  0.69200  0.97500  1.0000
