data_image0
_chemical_formula_structural       As16Cs8Se24
_chemical_formula_sum              "As16 Cs8 Se24"
_cell_length_a       14.9074
_cell_length_b       7.62158
_cell_length_c       13.6286
_cell_angle_alpha    90
_cell_angle_beta     90
_cell_angle_gamma    90

_space_group_name_H-M_alt    "P 1"
_space_group_IT_number       1

loop_
  _space_group_symop_operation_xyz
  'x, y, z'

loop_
  _atom_site_type_symbol
  _atom_site_label
  _atom_site_symmetry_multiplicity
  _atom_site_fract_x
  _atom_site_fract_y
  _atom_site_fract_z
  _atom_site_occupancy
  As  As1       1.0  0.28400  0.75000  0.06720  1.0000
  As  As2       1.0  0.01370  0.25000  0.22700  1.0000
  As  As3       1.0  0.74400  0.08350  0.22700  1.0000
  As  As4       1.0  0.74400  0.41700  0.22700  1.0000
  As  As5       1.0  0.24400  0.08350  0.27300  1.0000
  As  As6       1.0  0.24400  0.41700  0.27300  1.0000
  As  As7       1.0  0.51400  0.25000  0.27300  1.0000
  As  As8       1.0  0.78400  0.75000  0.43300  1.0000
  As  As9       1.0  0.21600  0.25000  0.56700  1.0000
  As  As10      1.0  0.48600  0.75000  0.72700  1.0000
  As  As11      1.0  0.75600  0.58300  0.72700  1.0000
  As  As12      1.0  0.75600  0.91700  0.72700  1.0000
  As  As13      1.0  0.25600  0.58300  0.77300  1.0000
  As  As14      1.0  0.25600  0.91700  0.77300  1.0000
  As  As15      1.0  0.98600  0.75000  0.77300  1.0000
  As  As16      1.0  0.71600  0.25000  0.93300  1.0000
  Cs  Cs1       1.0  0.90900  0.75000  0.08340  1.0000
  Cs  Cs2       1.0  0.57600  0.75000  0.09530  1.0000
  Cs  Cs3       1.0  0.07600  0.75000  0.40500  1.0000
  Cs  Cs4       1.0  0.40900  0.75000  0.41700  1.0000
  Cs  Cs5       1.0  0.59100  0.25000  0.58300  1.0000
  Cs  Cs6       1.0  0.92400  0.25000  0.59500  1.0000
  Cs  Cs7       1.0  0.42400  0.25000  0.90500  1.0000
  Cs  Cs8       1.0  0.09080  0.25000  0.91700  1.0000
  Se  Se1       1.0  0.61600  0.25000  0.07130  1.0000
  Se  Se2       1.0  0.90100  0.25000  0.10200  1.0000
  Se  Se3       1.0  0.35700  0.00751  0.14300  1.0000
  Se  Se4       1.0  0.35700  0.49200  0.14300  1.0000
  Se  Se5       1.0  0.11200  0.01270  0.16700  1.0000
  Se  Se6       1.0  0.11200  0.48700  0.16700  1.0000
  Se  Se7       1.0  0.61200  0.01270  0.33300  1.0000
  Se  Se8       1.0  0.61200  0.48700  0.33300  1.0000
  Se  Se9       1.0  0.85700  0.00751  0.35700  1.0000
  Se  Se10      1.0  0.85700  0.49200  0.35700  1.0000
  Se  Se11      1.0  0.40100  0.25000  0.39800  1.0000
  Se  Se12      1.0  0.11600  0.25000  0.42900  1.0000
  Se  Se13      1.0  0.88400  0.75000  0.57100  1.0000
  Se  Se14      1.0  0.59900  0.75000  0.60200  1.0000
  Se  Se15      1.0  0.14300  0.50800  0.64300  1.0000
  Se  Se16      1.0  0.14300  0.99200  0.64300  1.0000
  Se  Se17      1.0  0.38800  0.51300  0.66700  1.0000
  Se  Se18      1.0  0.38800  0.98700  0.66700  1.0000
  Se  Se19      1.0  0.88800  0.51300  0.83300  1.0000
  Se  Se20      1.0  0.88800  0.98700  0.83300  1.0000
  Se  Se21      1.0  0.64300  0.50800  0.85700  1.0000
  Se  Se22      1.0  0.64300  0.99200  0.85700  1.0000
  Se  Se23      1.0  0.09910  0.75000  0.89800  1.0000
  Se  Se24      1.0  0.38400  0.75000  0.92900  1.0000
