data_image0
_chemical_formula_structural       O32Rb4Sb4V8
_chemical_formula_sum              "O32 Rb4 Sb4 V8"
_cell_length_a       14.6168
_cell_length_b       5.57043
_cell_length_c       8.62096
_cell_angle_alpha    90
_cell_angle_beta     90
_cell_angle_gamma    90

_space_group_name_H-M_alt    "P 1"
_space_group_IT_number       1

loop_
  _space_group_symop_operation_xyz
  'x, y, z'

loop_
  _atom_site_type_symbol
  _atom_site_label
  _atom_site_symmetry_multiplicity
  _atom_site_fract_x
  _atom_site_fract_y
  _atom_site_fract_z
  _atom_site_occupancy
  O   O1        1.0  0.54500  0.25000  0.00566  1.0000
  O   O2        1.0  0.82300  0.75000  0.10600  1.0000
  O   O3        1.0  0.29400  0.50900  0.11200  1.0000
  O   O4        1.0  0.29400  0.99100  0.11200  1.0000
  O   O5        1.0  0.63300  0.75000  0.13000  1.0000
  O   O6        1.0  0.12700  0.25000  0.20100  1.0000
  O   O7        1.0  0.96600  0.50300  0.22300  1.0000
  O   O8        1.0  0.96600  0.99700  0.22300  1.0000
  O   O9        1.0  0.46600  0.50300  0.27700  1.0000
  O   O10       1.0  0.46600  0.99700  0.27700  1.0000
  O   O11       1.0  0.62700  0.25000  0.29900  1.0000
  O   O12       1.0  0.13300  0.75000  0.37000  1.0000
  O   O13       1.0  0.79400  0.50900  0.38800  1.0000
  O   O14       1.0  0.79400  0.99100  0.38800  1.0000
  O   O15       1.0  0.32300  0.75000  0.39400  1.0000
  O   O16       1.0  0.04470  0.25000  0.49400  1.0000
  O   O17       1.0  0.95500  0.75000  0.50600  1.0000
  O   O18       1.0  0.67700  0.25000  0.60600  1.0000
  O   O19       1.0  0.20600  0.00891  0.61200  1.0000
  O   O20       1.0  0.20600  0.49100  0.61200  1.0000
  O   O21       1.0  0.86700  0.25000  0.63000  1.0000
  O   O22       1.0  0.37300  0.75000  0.70100  1.0000
  O   O23       1.0  0.53400  0.00278  0.72300  1.0000
  O   O24       1.0  0.53400  0.49700  0.72300  1.0000
  O   O25       1.0  0.03360  0.00278  0.77700  1.0000
  O   O26       1.0  0.03360  0.49700  0.77700  1.0000
  O   O27       1.0  0.87300  0.75000  0.79900  1.0000
  O   O28       1.0  0.36700  0.25000  0.87000  1.0000
  O   O29       1.0  0.70600  0.00891  0.88800  1.0000
  O   O30       1.0  0.70600  0.49100  0.88800  1.0000
  O   O31       1.0  0.17700  0.25000  0.89400  1.0000
  O   O32       1.0  0.45500  0.75000  0.99400  1.0000
  Rb  Rb1       1.0  0.11900  0.75000  0.04650  1.0000
  Rb  Rb2       1.0  0.61900  0.75000  0.45400  1.0000
  Rb  Rb3       1.0  0.38100  0.25000  0.54600  1.0000
  Rb  Rb4       1.0  0.88100  0.25000  0.95400  1.0000
  Sb  Sb1       1.0  0.38300  0.75000  0.18800  1.0000
  Sb  Sb2       1.0  0.88300  0.75000  0.31200  1.0000
  Sb  Sb3       1.0  0.11700  0.25000  0.68800  1.0000
  Sb  Sb4       1.0  0.61700  0.25000  0.81200  1.0000
  V   V1        1.0  0.71600  0.75000  0.00624  1.0000
  V   V2        1.0  0.53000  0.25000  0.20600  1.0000
  V   V3        1.0  0.03010  0.25000  0.29400  1.0000
  V   V4        1.0  0.21600  0.75000  0.49400  1.0000
  V   V5        1.0  0.78400  0.25000  0.50600  1.0000
  V   V6        1.0  0.97000  0.75000  0.70600  1.0000
  V   V7        1.0  0.47000  0.75000  0.79400  1.0000
  V   V8        1.0  0.28400  0.25000  0.99400  1.0000
