data_image0
_chemical_formula_structural       In4O32Te8V4
_chemical_formula_sum              "In4 O32 Te8 V4"
_cell_length_a       7.70977
_cell_length_b       5.14314
_cell_length_c       16.5173
_cell_angle_alpha    90
_cell_angle_beta     93.41
_cell_angle_gamma    90

_space_group_name_H-M_alt    "P 1"
_space_group_IT_number       1

loop_
  _space_group_symop_operation_xyz
  'x, y, z'

loop_
  _atom_site_type_symbol
  _atom_site_label
  _atom_site_symmetry_multiplicity
  _atom_site_fract_x
  _atom_site_fract_y
  _atom_site_fract_z
  _atom_site_occupancy
  In  In1       1.0  0.14900  0.77900  0.17600  1.0000
  In  In2       1.0  0.35100  0.27900  0.32400  1.0000
  In  In3       1.0  0.64900  0.72100  0.67600  1.0000
  In  In4       1.0  0.85100  0.22100  0.82400  1.0000
  O   O1        1.0  0.67800  0.58100  0.03030  1.0000
  O   O2        1.0  0.03690  0.61500  0.06590  1.0000
  O   O3        1.0  0.54500  0.11200  0.08330  1.0000
  O   O4        1.0  0.18900  0.10700  0.09250  1.0000
  O   O5        1.0  0.38700  0.56100  0.14200  1.0000
  O   O6        1.0  0.81300  0.45200  0.17700  1.0000
  O   O7        1.0  0.92900  0.97800  0.21100  1.0000
  O   O8        1.0  0.36700  0.93800  0.24700  1.0000
  O   O9        1.0  0.13300  0.43800  0.25300  1.0000
  O   O10       1.0  0.57100  0.47800  0.28900  1.0000
  O   O11       1.0  0.68700  0.95200  0.32300  1.0000
  O   O12       1.0  0.11300  0.06140  0.35800  1.0000
  O   O13       1.0  0.31100  0.60700  0.40800  1.0000
  O   O14       1.0  0.95500  0.61200  0.41700  1.0000
  O   O15       1.0  0.46300  0.11500  0.43400  1.0000
  O   O16       1.0  0.82200  0.08140  0.47000  1.0000
  O   O17       1.0  0.17800  0.91900  0.53000  1.0000
  O   O18       1.0  0.53700  0.88500  0.56600  1.0000
  O   O19       1.0  0.04450  0.38800  0.58300  1.0000
  O   O20       1.0  0.68900  0.39300  0.59200  1.0000
  O   O21       1.0  0.88700  0.93900  0.64200  1.0000
  O   O22       1.0  0.31300  0.04840  0.67700  1.0000
  O   O23       1.0  0.42900  0.52200  0.71100  1.0000
  O   O24       1.0  0.86700  0.56200  0.74700  1.0000
  O   O25       1.0  0.63300  0.06220  0.75300  1.0000
  O   O26       1.0  0.07060  0.02220  0.78900  1.0000
  O   O27       1.0  0.18700  0.54800  0.82300  1.0000
  O   O28       1.0  0.61300  0.43900  0.85800  1.0000
  O   O29       1.0  0.81100  0.89300  0.90800  1.0000
  O   O30       1.0  0.45500  0.88800  0.91700  1.0000
  O   O31       1.0  0.96300  0.38500  0.93400  1.0000
  O   O32       1.0  0.32200  0.41900  0.97000  1.0000
  Te  Te1       1.0  0.86300  0.34300  0.06640  1.0000
  Te  Te2       1.0  0.58200  0.76500  0.21800  1.0000
  Te  Te3       1.0  0.91800  0.26500  0.28200  1.0000
  Te  Te4       1.0  0.63700  0.84300  0.43400  1.0000
  Te  Te5       1.0  0.36300  0.15700  0.56600  1.0000
  Te  Te6       1.0  0.08180  0.73500  0.71800  1.0000
  Te  Te7       1.0  0.41800  0.23500  0.78200  1.0000
  Te  Te8       1.0  0.13700  0.65700  0.93400  1.0000
  V   V1        1.0  0.36600  0.29300  0.07200  1.0000
  V   V2        1.0  0.13400  0.79300  0.42800  1.0000
  V   V3        1.0  0.86600  0.20700  0.57200  1.0000
  V   V4        1.0  0.63400  0.70700  0.92800  1.0000
