data_image0
_chemical_formula_structural       As10Br6In8O24
_chemical_formula_sum              "As10 Br6 In8 O24"
_cell_length_a       8.03177
_cell_length_b       10.5493
_cell_length_c       11.7104
_cell_angle_alpha    70.952
_cell_angle_beta     79.6837
_cell_angle_gamma    80.3697

_space_group_name_H-M_alt    "P 1"
_space_group_IT_number       1

loop_
  _space_group_symop_operation_xyz
  'x, y, z'

loop_
  _atom_site_type_symbol
  _atom_site_label
  _atom_site_symmetry_multiplicity
  _atom_site_fract_x
  _atom_site_fract_y
  _atom_site_fract_z
  _atom_site_occupancy
  As  As1       1.0  0.62700  0.47700  0.19100  1.0000
  As  As2       1.0  0.60000  0.99000  0.19200  1.0000
  As  As3       1.0  0.02470  0.68000  0.20600  1.0000
  As  As4       1.0  0.25300  0.37600  0.23800  1.0000
  As  As5       1.0  0.92700  0.08750  0.26400  1.0000
  As  As6       1.0  0.07310  0.91300  0.73600  1.0000
  As  As7       1.0  0.74700  0.62400  0.76200  1.0000
  As  As8       1.0  0.97500  0.32000  0.79400  1.0000
  As  As9       1.0  0.40000  0.01010  0.80800  1.0000
  As  As10      1.0  0.37300  0.52300  0.80900  1.0000
  Br  Br1       1.0  0.26600  0.02540  0.40900  1.0000
  Br  Br2       1.0  0.89500  0.36300  0.44300  1.0000
  Br  Br3       1.0  0.60100  0.67300  0.47400  1.0000
  Br  Br4       1.0  0.39900  0.32700  0.52600  1.0000
  Br  Br5       1.0  0.10500  0.63700  0.55700  1.0000
  Br  Br6       1.0  0.73400  0.97500  0.59100  1.0000
  In  In1       1.0  0.00000  0.00000  0.00000  1.0000
  In  In2       1.0  0.00000  0.50000  0.00000  1.0000
  In  In3       1.0  0.26100  0.21200  0.01110  1.0000
  In  In4       1.0  0.65200  0.28900  0.01260  1.0000
  In  In5       1.0  0.84300  0.79300  0.48500  1.0000
  In  In6       1.0  0.15700  0.20700  0.51500  1.0000
  In  In7       1.0  0.34800  0.71100  0.98700  1.0000
  In  In8       1.0  0.73900  0.78800  0.98900  1.0000
  O   O1        1.0  0.49900  0.11800  0.07070  1.0000
  O   O2        1.0  0.77700  0.40500  0.08590  1.0000
  O   O3        1.0  0.13800  0.80500  0.08680  1.0000
  O   O4        1.0  0.55800  0.64200  0.09190  1.0000
  O   O5        1.0  0.76300  0.91300  0.09770  1.0000
  O   O6        1.0  0.90400  0.63200  0.11300  1.0000
  O   O7        1.0  0.06740  0.08920  0.12400  1.0000
  O   O8        1.0  0.15800  0.34300  0.12600  1.0000
  O   O9        1.0  0.47200  0.38300  0.15700  1.0000
  O   O10       1.0  0.21700  0.56100  0.18400  1.0000
  O   O11       1.0  0.72400  0.12400  0.18800  1.0000
  O   O12       1.0  0.91700  0.91100  0.31000  1.0000
  O   O13       1.0  0.08270  0.08890  0.69000  1.0000
  O   O14       1.0  0.27600  0.87600  0.81200  1.0000
  O   O15       1.0  0.78300  0.43900  0.81600  1.0000
  O   O16       1.0  0.52800  0.61700  0.84300  1.0000
  O   O17       1.0  0.84200  0.65700  0.87400  1.0000
  O   O18       1.0  0.93300  0.91100  0.87600  1.0000
  O   O19       1.0  0.09630  0.36800  0.88700  1.0000
  O   O20       1.0  0.23700  0.08720  0.90200  1.0000
  O   O21       1.0  0.44200  0.35800  0.90800  1.0000
  O   O22       1.0  0.86200  0.19500  0.91300  1.0000
  O   O23       1.0  0.22300  0.59500  0.91400  1.0000
  O   O24       1.0  0.50100  0.88200  0.92900  1.0000
