data_image0
_chemical_formula_structural       Ba6Bi4O32P8
_chemical_formula_sum              "Ba6 Bi4 O32 P8"
_cell_length_a       8.79134
_cell_length_b       8.71291
_cell_length_c       10.9922
_cell_angle_alpha    108.713
_cell_angle_beta     113.571
_cell_angle_gamma    90

_space_group_name_H-M_alt    "P 1"
_space_group_IT_number       1

loop_
  _space_group_symop_operation_xyz
  'x, y, z'

loop_
  _atom_site_type_symbol
  _atom_site_label
  _atom_site_symmetry_multiplicity
  _atom_site_fract_x
  _atom_site_fract_y
  _atom_site_fract_z
  _atom_site_occupancy
  Ba  Ba1       1.0  0.94000  0.25000  0.00000  1.0000
  Ba  Ba2       1.0  0.05990  0.75000  0.00000  1.0000
  Ba  Ba3       1.0  0.15500  0.77300  0.43200  1.0000
  Ba  Ba4       1.0  0.27600  0.27300  0.43200  1.0000
  Ba  Ba5       1.0  0.72400  0.72700  0.56800  1.0000
  Ba  Ba6       1.0  0.84500  0.22700  0.56800  1.0000
  Bi  Bi1       1.0  0.63900  0.68300  0.15600  1.0000
  Bi  Bi2       1.0  0.51700  0.18300  0.15600  1.0000
  Bi  Bi3       1.0  0.48300  0.81700  0.84400  1.0000
  Bi  Bi4       1.0  0.36100  0.31700  0.84400  1.0000
  O   O1        1.0  0.38800  0.90400  0.12500  1.0000
  O   O2        1.0  0.73700  0.40400  0.12500  1.0000
  O   O3        1.0  0.70300  0.99100  0.14800  1.0000
  O   O4        1.0  0.44500  0.49100  0.14800  1.0000
  O   O5        1.0  0.15800  0.54700  0.14800  1.0000
  O   O6        1.0  0.99000  0.04710  0.14800  1.0000
  O   O7        1.0  0.90100  0.79300  0.18300  1.0000
  O   O8        1.0  0.28200  0.29300  0.18300  1.0000
  O   O9        1.0  0.31400  0.93400  0.33500  1.0000
  O   O10       1.0  0.02100  0.43400  0.33500  1.0000
  O   O11       1.0  0.59900  0.85400  0.34200  1.0000
  O   O12       1.0  0.74300  0.35400  0.34200  1.0000
  O   O13       1.0  0.82000  0.63800  0.35000  1.0000
  O   O14       1.0  0.53000  0.13800  0.35000  1.0000
  O   O15       1.0  0.40200  0.57000  0.37900  1.0000
  O   O16       1.0  0.97800  0.06950  0.37900  1.0000
  O   O17       1.0  0.02250  0.93000  0.62100  1.0000
  O   O18       1.0  0.59800  0.43000  0.62100  1.0000
  O   O19       1.0  0.47000  0.86200  0.65000  1.0000
  O   O20       1.0  0.18000  0.36200  0.65000  1.0000
  O   O21       1.0  0.40100  0.14600  0.65800  1.0000
  O   O22       1.0  0.25700  0.64600  0.65800  1.0000
  O   O23       1.0  0.97900  0.56600  0.66500  1.0000
  O   O24       1.0  0.68600  0.06600  0.66500  1.0000
  O   O25       1.0  0.71800  0.70700  0.81700  1.0000
  O   O26       1.0  0.09920  0.20700  0.81700  1.0000
  O   O27       1.0  0.00984  0.95300  0.85200  1.0000
  O   O28       1.0  0.84200  0.45300  0.85200  1.0000
  O   O29       1.0  0.29700  0.00932  0.85200  1.0000
  O   O30       1.0  0.55500  0.50900  0.85200  1.0000
  O   O31       1.0  0.26300  0.59600  0.87500  1.0000
  O   O32       1.0  0.61200  0.09640  0.87500  1.0000
  P   P1        1.0  0.32100  0.48400  0.21800  1.0000
  P   P2        1.0  0.89800  0.98400  0.21800  1.0000
  P   P3        1.0  0.45200  0.95100  0.28900  1.0000
  P   P4        1.0  0.83700  0.45100  0.28900  1.0000
  P   P5        1.0  0.16300  0.54900  0.71100  1.0000
  P   P6        1.0  0.54800  0.04870  0.71100  1.0000
  P   P7        1.0  0.10200  0.01560  0.78200  1.0000
  P   P8        1.0  0.67900  0.51600  0.78200  1.0000
