data_image0
_chemical_formula_structural       Ba9Cl34Sm6
_chemical_formula_sum              "Ba9 Cl34 Sm6"
_cell_length_a       11.3083
_cell_length_b       11.3083
_cell_length_c       13.417
_cell_angle_alpha    114.924
_cell_angle_beta     114.924
_cell_angle_gamma    90

_space_group_name_H-M_alt    "P 1"
_space_group_IT_number       1

loop_
  _space_group_symop_operation_xyz
  'x, y, z'

loop_
  _atom_site_type_symbol
  _atom_site_label
  _atom_site_symmetry_multiplicity
  _atom_site_fract_x
  _atom_site_fract_y
  _atom_site_fract_z
  _atom_site_occupancy
  Ba  Ba1       1.0  0.50000  0.50000  0.00000  1.0000
  Ba  Ba2       1.0  0.79400  0.34100  0.31600  1.0000
  Ba  Ba3       1.0  0.34100  0.52100  0.31600  1.0000
  Ba  Ba4       1.0  0.97400  0.79400  0.31600  1.0000
  Ba  Ba5       1.0  0.52100  0.97400  0.31600  1.0000
  Ba  Ba6       1.0  0.47900  0.02560  0.68400  1.0000
  Ba  Ba7       1.0  0.02560  0.20600  0.68400  1.0000
  Ba  Ba8       1.0  0.65900  0.47900  0.68400  1.0000
  Ba  Ba9       1.0  0.20600  0.65900  0.68400  1.0000
  Cl  Cl1       1.0  0.72200  0.14100  0.00000  1.0000
  Cl  Cl2       1.0  0.14100  0.27800  0.00000  1.0000
  Cl  Cl3       1.0  0.85900  0.72200  0.00000  1.0000
  Cl  Cl4       1.0  0.27800  0.85900  0.00000  1.0000
  Cl  Cl5       1.0  0.57600  0.07600  0.15200  1.0000
  Cl  Cl6       1.0  0.07600  0.57600  0.15200  1.0000
  Cl  Cl7       1.0  0.49200  0.36600  0.16000  1.0000
  Cl  Cl8       1.0  0.79400  0.49200  0.16000  1.0000
  Cl  Cl9       1.0  0.36600  0.66800  0.16000  1.0000
  Cl  Cl10      1.0  0.66800  0.79400  0.16000  1.0000
  Cl  Cl11      1.0  0.91000  0.05060  0.24100  1.0000
  Cl  Cl12      1.0  0.33000  0.19000  0.24100  1.0000
  Cl  Cl13      1.0  0.05060  0.33000  0.24100  1.0000
  Cl  Cl14      1.0  0.19000  0.91000  0.24100  1.0000
  Cl  Cl15      1.0  0.65200  0.54900  0.48100  1.0000
  Cl  Cl16      1.0  0.93200  0.65200  0.48100  1.0000
  Cl  Cl17      1.0  0.54900  0.82900  0.48100  1.0000
  Cl  Cl18      1.0  0.82900  0.93200  0.48100  1.0000
  Cl  Cl19      1.0  0.75000  0.25000  0.50000  1.0000
  Cl  Cl20      1.0  0.25000  0.75000  0.50000  1.0000
  Cl  Cl21      1.0  0.17100  0.06770  0.51900  1.0000
  Cl  Cl22      1.0  0.45100  0.17100  0.51900  1.0000
  Cl  Cl23      1.0  0.06770  0.34800  0.51900  1.0000
  Cl  Cl24      1.0  0.34800  0.45100  0.51900  1.0000
  Cl  Cl25      1.0  0.81000  0.08960  0.75900  1.0000
  Cl  Cl26      1.0  0.94900  0.67000  0.75900  1.0000
  Cl  Cl27      1.0  0.67000  0.81000  0.75900  1.0000
  Cl  Cl28      1.0  0.08960  0.94900  0.75900  1.0000
  Cl  Cl29      1.0  0.33200  0.20600  0.84000  1.0000
  Cl  Cl30      1.0  0.63400  0.33200  0.84000  1.0000
  Cl  Cl31      1.0  0.20600  0.50800  0.84000  1.0000
  Cl  Cl32      1.0  0.50800  0.63400  0.84000  1.0000
  Cl  Cl33      1.0  0.92400  0.42400  0.84800  1.0000
  Cl  Cl34      1.0  0.42400  0.92400  0.84800  1.0000
  Sm  Sm1       1.0  0.31900  0.10600  0.00000  1.0000
  Sm  Sm2       1.0  0.89400  0.31900  0.00000  1.0000
  Sm  Sm3       1.0  0.10600  0.68100  0.00000  1.0000
  Sm  Sm4       1.0  0.68100  0.89400  0.00000  1.0000
  Sm  Sm5       1.0  0.18600  0.18600  0.37200  1.0000
  Sm  Sm6       1.0  0.81400  0.81400  0.62800  1.0000
