data_image0
_chemical_formula_structural       H16Mg2Na4O24S4
_chemical_formula_sum              "H16 Mg2 Na4 O24 S4"
_cell_length_a       10.9034
_cell_length_b       8.07185
_cell_length_c       5.38375
_cell_angle_alpha    90
_cell_angle_beta     100.287
_cell_angle_gamma    90

_space_group_name_H-M_alt    "P 1"
_space_group_IT_number       1

loop_
  _space_group_symop_operation_xyz
  'x, y, z'

loop_
  _atom_site_type_symbol
  _atom_site_label
  _atom_site_symmetry_multiplicity
  _atom_site_fract_x
  _atom_site_fract_y
  _atom_site_fract_z
  _atom_site_occupancy
  H   H1        1.0  0.34300  0.64300  0.21800  1.0000
  H   H2        1.0  0.84300  0.85700  0.21800  1.0000
  H   H3        1.0  0.51100  0.78200  0.23400  1.0000
  H   H4        1.0  0.01080  0.71800  0.23400  1.0000
  H   H5        1.0  0.81700  0.05260  0.23700  1.0000
  H   H6        1.0  0.31700  0.44700  0.23700  1.0000
  H   H7        1.0  0.13900  0.79900  0.33400  1.0000
  H   H8        1.0  0.63900  0.70100  0.33400  1.0000
  H   H9        1.0  0.86100  0.20100  0.66600  1.0000
  H   H10       1.0  0.36100  0.29900  0.66600  1.0000
  H   H11       1.0  0.68300  0.55300  0.76300  1.0000
  H   H12       1.0  0.18300  0.94700  0.76300  1.0000
  H   H13       1.0  0.48900  0.21800  0.76600  1.0000
  H   H14       1.0  0.98900  0.28200  0.76600  1.0000
  H   H15       1.0  0.65700  0.35700  0.78200  1.0000
  H   H16       1.0  0.15700  0.14300  0.78200  1.0000
  Mg  Mg1       1.0  0.00000  0.00000  0.00000  1.0000
  Mg  Mg2       1.0  0.50000  0.50000  0.00000  1.0000
  Na  Na1       1.0  0.86200  0.41900  0.12200  1.0000
  Na  Na2       1.0  0.36200  0.08140  0.12200  1.0000
  Na  Na3       1.0  0.63800  0.91900  0.87800  1.0000
  Na  Na4       1.0  0.13800  0.58100  0.87800  1.0000
  O   O1        1.0  0.33600  0.53800  0.12200  1.0000
  O   O2        1.0  0.83600  0.96200  0.12200  1.0000
  O   O3        1.0  0.57600  0.71400  0.17700  1.0000
  O   O4        1.0  0.07640  0.78600  0.17700  1.0000
  O   O5        1.0  0.57900  0.07210  0.22000  1.0000
  O   O6        1.0  0.07880  0.42800  0.22000  1.0000
  O   O7        1.0  0.57000  0.36600  0.31900  1.0000
  O   O8        1.0  0.07050  0.13400  0.31900  1.0000
  O   O9        1.0  0.37000  0.83200  0.34500  1.0000
  O   O10       1.0  0.87000  0.66800  0.34500  1.0000
  O   O11       1.0  0.27200  0.27600  0.36700  1.0000
  O   O12       1.0  0.77200  0.22400  0.36700  1.0000
  O   O13       1.0  0.22800  0.77600  0.63300  1.0000
  O   O14       1.0  0.72800  0.72400  0.63300  1.0000
  O   O15       1.0  0.13000  0.33200  0.65500  1.0000
  O   O16       1.0  0.63000  0.16800  0.65500  1.0000
  O   O17       1.0  0.93000  0.86600  0.68100  1.0000
  O   O18       1.0  0.43000  0.63400  0.68100  1.0000
  O   O19       1.0  0.42100  0.92800  0.78000  1.0000
  O   O20       1.0  0.92100  0.57200  0.78000  1.0000
  O   O21       1.0  0.42400  0.28600  0.82300  1.0000
  O   O22       1.0  0.92400  0.21400  0.82300  1.0000
  O   O23       1.0  0.66400  0.46200  0.87800  1.0000
  O   O24       1.0  0.16400  0.03750  0.87800  1.0000
  S   S1        1.0  0.13600  0.29300  0.38500  1.0000
  S   S2        1.0  0.63600  0.20700  0.38500  1.0000
  S   S3        1.0  0.86400  0.70700  0.61500  1.0000
  S   S4        1.0  0.36400  0.79300  0.61500  1.0000
