data_image0
_chemical_formula_structural       Cr4H4O32Se12
_chemical_formula_sum              "Cr4 H4 O32 Se12"
_cell_length_a       8.72065
_cell_length_b       11.0891
_cell_length_c       7.40932
_cell_angle_alpha    90
_cell_angle_beta     90
_cell_angle_gamma    90

_space_group_name_H-M_alt    "P 1"
_space_group_IT_number       1

loop_
  _space_group_symop_operation_xyz
  'x, y, z'

loop_
  _atom_site_type_symbol
  _atom_site_label
  _atom_site_symmetry_multiplicity
  _atom_site_fract_x
  _atom_site_fract_y
  _atom_site_fract_z
  _atom_site_occupancy
  Cr  Cr1       1.0  0.00000  0.00000  0.00000  1.0000
  Cr  Cr2       1.0  0.00000  0.50000  0.00000  1.0000
  Cr  Cr3       1.0  0.50000  0.00000  0.50000  1.0000
  Cr  Cr4       1.0  0.50000  0.50000  0.50000  1.0000
  H   H1        1.0  0.36400  0.75000  0.02540  1.0000
  H   H2        1.0  0.86400  0.75000  0.47500  1.0000
  H   H3        1.0  0.13600  0.25000  0.52500  1.0000
  H   H4        1.0  0.63600  0.25000  0.97500  1.0000
  O   O1        1.0  0.47500  0.75000  0.05490  1.0000
  O   O2        1.0  0.83500  0.11300  0.07370  1.0000
  O   O3        1.0  0.83500  0.38700  0.07370  1.0000
  O   O4        1.0  0.89100  0.63100  0.14000  1.0000
  O   O5        1.0  0.89100  0.86900  0.14000  1.0000
  O   O6        1.0  0.18600  0.25000  0.20000  1.0000
  O   O7        1.0  0.11500  0.02800  0.22800  1.0000
  O   O8        1.0  0.11500  0.47200  0.22800  1.0000
  O   O9        1.0  0.61500  0.02800  0.27200  1.0000
  O   O10       1.0  0.61500  0.47200  0.27200  1.0000
  O   O11       1.0  0.68600  0.25000  0.30000  1.0000
  O   O12       1.0  0.39100  0.63100  0.36000  1.0000
  O   O13       1.0  0.39100  0.86900  0.36000  1.0000
  O   O14       1.0  0.33500  0.11300  0.42600  1.0000
  O   O15       1.0  0.33500  0.38700  0.42600  1.0000
  O   O16       1.0  0.97500  0.75000  0.44500  1.0000
  O   O17       1.0  0.02540  0.25000  0.55500  1.0000
  O   O18       1.0  0.66500  0.61300  0.57400  1.0000
  O   O19       1.0  0.66500  0.88700  0.57400  1.0000
  O   O20       1.0  0.60900  0.13100  0.64000  1.0000
  O   O21       1.0  0.60900  0.36900  0.64000  1.0000
  O   O22       1.0  0.31400  0.75000  0.70000  1.0000
  O   O23       1.0  0.38500  0.52800  0.72800  1.0000
  O   O24       1.0  0.38500  0.97200  0.72800  1.0000
  O   O25       1.0  0.88500  0.52800  0.77200  1.0000
  O   O26       1.0  0.88500  0.97200  0.77200  1.0000
  O   O27       1.0  0.81400  0.75000  0.80000  1.0000
  O   O28       1.0  0.10900  0.13100  0.86000  1.0000
  O   O29       1.0  0.10900  0.36900  0.86000  1.0000
  O   O30       1.0  0.16500  0.61300  0.92600  1.0000
  O   O31       1.0  0.16500  0.88700  0.92600  1.0000
  O   O32       1.0  0.52500  0.25000  0.94500  1.0000
  Se  Se1       1.0  0.28300  0.10400  0.20400  1.0000
  Se  Se2       1.0  0.28300  0.39600  0.20400  1.0000
  Se  Se3       1.0  0.00585  0.75000  0.20600  1.0000
  Se  Se4       1.0  0.50600  0.75000  0.29400  1.0000
  Se  Se5       1.0  0.78300  0.10400  0.29600  1.0000
  Se  Se6       1.0  0.78300  0.39600  0.29600  1.0000
  Se  Se7       1.0  0.21700  0.60400  0.70400  1.0000
  Se  Se8       1.0  0.21700  0.89600  0.70400  1.0000
  Se  Se9       1.0  0.49400  0.25000  0.70600  1.0000
  Se  Se10      1.0  0.99400  0.25000  0.79400  1.0000
  Se  Se11      1.0  0.71700  0.60400  0.79600  1.0000
  Se  Se12      1.0  0.71700  0.89600  0.79600  1.0000
