data_image0
_chemical_formula_structural       Dy8Ni28Sn12
_chemical_formula_sum              "Dy8 Ni28 Sn12"
_cell_length_a       7.5469
_cell_length_b       8.59333
_cell_length_c       12.6077
_cell_angle_alpha    70.0746
_cell_angle_beta     90
_cell_angle_gamma    90

_space_group_name_H-M_alt    "P 1"
_space_group_IT_number       1

loop_
  _space_group_symop_operation_xyz
  'x, y, z'

loop_
  _atom_site_type_symbol
  _atom_site_label
  _atom_site_symmetry_multiplicity
  _atom_site_fract_x
  _atom_site_fract_y
  _atom_site_fract_z
  _atom_site_occupancy
  Dy  Dy1       1.0  0.00000  0.20700  0.00000  1.0000
  Dy  Dy2       1.0  0.50000  0.29300  0.00000  1.0000
  Dy  Dy3       1.0  0.50000  0.70700  0.00000  1.0000
  Dy  Dy4       1.0  0.00000  0.79300  0.00000  1.0000
  Dy  Dy5       1.0  0.07270  0.30600  0.38700  1.0000
  Dy  Dy6       1.0  0.42700  0.80600  0.38700  1.0000
  Dy  Dy7       1.0  0.57300  0.19400  0.61300  1.0000
  Dy  Dy8       1.0  0.92700  0.69400  0.61300  1.0000
  Ni  Ni1       1.0  0.14600  0.45300  0.09330  1.0000
  Ni  Ni2       1.0  0.35400  0.95300  0.09330  1.0000
  Ni  Ni3       1.0  0.44500  0.39900  0.20200  1.0000
  Ni  Ni4       1.0  0.05530  0.89900  0.20200  1.0000
  Ni  Ni5       1.0  0.59200  0.12300  0.23200  1.0000
  Ni  Ni6       1.0  0.90800  0.14500  0.23200  1.0000
  Ni  Ni7       1.0  0.90800  0.62300  0.23200  1.0000
  Ni  Ni8       1.0  0.59200  0.64500  0.23200  1.0000
  Ni  Ni9       1.0  0.69000  0.33500  0.33000  1.0000
  Ni  Ni10      1.0  0.81000  0.83500  0.33000  1.0000
  Ni  Ni11      1.0  0.42100  0.15400  0.39500  1.0000
  Ni  Ni12      1.0  0.42100  0.45100  0.39500  1.0000
  Ni  Ni13      1.0  0.07850  0.65400  0.39500  1.0000
  Ni  Ni14      1.0  0.07850  0.95100  0.39500  1.0000
  Ni  Ni15      1.0  0.92100  0.04850  0.60500  1.0000
  Ni  Ni16      1.0  0.92100  0.34600  0.60500  1.0000
  Ni  Ni17      1.0  0.57900  0.54900  0.60500  1.0000
  Ni  Ni18      1.0  0.57900  0.84600  0.60500  1.0000
  Ni  Ni19      1.0  0.19000  0.16500  0.67000  1.0000
  Ni  Ni20      1.0  0.31000  0.66500  0.67000  1.0000
  Ni  Ni21      1.0  0.40800  0.35500  0.76800  1.0000
  Ni  Ni22      1.0  0.09190  0.37700  0.76800  1.0000
  Ni  Ni23      1.0  0.09190  0.85500  0.76800  1.0000
  Ni  Ni24      1.0  0.40800  0.87700  0.76800  1.0000
  Ni  Ni25      1.0  0.94500  0.10100  0.79800  1.0000
  Ni  Ni26      1.0  0.55500  0.60100  0.79800  1.0000
  Ni  Ni27      1.0  0.64600  0.04670  0.90700  1.0000
  Ni  Ni28      1.0  0.85400  0.54700  0.90700  1.0000
  Sn  Sn1       1.0  0.79500  0.43800  0.12300  1.0000
  Sn  Sn2       1.0  0.70500  0.93800  0.12300  1.0000
  Sn  Sn3       1.0  0.25000  0.14400  0.21200  1.0000
  Sn  Sn4       1.0  0.25000  0.64400  0.21200  1.0000
  Sn  Sn5       1.0  0.75000  0.03170  0.43700  1.0000
  Sn  Sn6       1.0  0.75000  0.53200  0.43700  1.0000
  Sn  Sn7       1.0  0.25000  0.46800  0.56300  1.0000
  Sn  Sn8       1.0  0.25000  0.96800  0.56300  1.0000
  Sn  Sn9       1.0  0.75000  0.35600  0.78800  1.0000
  Sn  Sn10      1.0  0.75000  0.85600  0.78800  1.0000
  Sn  Sn11      1.0  0.29500  0.06170  0.87700  1.0000
  Sn  Sn12      1.0  0.20500  0.56200  0.87700  1.0000
