data_image0
_chemical_formula_structural       Ba2Cr20O30
_chemical_formula_sum              "Ba2 Cr20 O30"
_cell_length_a       7.73924
_cell_length_b       7.73924
_cell_length_c       9.49541
_cell_angle_alpha    90
_cell_angle_beta     90
_cell_angle_gamma    83.3934

_space_group_name_H-M_alt    "P 1"
_space_group_IT_number       1

loop_
  _space_group_symop_operation_xyz
  'x, y, z'

loop_
  _atom_site_type_symbol
  _atom_site_label
  _atom_site_symmetry_multiplicity
  _atom_site_fract_x
  _atom_site_fract_y
  _atom_site_fract_z
  _atom_site_occupancy
  Ba  Ba1       1.0  0.50000  0.50000  0.00000  1.0000
  Ba  Ba2       1.0  0.00000  0.00000  0.50000  1.0000
  Cr  Cr1       1.0  0.09360  0.41800  0.11500  1.0000
  Cr  Cr2       1.0  0.58200  0.90600  0.11500  1.0000
  Cr  Cr3       1.0  0.81600  0.18400  0.13600  1.0000
  Cr  Cr4       1.0  0.21200  0.04280  0.14300  1.0000
  Cr  Cr5       1.0  0.95700  0.78800  0.14300  1.0000
  Cr  Cr6       1.0  0.45700  0.28800  0.35700  1.0000
  Cr  Cr7       1.0  0.71200  0.54300  0.35700  1.0000
  Cr  Cr8       1.0  0.31600  0.68400  0.36400  1.0000
  Cr  Cr9       1.0  0.08160  0.40600  0.38500  1.0000
  Cr  Cr10      1.0  0.59400  0.91800  0.38500  1.0000
  Cr  Cr11      1.0  0.40600  0.08160  0.61500  1.0000
  Cr  Cr12      1.0  0.91800  0.59400  0.61500  1.0000
  Cr  Cr13      1.0  0.68400  0.31600  0.63600  1.0000
  Cr  Cr14      1.0  0.28800  0.45700  0.64300  1.0000
  Cr  Cr15      1.0  0.54300  0.71200  0.64300  1.0000
  Cr  Cr16      1.0  0.04280  0.21200  0.85700  1.0000
  Cr  Cr17      1.0  0.78800  0.95700  0.85700  1.0000
  Cr  Cr18      1.0  0.18400  0.81600  0.86400  1.0000
  Cr  Cr19      1.0  0.41800  0.09360  0.88500  1.0000
  Cr  Cr20      1.0  0.90600  0.58200  0.88500  1.0000
  O   O1        1.0  0.00000  0.00000  0.00000  1.0000
  O   O2        1.0  0.24500  0.24500  0.00000  1.0000
  O   O3        1.0  0.75500  0.75500  0.00000  1.0000
  O   O4        1.0  0.10700  0.63500  0.00491  1.0000
  O   O5        1.0  0.36500  0.89300  0.00491  1.0000
  O   O6        1.0  0.64600  0.35400  0.23900  1.0000
  O   O7        1.0  0.04050  0.22100  0.24200  1.0000
  O   O8        1.0  0.77900  0.96000  0.24200  1.0000
  O   O9        1.0  0.43400  0.06600  0.25000  1.0000
  O   O10       1.0  0.93400  0.56600  0.25000  1.0000
  O   O11       1.0  0.27900  0.46000  0.25800  1.0000
  O   O12       1.0  0.54000  0.72100  0.25800  1.0000
  O   O13       1.0  0.14600  0.85400  0.26100  1.0000
  O   O14       1.0  0.60700  0.13500  0.49500  1.0000
  O   O15       1.0  0.86500  0.39300  0.49500  1.0000
  O   O16       1.0  0.25500  0.25500  0.50000  1.0000
  O   O17       1.0  0.50000  0.50000  0.50000  1.0000
  O   O18       1.0  0.74500  0.74500  0.50000  1.0000
  O   O19       1.0  0.13500  0.60700  0.50500  1.0000
  O   O20       1.0  0.39300  0.86500  0.50500  1.0000
  O   O21       1.0  0.85400  0.14600  0.73900  1.0000
  O   O22       1.0  0.46000  0.27900  0.74200  1.0000
  O   O23       1.0  0.72100  0.54000  0.74200  1.0000
  O   O24       1.0  0.06600  0.43400  0.75000  1.0000
  O   O25       1.0  0.56600  0.93400  0.75000  1.0000
  O   O26       1.0  0.22100  0.04050  0.75800  1.0000
  O   O27       1.0  0.96000  0.77900  0.75800  1.0000
  O   O28       1.0  0.35400  0.64600  0.76100  1.0000
  O   O29       1.0  0.63500  0.10700  0.99500  1.0000
  O   O30       1.0  0.89300  0.36500  0.99500  1.0000
