data_image0
_chemical_formula_structural       C8FeGe4H24N2S10
_chemical_formula_sum              "C8 Fe1 Ge4 H24 N2 S10"
_cell_length_a       9.51343
_cell_length_b       9.51343
_cell_length_c       9.84243
_cell_angle_alpha    118.9
_cell_angle_beta     118.9
_cell_angle_gamma    90

_space_group_name_H-M_alt    "P 1"
_space_group_IT_number       1

loop_
  _space_group_symop_operation_xyz
  'x, y, z'

loop_
  _atom_site_type_symbol
  _atom_site_label
  _atom_site_symmetry_multiplicity
  _atom_site_fract_x
  _atom_site_fract_y
  _atom_site_fract_z
  _atom_site_occupancy
  C   C1        1.0  0.59400  0.43800  0.12100  1.0000
  C   C2        1.0  0.52700  0.68400  0.12100  1.0000
  C   C3        1.0  0.60300  0.09570  0.38000  1.0000
  C   C4        1.0  0.77700  0.28400  0.38000  1.0000
  C   C5        1.0  0.90400  0.22300  0.62000  1.0000
  C   C6        1.0  0.71600  0.39700  0.62000  1.0000
  C   C7        1.0  0.31600  0.40600  0.87900  1.0000
  C   C8        1.0  0.56200  0.47300  0.87900  1.0000
  Fe  Fe1       1.0  0.25000  0.75000  0.50000  1.0000
  Ge  Ge1       1.0  0.15300  0.27000  0.18000  1.0000
  Ge  Ge2       1.0  0.02700  0.91000  0.18000  1.0000
  Ge  Ge3       1.0  0.09030  0.84700  0.82000  1.0000
  Ge  Ge4       1.0  0.73000  0.97300  0.82000  1.0000
  H   H1        1.0  0.57300  0.30300  0.03150  1.0000
  H   H2        1.0  0.45800  0.72900  0.03150  1.0000
  H   H3        1.0  0.72900  0.50800  0.20700  1.0000
  H   H4        1.0  0.47800  0.69900  0.20700  1.0000
  H   H5        1.0  0.54500  0.46100  0.20800  1.0000
  H   H6        1.0  0.66300  0.74700  0.20800  1.0000
  H   H7        1.0  0.49100  0.11500  0.28900  1.0000
  H   H8        1.0  0.79900  0.17400  0.28900  1.0000
  H   H9        1.0  0.66200  0.30300  0.29500  1.0000
  H   H10       1.0  0.63300  0.99100  0.29500  1.0000
  H   H11       1.0  0.58200  0.07120  0.46800  1.0000
  H   H12       1.0  0.88600  0.39700  0.46800  1.0000
  H   H13       1.0  0.92900  0.11400  0.53200  1.0000
  H   H14       1.0  0.60300  0.41800  0.53200  1.0000
  H   H15       1.0  0.00856  0.33800  0.70500  1.0000
  H   H16       1.0  0.69700  0.36700  0.70500  1.0000
  H   H17       1.0  0.88500  0.20100  0.71100  1.0000
  H   H18       1.0  0.82600  0.50900  0.71100  1.0000
  H   H19       1.0  0.53900  0.33700  0.79200  1.0000
  H   H20       1.0  0.25300  0.45500  0.79200  1.0000
  H   H21       1.0  0.30100  0.27100  0.79300  1.0000
  H   H22       1.0  0.49200  0.52200  0.79300  1.0000
  H   H23       1.0  0.27100  0.42700  0.96900  1.0000
  H   H24       1.0  0.69700  0.54200  0.96900  1.0000
  N   N1        1.0  0.50000  0.50000  0.00000  1.0000
  N   N2        1.0  0.75000  0.25000  0.50000  1.0000
  S   S1        1.0  0.88100  0.25100  0.00397  1.0000
  S   S2        1.0  0.12300  0.75300  0.00397  1.0000
  S   S3        1.0  0.32100  0.52600  0.34100  1.0000
  S   S4        1.0  0.01960  0.81500  0.34100  1.0000
  S   S5        1.0  0.18500  0.18500  0.36900  1.0000
  S   S6        1.0  0.81500  0.81500  0.63100  1.0000
  S   S7        1.0  0.18500  0.67900  0.65900  1.0000
  S   S8        1.0  0.47400  0.98000  0.65900  1.0000
  S   S9        1.0  0.24700  0.11900  0.99600  1.0000
  S   S10       1.0  0.74900  0.87700  0.99600  1.0000
