data_image0
_chemical_formula_structural       B8Cs8Ga8O28
_chemical_formula_sum              "B8 Cs8 Ga8 O28"
_cell_length_a       8.7806
_cell_length_b       7.98301
_cell_length_c       12.1225
_cell_angle_alpha    90
_cell_angle_beta     103.532
_cell_angle_gamma    90

_space_group_name_H-M_alt    "P 1"
_space_group_IT_number       1

loop_
  _space_group_symop_operation_xyz
  'x, y, z'

loop_
  _atom_site_type_symbol
  _atom_site_label
  _atom_site_symmetry_multiplicity
  _atom_site_fract_x
  _atom_site_fract_y
  _atom_site_fract_z
  _atom_site_occupancy
  B   B1        1.0  0.82900  0.64500  0.06630  1.0000
  B   B2        1.0  0.35200  0.89200  0.07810  1.0000
  B   B3        1.0  0.64800  0.39200  0.42200  1.0000
  B   B4        1.0  0.17100  0.14500  0.43400  1.0000
  B   B5        1.0  0.82900  0.85500  0.56600  1.0000
  B   B6        1.0  0.35200  0.60800  0.57800  1.0000
  B   B7        1.0  0.64800  0.10800  0.92200  1.0000
  B   B8        1.0  0.17100  0.35500  0.93400  1.0000
  Cs  Cs1       1.0  0.53100  0.38200  0.13100  1.0000
  Cs  Cs2       1.0  0.07370  0.11400  0.15500  1.0000
  Cs  Cs3       1.0  0.92600  0.61400  0.34500  1.0000
  Cs  Cs4       1.0  0.46900  0.88200  0.36900  1.0000
  Cs  Cs5       1.0  0.53100  0.11800  0.63100  1.0000
  Cs  Cs6       1.0  0.07370  0.38600  0.65500  1.0000
  Cs  Cs7       1.0  0.92600  0.88600  0.84500  1.0000
  Cs  Cs8       1.0  0.46900  0.61800  0.86900  1.0000
  Ga  Ga1       1.0  0.15800  0.61200  0.10900  1.0000
  Ga  Ga2       1.0  0.68600  0.94000  0.13400  1.0000
  Ga  Ga3       1.0  0.31400  0.44000  0.36600  1.0000
  Ga  Ga4       1.0  0.84200  0.11200  0.39100  1.0000
  Ga  Ga5       1.0  0.15800  0.88800  0.60900  1.0000
  Ga  Ga6       1.0  0.68600  0.56000  0.63400  1.0000
  Ga  Ga7       1.0  0.31400  0.06010  0.86600  1.0000
  Ga  Ga8       1.0  0.84200  0.38800  0.89100  1.0000
  O   O1        1.0  0.81300  0.48500  0.02380  1.0000
  O   O2        1.0  0.74300  0.08300  0.02870  1.0000
  O   O3        1.0  0.69700  0.71700  0.09030  1.0000
  O   O4        1.0  0.97000  0.73000  0.09040  1.0000
  O   O5        1.0  0.47800  0.99600  0.12400  1.0000
  O   O6        1.0  0.31500  0.76900  0.14700  1.0000
  O   O7        1.0  0.18400  0.46100  0.22500  1.0000
  O   O8        1.0  0.81600  0.96100  0.27500  1.0000
  O   O9        1.0  0.68500  0.26900  0.35300  1.0000
  O   O10       1.0  0.52200  0.49600  0.37600  1.0000
  O   O11       1.0  0.03010  0.23000  0.41000  1.0000
  O   O12       1.0  0.30300  0.21700  0.41000  1.0000
  O   O13       1.0  0.25700  0.58300  0.47100  1.0000
  O   O14       1.0  0.18700  0.98500  0.47600  1.0000
  O   O15       1.0  0.81300  0.01540  0.52400  1.0000
  O   O16       1.0  0.74300  0.41700  0.52900  1.0000
  O   O17       1.0  0.69700  0.78300  0.59000  1.0000
  O   O18       1.0  0.97000  0.77000  0.59000  1.0000
  O   O19       1.0  0.47800  0.50400  0.62400  1.0000
  O   O20       1.0  0.31500  0.73100  0.64700  1.0000
  O   O21       1.0  0.18400  0.03870  0.72500  1.0000
  O   O22       1.0  0.81600  0.53900  0.77500  1.0000
  O   O23       1.0  0.68500  0.23100  0.85300  1.0000
  O   O24       1.0  0.52200  0.00436  0.87600  1.0000
  O   O25       1.0  0.03010  0.27000  0.91000  1.0000
  O   O26       1.0  0.30300  0.28300  0.91000  1.0000
  O   O27       1.0  0.25700  0.91700  0.97100  1.0000
  O   O28       1.0  0.18700  0.51500  0.97600  1.0000
