data_image0
_chemical_formula_structural       H16N4O24Se2W6
_chemical_formula_sum              "H16 N4 O24 Se2 W6"
_cell_length_a       7.22309
_cell_length_b       7.22309
_cell_length_c       11.8582
_cell_angle_alpha    90
_cell_angle_beta     90
_cell_angle_gamma    120

_space_group_name_H-M_alt    "P 1"
_space_group_IT_number       1

loop_
  _space_group_symop_operation_xyz
  'x, y, z'

loop_
  _atom_site_type_symbol
  _atom_site_label
  _atom_site_symmetry_multiplicity
  _atom_site_fract_x
  _atom_site_fract_y
  _atom_site_fract_z
  _atom_site_occupancy
  H   H1        1.0  0.33300  0.66700  0.02660  1.0000
  H   H2        1.0  0.25300  0.50800  0.14200  1.0000
  H   H3        1.0  0.25500  0.74700  0.14200  1.0000
  H   H4        1.0  0.49200  0.74500  0.14200  1.0000
  H   H5        1.0  0.66700  0.33300  0.15400  1.0000
  H   H6        1.0  0.82200  0.42500  0.27000  1.0000
  H   H7        1.0  0.60200  0.17800  0.27000  1.0000
  H   H8        1.0  0.57500  0.39800  0.27000  1.0000
  H   H9        1.0  0.66700  0.33300  0.52700  1.0000
  H   H10       1.0  0.74500  0.25300  0.64200  1.0000
  H   H11       1.0  0.74700  0.49200  0.64200  1.0000
  H   H12       1.0  0.50800  0.25500  0.64200  1.0000
  H   H13       1.0  0.33300  0.66700  0.65400  1.0000
  H   H14       1.0  0.17800  0.57500  0.77000  1.0000
  H   H15       1.0  0.39800  0.82200  0.77000  1.0000
  H   H16       1.0  0.42500  0.60200  0.77000  1.0000
  N   N1        1.0  0.33300  0.66700  0.11300  1.0000
  N   N2        1.0  0.66700  0.33300  0.24100  1.0000
  N   N3        1.0  0.66700  0.33300  0.61300  1.0000
  N   N4        1.0  0.33300  0.66700  0.74100  1.0000
  O   O1        1.0  0.80600  0.58800  0.03840  1.0000
  O   O2        1.0  0.78300  0.19400  0.03840  1.0000
  O   O3        1.0  0.41200  0.21700  0.03840  1.0000
  O   O4        1.0  0.11800  0.25100  0.21800  1.0000
  O   O5        1.0  0.13300  0.88200  0.21800  1.0000
  O   O6        1.0  0.74900  0.86700  0.21800  1.0000
  O   O7        1.0  0.08280  0.54800  0.34600  1.0000
  O   O8        1.0  0.46500  0.91700  0.34600  1.0000
  O   O9        1.0  0.45200  0.53500  0.34600  1.0000
  O   O10       1.0  0.25000  0.13100  0.40900  1.0000
  O   O11       1.0  0.86900  0.11900  0.40900  1.0000
  O   O12       1.0  0.88100  0.75000  0.40900  1.0000
  O   O13       1.0  0.19400  0.41200  0.53800  1.0000
  O   O14       1.0  0.58800  0.78300  0.53800  1.0000
  O   O15       1.0  0.21700  0.80600  0.53800  1.0000
  O   O16       1.0  0.86700  0.11800  0.71800  1.0000
  O   O17       1.0  0.88200  0.74900  0.71800  1.0000
  O   O18       1.0  0.25100  0.13300  0.71800  1.0000
  O   O19       1.0  0.53500  0.08280  0.84600  1.0000
  O   O20       1.0  0.91700  0.45200  0.84600  1.0000
  O   O21       1.0  0.54800  0.46500  0.84600  1.0000
  O   O22       1.0  0.75000  0.86900  0.90900  1.0000
  O   O23       1.0  0.13100  0.88100  0.90900  1.0000
  O   O24       1.0  0.11900  0.25000  0.90900  1.0000
  Se  Se1       1.0  0.00000  0.00000  0.15500  1.0000
  Se  Se2       1.0  0.00000  0.00000  0.65500  1.0000
  W   W1        1.0  0.15100  0.34000  0.39600  1.0000
  W   W2        1.0  0.18900  0.84900  0.39600  1.0000
  W   W3        1.0  0.66000  0.81100  0.39600  1.0000
  W   W4        1.0  0.84900  0.66000  0.89600  1.0000
  W   W5        1.0  0.81100  0.15100  0.89600  1.0000
  W   W6        1.0  0.34000  0.18900  0.89600  1.0000
