data_image0
_chemical_formula_structural       Fe8K4O32P8
_chemical_formula_sum              "Fe8 K4 O32 P8"
_cell_length_a       9.10438
_cell_length_b       10.0845
_cell_length_c       7.75685
_cell_angle_alpha    90
_cell_angle_beta     115.41
_cell_angle_gamma    90

_space_group_name_H-M_alt    "P 1"
_space_group_IT_number       1

loop_
  _space_group_symop_operation_xyz
  'x, y, z'

loop_
  _atom_site_type_symbol
  _atom_site_label
  _atom_site_symmetry_multiplicity
  _atom_site_fract_x
  _atom_site_fract_y
  _atom_site_fract_z
  _atom_site_occupancy
  Fe  Fe1       1.0  0.95100  0.62000  0.07310  1.0000
  Fe  Fe2       1.0  0.45100  0.88000  0.07310  1.0000
  Fe  Fe3       1.0  0.75900  0.37700  0.27000  1.0000
  Fe  Fe4       1.0  0.25900  0.12300  0.27000  1.0000
  Fe  Fe5       1.0  0.74100  0.87700  0.73000  1.0000
  Fe  Fe6       1.0  0.24100  0.62300  0.73000  1.0000
  Fe  Fe7       1.0  0.54900  0.12000  0.92700  1.0000
  Fe  Fe8       1.0  0.04950  0.38000  0.92700  1.0000
  K   K1        1.0  0.92300  0.86500  0.35200  1.0000
  K   K2        1.0  0.42300  0.63500  0.35200  1.0000
  K   K3        1.0  0.57700  0.36500  0.64800  1.0000
  K   K4        1.0  0.07660  0.13500  0.64800  1.0000
  O   O1        1.0  0.75900  0.25700  0.04820  1.0000
  O   O2        1.0  0.25900  0.24300  0.04820  1.0000
  O   O3        1.0  0.75800  0.54300  0.11000  1.0000
  O   O4        1.0  0.25800  0.95700  0.11000  1.0000
  O   O5        1.0  0.51500  0.38800  0.15500  1.0000
  O   O6        1.0  0.01510  0.11200  0.15500  1.0000
  O   O7        1.0  0.60100  0.73000  0.16800  1.0000
  O   O8        1.0  0.10100  0.77000  0.16800  1.0000
  O   O9        1.0  0.60700  0.03540  0.18600  1.0000
  O   O10       1.0  0.10700  0.46500  0.18600  1.0000
  O   O11       1.0  0.99900  0.37000  0.41300  1.0000
  O   O12       1.0  0.49900  0.13000  0.41300  1.0000
  O   O13       1.0  0.26000  0.28200  0.41500  1.0000
  O   O14       1.0  0.76000  0.21800  0.41500  1.0000
  O   O15       1.0  0.24000  0.00855  0.46700  1.0000
  O   O16       1.0  0.74000  0.49100  0.46700  1.0000
  O   O17       1.0  0.26000  0.50900  0.53300  1.0000
  O   O18       1.0  0.76000  0.99100  0.53300  1.0000
  O   O19       1.0  0.24000  0.78200  0.58500  1.0000
  O   O20       1.0  0.74000  0.71800  0.58500  1.0000
  O   O21       1.0  0.50100  0.87000  0.58700  1.0000
  O   O22       1.0  0.00137  0.63000  0.58700  1.0000
  O   O23       1.0  0.89300  0.53500  0.81400  1.0000
  O   O24       1.0  0.39300  0.96500  0.81400  1.0000
  O   O25       1.0  0.89900  0.23000  0.83200  1.0000
  O   O26       1.0  0.39900  0.27000  0.83200  1.0000
  O   O27       1.0  0.98500  0.88800  0.84500  1.0000
  O   O28       1.0  0.48500  0.61200  0.84500  1.0000
  O   O29       1.0  0.74200  0.04260  0.89000  1.0000
  O   O30       1.0  0.24200  0.45700  0.89000  1.0000
  O   O31       1.0  0.74100  0.75700  0.95200  1.0000
  O   O32       1.0  0.24100  0.74300  0.95200  1.0000
  P   P1        1.0  0.13700  0.83900  0.01380  1.0000
  P   P2        1.0  0.63700  0.66100  0.01380  1.0000
  P   P3        1.0  0.65300  0.09530  0.38900  1.0000
  P   P4        1.0  0.15300  0.40500  0.38900  1.0000
  P   P5        1.0  0.84700  0.59500  0.61100  1.0000
  P   P6        1.0  0.34700  0.90500  0.61100  1.0000
  P   P7        1.0  0.36300  0.33900  0.98600  1.0000
  P   P8        1.0  0.86300  0.16100  0.98600  1.0000
