data_image0
_chemical_formula_structural       K8La4P8S28
_chemical_formula_sum              "K8 La4 P8 S28"
_cell_length_a       9.17301
_cell_length_b       6.87384
_cell_length_c       20.2248
_cell_angle_alpha    90
_cell_angle_beta     97.2432
_cell_angle_gamma    90

_space_group_name_H-M_alt    "P 1"
_space_group_IT_number       1

loop_
  _space_group_symop_operation_xyz
  'x, y, z'

loop_
  _atom_site_type_symbol
  _atom_site_label
  _atom_site_symmetry_multiplicity
  _atom_site_fract_x
  _atom_site_fract_y
  _atom_site_fract_z
  _atom_site_occupancy
  K   K1        1.0  0.76000  0.51300  0.00928  1.0000
  K   K2        1.0  0.84900  0.03290  0.19000  1.0000
  K   K3        1.0  0.65100  0.53300  0.31000  1.0000
  K   K4        1.0  0.74000  0.01320  0.49100  1.0000
  K   K5        1.0  0.26000  0.98700  0.50900  1.0000
  K   K6        1.0  0.34900  0.46700  0.69000  1.0000
  K   K7        1.0  0.15100  0.96700  0.81000  1.0000
  K   K8        1.0  0.24000  0.48700  0.99100  1.0000
  La  La1       1.0  0.31100  0.97300  0.15000  1.0000
  La  La2       1.0  0.18900  0.47300  0.35000  1.0000
  La  La3       1.0  0.81100  0.52700  0.65000  1.0000
  La  La4       1.0  0.68900  0.02660  0.85000  1.0000
  P   P1        1.0  0.58500  0.01090  0.04420  1.0000
  P   P2        1.0  0.09580  0.51700  0.16900  1.0000
  P   P3        1.0  0.40400  0.01710  0.33100  1.0000
  P   P4        1.0  0.91500  0.51100  0.45600  1.0000
  P   P5        1.0  0.08470  0.48900  0.54400  1.0000
  P   P6        1.0  0.59600  0.98300  0.66900  1.0000
  P   P7        1.0  0.90400  0.48300  0.83100  1.0000
  P   P8        1.0  0.41500  0.98900  0.95600  1.0000
  S   S1        1.0  0.77600  0.03480  0.00577  1.0000
  S   S2        1.0  0.52900  0.24600  0.09670  1.0000
  S   S3        1.0  0.56000  0.76600  0.09910  1.0000
  S   S4        1.0  0.03950  0.74800  0.10700  1.0000
  S   S5        1.0  0.08680  0.27600  0.10900  1.0000
  S   S6        1.0  0.30300  0.57300  0.21800  1.0000
  S   S7        1.0  0.95300  0.48900  0.23900  1.0000
  S   S8        1.0  0.54700  0.98900  0.26100  1.0000
  S   S9        1.0  0.19700  0.07330  0.28200  1.0000
  S   S10       1.0  0.41300  0.77600  0.39100  1.0000
  S   S11       1.0  0.46000  0.24800  0.39300  1.0000
  S   S12       1.0  0.94000  0.26600  0.40100  1.0000
  S   S13       1.0  0.97100  0.74600  0.40300  1.0000
  S   S14       1.0  0.72400  0.53500  0.49400  1.0000
  S   S15       1.0  0.27600  0.46500  0.50600  1.0000
  S   S16       1.0  0.02880  0.25400  0.59700  1.0000
  S   S17       1.0  0.06020  0.73400  0.59900  1.0000
  S   S18       1.0  0.54000  0.75200  0.60700  1.0000
  S   S19       1.0  0.58700  0.22400  0.60900  1.0000
  S   S20       1.0  0.80300  0.92700  0.71800  1.0000
  S   S21       1.0  0.45300  0.01130  0.73900  1.0000
  S   S22       1.0  0.04740  0.51100  0.76100  1.0000
  S   S23       1.0  0.69700  0.42700  0.78200  1.0000
  S   S24       1.0  0.91300  0.72400  0.89100  1.0000
  S   S25       1.0  0.96000  0.25200  0.89300  1.0000
  S   S26       1.0  0.44000  0.23400  0.90100  1.0000
  S   S27       1.0  0.47100  0.75400  0.90300  1.0000
  S   S28       1.0  0.22400  0.96500  0.99400  1.0000
