data_image0
_chemical_formula_structural       F36P4Sr2Xe6
_chemical_formula_sum              "F36 P4 Sr2 Xe6"
_cell_length_a       8.24315
_cell_length_b       8.24315
_cell_length_c       10.3061
_cell_angle_alpha    97.0877
_cell_angle_beta     82.9123
_cell_angle_gamma    91.8028

_space_group_name_H-M_alt    "P 1"
_space_group_IT_number       1

loop_
  _space_group_symop_operation_xyz
  'x, y, z'

loop_
  _atom_site_type_symbol
  _atom_site_label
  _atom_site_symmetry_multiplicity
  _atom_site_fract_x
  _atom_site_fract_y
  _atom_site_fract_z
  _atom_site_occupancy
  F   F1        1.0  0.68700  0.31300  0.02440  1.0000
  F   F2        1.0  0.11600  0.88400  0.04230  1.0000
  F   F3        1.0  0.66000  0.05750  0.09720  1.0000
  F   F4        1.0  0.94300  0.34000  0.09720  1.0000
  F   F5        1.0  0.26900  0.43500  0.11700  1.0000
  F   F6        1.0  0.56500  0.73100  0.11700  1.0000
  F   F7        1.0  0.90700  0.09260  0.18000  1.0000
  F   F8        1.0  0.01790  0.62000  0.19800  1.0000
  F   F9        1.0  0.38000  0.98200  0.19800  1.0000
  F   F10       1.0  0.71000  0.29000  0.24000  1.0000
  F   F11       1.0  0.07670  0.92300  0.30600  1.0000
  F   F12       1.0  0.47300  0.52700  0.30700  1.0000
  F   F13       1.0  0.01600  0.37000  0.36900  1.0000
  F   F14       1.0  0.63000  0.98400  0.36900  1.0000
  F   F15       1.0  0.15200  0.61200  0.43400  1.0000
  F   F16       1.0  0.38800  0.84800  0.43400  1.0000
  F   F17       1.0  0.39600  0.13200  0.44000  1.0000
  F   F18       1.0  0.86800  0.60400  0.44000  1.0000
  F   F19       1.0  0.13200  0.39600  0.56000  1.0000
  F   F20       1.0  0.60400  0.86800  0.56000  1.0000
  F   F21       1.0  0.61200  0.15200  0.56600  1.0000
  F   F22       1.0  0.84800  0.38800  0.56600  1.0000
  F   F23       1.0  0.37000  0.01600  0.63100  1.0000
  F   F24       1.0  0.98400  0.63000  0.63100  1.0000
  F   F25       1.0  0.52700  0.47300  0.69300  1.0000
  F   F26       1.0  0.92300  0.07670  0.69400  1.0000
  F   F27       1.0  0.29000  0.71000  0.76000  1.0000
  F   F28       1.0  0.62000  0.01790  0.80200  1.0000
  F   F29       1.0  0.98200  0.38000  0.80200  1.0000
  F   F30       1.0  0.09260  0.90700  0.82000  1.0000
  F   F31       1.0  0.43500  0.26900  0.88300  1.0000
  F   F32       1.0  0.73100  0.56500  0.88300  1.0000
  F   F33       1.0  0.05750  0.66000  0.90300  1.0000
  F   F34       1.0  0.34000  0.94300  0.90300  1.0000
  F   F35       1.0  0.88400  0.11600  0.95800  1.0000
  F   F36       1.0  0.31300  0.68700  0.97600  1.0000
  P   P1        1.0  0.80100  0.19900  0.10300  1.0000
  P   P2        1.0  0.00000  0.50000  0.50000  1.0000
  P   P3        1.0  0.50000  0.00000  0.50000  1.0000
  P   P4        1.0  0.19900  0.80100  0.89700  1.0000
  Sr  Sr1       1.0  0.28600  0.71400  0.22200  1.0000
  Sr  Sr2       1.0  0.71400  0.28600  0.77800  1.0000
  Xe  Xe1       1.0  0.31700  0.20700  0.16300  1.0000
  Xe  Xe2       1.0  0.79300  0.68300  0.16300  1.0000
  Xe  Xe3       1.0  0.00000  0.00000  0.50000  1.0000
  Xe  Xe4       1.0  0.50000  0.50000  0.50000  1.0000
  Xe  Xe5       1.0  0.20700  0.31700  0.83700  1.0000
  Xe  Xe6       1.0  0.68300  0.79300  0.83700  1.0000
