data_image0
_chemical_formula_structural       C4Cl4H20N4O12P4Zn4
_chemical_formula_sum              "C4 Cl4 H20 N4 O12 P4 Zn4"
_cell_length_a       4.69723
_cell_length_b       15.4835
_cell_length_c       8.06994
_cell_angle_alpha    90
_cell_angle_beta     107.141
_cell_angle_gamma    90

_space_group_name_H-M_alt    "P 1"
_space_group_IT_number       1

loop_
  _space_group_symop_operation_xyz
  'x, y, z'

loop_
  _atom_site_type_symbol
  _atom_site_label
  _atom_site_symmetry_multiplicity
  _atom_site_fract_x
  _atom_site_fract_y
  _atom_site_fract_z
  _atom_site_occupancy
  C   C1        1.0  0.90600  0.07410  0.18600  1.0000
  C   C2        1.0  0.09360  0.57400  0.31400  1.0000
  C   C3        1.0  0.90600  0.42600  0.68600  1.0000
  C   C4        1.0  0.09360  0.92600  0.81400  1.0000
  Cl  Cl1       1.0  0.44400  0.41700  0.12000  1.0000
  Cl  Cl2       1.0  0.55600  0.91700  0.38000  1.0000
  Cl  Cl3       1.0  0.44400  0.08340  0.62000  1.0000
  Cl  Cl4       1.0  0.55600  0.58300  0.88000  1.0000
  H   H1        1.0  0.05120  0.63700  0.07800  1.0000
  H   H2        1.0  0.73000  0.03910  0.09000  1.0000
  H   H3        1.0  0.29000  0.55300  0.12000  1.0000
  H   H4        1.0  0.39400  0.64900  0.21800  1.0000
  H   H5        1.0  0.08620  0.02800  0.24200  1.0000
  H   H6        1.0  0.91400  0.52800  0.25800  1.0000
  H   H7        1.0  0.60600  0.14900  0.28200  1.0000
  H   H8        1.0  0.71000  0.05310  0.38000  1.0000
  H   H9        1.0  0.27000  0.53900  0.41000  1.0000
  H   H10       1.0  0.94900  0.13700  0.42200  1.0000
  H   H11       1.0  0.05120  0.86300  0.57800  1.0000
  H   H12       1.0  0.73000  0.46100  0.59000  1.0000
  H   H13       1.0  0.29000  0.94700  0.62000  1.0000
  H   H14       1.0  0.39400  0.85100  0.71800  1.0000
  H   H15       1.0  0.08620  0.47200  0.74200  1.0000
  H   H16       1.0  0.91400  0.97200  0.75800  1.0000
  H   H17       1.0  0.60600  0.35100  0.78200  1.0000
  H   H18       1.0  0.71000  0.44700  0.88000  1.0000
  H   H19       1.0  0.27000  0.96100  0.91000  1.0000
  H   H20       1.0  0.94900  0.36300  0.92200  1.0000
  N   N1        1.0  0.21400  0.60600  0.17500  1.0000
  N   N2        1.0  0.78600  0.10600  0.32500  1.0000
  N   N3        1.0  0.21400  0.89400  0.67500  1.0000
  N   N4        1.0  0.78600  0.39400  0.82500  1.0000
  O   O1        1.0  0.20800  0.77900  0.01160  1.0000
  O   O2        1.0  0.79400  0.88400  0.03410  1.0000
  O   O3        1.0  0.27300  0.20900  0.23600  1.0000
  O   O4        1.0  0.72700  0.70900  0.26400  1.0000
  O   O5        1.0  0.20600  0.38400  0.46600  1.0000
  O   O6        1.0  0.79200  0.27900  0.48800  1.0000
  O   O7        1.0  0.20800  0.72100  0.51200  1.0000
  O   O8        1.0  0.79400  0.61600  0.53400  1.0000
  O   O9        1.0  0.27300  0.29100  0.73600  1.0000
  O   O10       1.0  0.72700  0.79100  0.76400  1.0000
  O   O11       1.0  0.20600  0.11600  0.96600  1.0000
  O   O12       1.0  0.79200  0.22100  0.98800  1.0000
  P   P1        1.0  0.04920  0.16200  0.08330  1.0000
  P   P2        1.0  0.95100  0.66200  0.41700  1.0000
  P   P3        1.0  0.04920  0.33800  0.58300  1.0000
  P   P4        1.0  0.95100  0.83800  0.91700  1.0000
  Zn  Zn1       1.0  0.58300  0.82200  0.17600  1.0000
  Zn  Zn2       1.0  0.41700  0.32200  0.32400  1.0000
  Zn  Zn3       1.0  0.58300  0.67800  0.67600  1.0000
  Zn  Zn4       1.0  0.41700  0.17800  0.82400  1.0000
