data_image0
_chemical_formula_structural       As8O32Sr4Zn8
_chemical_formula_sum              "As8 O32 Sr4 Zn8"
_cell_length_a       8.58044
_cell_length_b       9.73037
_cell_length_c       9.21786
_cell_angle_alpha    90
_cell_angle_beta     92.2218
_cell_angle_gamma    90

_space_group_name_H-M_alt    "P 1"
_space_group_IT_number       1

loop_
  _space_group_symop_operation_xyz
  'x, y, z'

loop_
  _atom_site_type_symbol
  _atom_site_label
  _atom_site_symmetry_multiplicity
  _atom_site_fract_x
  _atom_site_fract_y
  _atom_site_fract_z
  _atom_site_occupancy
  As  As1       1.0  0.95000  0.20500  0.05970  1.0000
  As  As2       1.0  0.44200  0.41800  0.24700  1.0000
  As  As3       1.0  0.55800  0.91800  0.25300  1.0000
  As  As4       1.0  0.04960  0.70500  0.44000  1.0000
  As  As5       1.0  0.95000  0.29500  0.56000  1.0000
  As  As6       1.0  0.44200  0.08150  0.74700  1.0000
  As  As7       1.0  0.55800  0.58200  0.75300  1.0000
  As  As8       1.0  0.04960  0.79500  0.94000  1.0000
  O   O1        1.0  0.21500  0.87300  0.00786  1.0000
  O   O2        1.0  0.90800  0.79600  0.06770  1.0000
  O   O3        1.0  0.56400  0.37600  0.11000  1.0000
  O   O4        1.0  0.92600  0.37200  0.11500  1.0000
  O   O5        1.0  0.57100  0.79800  0.12000  1.0000
  O   O6        1.0  0.26100  0.44000  0.16200  1.0000
  O   O7        1.0  0.47400  0.06590  0.18600  1.0000
  O   O8        1.0  0.02620  0.10800  0.20200  1.0000
  O   O9        1.0  0.97400  0.60800  0.29800  1.0000
  O   O10       1.0  0.52600  0.56600  0.31400  1.0000
  O   O11       1.0  0.73900  0.94000  0.33800  1.0000
  O   O12       1.0  0.42900  0.29800  0.38000  1.0000
  O   O13       1.0  0.07450  0.87200  0.38500  1.0000
  O   O14       1.0  0.43600  0.87600  0.39000  1.0000
  O   O15       1.0  0.09150  0.29600  0.43200  1.0000
  O   O16       1.0  0.78500  0.37300  0.49200  1.0000
  O   O17       1.0  0.21500  0.62700  0.50800  1.0000
  O   O18       1.0  0.90800  0.70400  0.56800  1.0000
  O   O19       1.0  0.56400  0.12400  0.61000  1.0000
  O   O20       1.0  0.92600  0.12800  0.61500  1.0000
  O   O21       1.0  0.57100  0.70200  0.62000  1.0000
  O   O22       1.0  0.26100  0.05960  0.66200  1.0000
  O   O23       1.0  0.47400  0.43400  0.68600  1.0000
  O   O24       1.0  0.02620  0.39200  0.70200  1.0000
  O   O25       1.0  0.97400  0.89200  0.79800  1.0000
  O   O26       1.0  0.52600  0.93400  0.81400  1.0000
  O   O27       1.0  0.73900  0.56000  0.83800  1.0000
  O   O28       1.0  0.42900  0.20200  0.88000  1.0000
  O   O29       1.0  0.07450  0.62800  0.88500  1.0000
  O   O30       1.0  0.43600  0.62400  0.89000  1.0000
  O   O31       1.0  0.09150  0.20400  0.93200  1.0000
  O   O32       1.0  0.78500  0.12700  0.99200  1.0000
  Sr  Sr1       1.0  0.74600  0.58400  0.11600  1.0000
  Sr  Sr2       1.0  0.25400  0.08430  0.38400  1.0000
  Sr  Sr3       1.0  0.74600  0.91600  0.61600  1.0000
  Sr  Sr4       1.0  0.25400  0.41600  0.88400  1.0000
  Zn  Zn1       1.0  0.57900  0.18400  0.04700  1.0000
  Zn  Zn2       1.0  0.92700  0.92900  0.22300  1.0000
  Zn  Zn3       1.0  0.07340  0.42900  0.27700  1.0000
  Zn  Zn4       1.0  0.42100  0.68400  0.45300  1.0000
  Zn  Zn5       1.0  0.57900  0.31600  0.54700  1.0000
  Zn  Zn6       1.0  0.92700  0.57100  0.72300  1.0000
  Zn  Zn7       1.0  0.07340  0.07080  0.77700  1.0000
  Zn  Zn8       1.0  0.42100  0.81600  0.95300  1.0000
