data_image0
_chemical_formula_structural       Cl16O16Pb16Si4
_chemical_formula_sum              "Cl16 O16 Pb16 Si4"
_cell_length_a       8.79112
_cell_length_b       15.6771
_cell_length_c       8.32007
_cell_angle_alpha    90
_cell_angle_beta     92.2827
_cell_angle_gamma    90

_space_group_name_H-M_alt    "P 1"
_space_group_IT_number       1

loop_
  _space_group_symop_operation_xyz
  'x, y, z'

loop_
  _atom_site_type_symbol
  _atom_site_label
  _atom_site_symmetry_multiplicity
  _atom_site_fract_x
  _atom_site_fract_y
  _atom_site_fract_z
  _atom_site_occupancy
  Cl  Cl1       1.0  0.00000  0.00000  0.00000  1.0000
  Cl  Cl2       1.0  0.50000  0.50000  0.00000  1.0000
  Cl  Cl3       1.0  0.87100  0.61100  0.11500  1.0000
  Cl  Cl4       1.0  0.73000  0.84500  0.12200  1.0000
  Cl  Cl5       1.0  0.83900  0.37800  0.16900  1.0000
  Cl  Cl6       1.0  0.16100  0.87800  0.33100  1.0000
  Cl  Cl7       1.0  0.27000  0.34500  0.37800  1.0000
  Cl  Cl8       1.0  0.12900  0.11100  0.38500  1.0000
  Cl  Cl9       1.0  0.00000  0.50000  0.50000  1.0000
  Cl  Cl10      1.0  0.50000  0.00000  0.50000  1.0000
  Cl  Cl11      1.0  0.87100  0.88900  0.61500  1.0000
  Cl  Cl12      1.0  0.73000  0.65500  0.62200  1.0000
  Cl  Cl13      1.0  0.83900  0.12200  0.66900  1.0000
  Cl  Cl14      1.0  0.16100  0.62200  0.83100  1.0000
  Cl  Cl15      1.0  0.27000  0.15500  0.87800  1.0000
  Cl  Cl16      1.0  0.12900  0.38900  0.88500  1.0000
  O   O1        1.0  0.35400  0.79100  0.01100  1.0000
  O   O2        1.0  0.62400  0.04520  0.10700  1.0000
  O   O3        1.0  0.47200  0.17300  0.23100  1.0000
  O   O4        1.0  0.21000  0.65700  0.23600  1.0000
  O   O5        1.0  0.79000  0.15700  0.26400  1.0000
  O   O6        1.0  0.52800  0.67300  0.26900  1.0000
  O   O7        1.0  0.37600  0.54500  0.39300  1.0000
  O   O8        1.0  0.64600  0.29100  0.48900  1.0000
  O   O9        1.0  0.35400  0.70900  0.51100  1.0000
  O   O10       1.0  0.62400  0.45500  0.60700  1.0000
  O   O11       1.0  0.47200  0.32700  0.73100  1.0000
  O   O12       1.0  0.21000  0.84300  0.73600  1.0000
  O   O13       1.0  0.79000  0.34300  0.76400  1.0000
  O   O14       1.0  0.52800  0.82700  0.76900  1.0000
  O   O15       1.0  0.37600  0.95500  0.89300  1.0000
  O   O16       1.0  0.64600  0.20900  0.98900  1.0000
  Pb  Pb1       1.0  0.43000  0.29900  0.00155  1.0000
  Pb  Pb2       1.0  0.10200  0.75900  0.06730  1.0000
  Pb  Pb3       1.0  0.34300  0.02850  0.15500  1.0000
  Pb  Pb4       1.0  0.15600  0.50700  0.20100  1.0000
  Pb  Pb5       1.0  0.84400  0.00678  0.29900  1.0000
  Pb  Pb6       1.0  0.65700  0.52900  0.34500  1.0000
  Pb  Pb7       1.0  0.89800  0.25900  0.43300  1.0000
  Pb  Pb8       1.0  0.57000  0.79900  0.49800  1.0000
  Pb  Pb9       1.0  0.43000  0.20100  0.50200  1.0000
  Pb  Pb10      1.0  0.10200  0.74100  0.56700  1.0000
  Pb  Pb11      1.0  0.34300  0.47100  0.65500  1.0000
  Pb  Pb12      1.0  0.15600  0.99300  0.70100  1.0000
  Pb  Pb13      1.0  0.84400  0.49300  0.79900  1.0000
  Pb  Pb14      1.0  0.65700  0.97100  0.84500  1.0000
  Pb  Pb15      1.0  0.89800  0.24100  0.93300  1.0000
  Pb  Pb16      1.0  0.57000  0.70100  0.99800  1.0000
  Si  Si1       1.0  0.63400  0.14900  0.14900  1.0000
  Si  Si2       1.0  0.36600  0.64900  0.35100  1.0000
  Si  Si3       1.0  0.63400  0.35100  0.64900  1.0000
  Si  Si4       1.0  0.36600  0.85100  0.85100  1.0000
