data_image0
_chemical_formula_structural       Er8P8S32
_chemical_formula_sum              "Er8 P8 S32"
_cell_length_a       12.1204
_cell_length_b       10.6846
_cell_length_c       10.6846
_cell_angle_alpha    90
_cell_angle_beta     116.153
_cell_angle_gamma    116.153

_space_group_name_H-M_alt    "P 1"
_space_group_IT_number       1

loop_
  _space_group_symop_operation_xyz
  'x, y, z'

loop_
  _atom_site_type_symbol
  _atom_site_label
  _atom_site_symmetry_multiplicity
  _atom_site_fract_x
  _atom_site_fract_y
  _atom_site_fract_z
  _atom_site_occupancy
  Er  Er1       1.0  0.75000  0.37500  0.12500  1.0000
  Er  Er2       1.0  0.75000  0.87500  0.12500  1.0000
  Er  Er3       1.0  0.25000  0.12500  0.37500  1.0000
  Er  Er4       1.0  0.25000  0.62500  0.37500  1.0000
  Er  Er5       1.0  0.75000  0.37500  0.62500  1.0000
  Er  Er6       1.0  0.75000  0.87500  0.62500  1.0000
  Er  Er7       1.0  0.25000  0.12500  0.87500  1.0000
  Er  Er8       1.0  0.25000  0.62500  0.87500  1.0000
  P   P1        1.0  0.00000  0.25000  0.21300  1.0000
  P   P2        1.0  0.50000  0.21300  0.25000  1.0000
  P   P3        1.0  0.50000  0.71300  0.25000  1.0000
  P   P4        1.0  0.00000  0.75000  0.28700  1.0000
  P   P5        1.0  0.00000  0.25000  0.71300  1.0000
  P   P6        1.0  0.50000  0.28700  0.75000  1.0000
  P   P7        1.0  0.50000  0.78700  0.75000  1.0000
  P   P8        1.0  0.00000  0.75000  0.78700  1.0000
  S   S1        1.0  0.49300  0.11000  0.08270  1.0000
  S   S2        1.0  0.50700  0.61700  0.08980  1.0000
  S   S3        1.0  0.81900  0.65500  0.09320  1.0000
  S   S4        1.0  0.99300  0.08270  0.11000  1.0000
  S   S5        1.0  0.00709  0.41700  0.11700  1.0000
  S   S6        1.0  0.31900  0.72600  0.15500  1.0000
  S   S7        1.0  0.31900  0.22600  0.16400  1.0000
  S   S8        1.0  0.81900  0.16400  0.22600  1.0000
  S   S9        1.0  0.18100  0.84500  0.27400  1.0000
  S   S10       1.0  0.68100  0.40700  0.33600  1.0000
  S   S11       1.0  0.68100  0.90700  0.34500  1.0000
  S   S12       1.0  0.99300  0.91000  0.38300  1.0000
  S   S13       1.0  0.00709  0.59000  0.39000  1.0000
  S   S14       1.0  0.18100  0.33600  0.40700  1.0000
  S   S15       1.0  0.49300  0.61000  0.41000  1.0000
  S   S16       1.0  0.50700  0.11700  0.41700  1.0000
  S   S17       1.0  0.49300  0.88300  0.58300  1.0000
  S   S18       1.0  0.50700  0.39000  0.59000  1.0000
  S   S19       1.0  0.81900  0.66400  0.59300  1.0000
  S   S20       1.0  0.99300  0.41000  0.61000  1.0000
  S   S21       1.0  0.00709  0.08980  0.61700  1.0000
  S   S22       1.0  0.31900  0.09320  0.65500  1.0000
  S   S23       1.0  0.31900  0.59300  0.66400  1.0000
  S   S24       1.0  0.81900  0.15500  0.72600  1.0000
  S   S25       1.0  0.18100  0.83600  0.77400  1.0000
  S   S26       1.0  0.68100  0.77400  0.83600  1.0000
  S   S27       1.0  0.68100  0.27400  0.84500  1.0000
  S   S28       1.0  0.99300  0.58300  0.88300  1.0000
  S   S29       1.0  0.00709  0.91700  0.89000  1.0000
  S   S30       1.0  0.18100  0.34500  0.90700  1.0000
  S   S31       1.0  0.49300  0.38300  0.91000  1.0000
  S   S32       1.0  0.50700  0.89000  0.91700  1.0000
