data_image0
_chemical_formula_structural       B12Ho8O30
_chemical_formula_sum              "B12 Ho8 O30"
_cell_length_a       4.35091
_cell_length_b       6.19435
_cell_length_c       18.678
_cell_angle_alpha    96.0988
_cell_angle_beta     90
_cell_angle_gamma    110.561

_space_group_name_H-M_alt    "P 1"
_space_group_IT_number       1

loop_
  _space_group_symop_operation_xyz
  'x, y, z'

loop_
  _atom_site_type_symbol
  _atom_site_label
  _atom_site_symmetry_multiplicity
  _atom_site_fract_x
  _atom_site_fract_y
  _atom_site_fract_z
  _atom_site_occupancy
  B   B1        1.0  0.02100  0.66300  0.02530  1.0000
  B   B2        1.0  0.60900  0.81000  0.08710  1.0000
  B   B3        1.0  0.79900  0.13700  0.19500  1.0000
  B   B4        1.0  0.66100  0.86300  0.30500  1.0000
  B   B5        1.0  0.79900  0.19000  0.41300  1.0000
  B   B6        1.0  0.35800  0.33700  0.47500  1.0000
  B   B7        1.0  0.64200  0.66300  0.52500  1.0000
  B   B8        1.0  0.20100  0.81000  0.58700  1.0000
  B   B9        1.0  0.33900  0.13700  0.69500  1.0000
  B   B10       1.0  0.20100  0.86300  0.80500  1.0000
  B   B11       1.0  0.39100  0.19000  0.91300  1.0000
  B   B12       1.0  0.97900  0.33700  0.97500  1.0000
  Ho  Ho1       1.0  0.34000  0.27000  0.09950  1.0000
  Ho  Ho2       1.0  0.07620  0.72600  0.19600  1.0000
  Ho  Ho3       1.0  0.35000  0.27400  0.30400  1.0000
  Ho  Ho4       1.0  0.06990  0.73000  0.40000  1.0000
  Ho  Ho5       1.0  0.93000  0.27000  0.60000  1.0000
  Ho  Ho6       1.0  0.65000  0.72600  0.69600  1.0000
  Ho  Ho7       1.0  0.92400  0.27400  0.80400  1.0000
  Ho  Ho8       1.0  0.66000  0.73000  0.90000  1.0000
  O   O1        1.0  0.74900  0.74600  0.02020  1.0000
  O   O2        1.0  0.91200  0.41900  0.05030  1.0000
  O   O3        1.0  0.28800  0.83500  0.06990  1.0000
  O   O4        1.0  0.84100  0.03240  0.12100  1.0000
  O   O5        1.0  0.55900  0.64300  0.13900  1.0000
  O   O6        1.0  0.46700  0.13200  0.19700  1.0000
  O   O7        1.0  0.05310  0.36600  0.20400  1.0000
  O   O8        1.0  0.87000  0.00000  0.25000  1.0000
  O   O9        1.0  0.68700  0.63400  0.29600  1.0000
  O   O10       1.0  0.33600  0.86800  0.30300  1.0000
  O   O11       1.0  0.91700  0.35700  0.36100  1.0000
  O   O12       1.0  0.80800  0.96800  0.37900  1.0000
  O   O13       1.0  0.45300  0.16500  0.43000  1.0000
  O   O14       1.0  0.49300  0.58100  0.45000  1.0000
  O   O15       1.0  0.00345  0.25400  0.48000  1.0000
  O   O16       1.0  0.99700  0.74600  0.52000  1.0000
  O   O17       1.0  0.50700  0.41900  0.55000  1.0000
  O   O18       1.0  0.54700  0.83500  0.57000  1.0000
  O   O19       1.0  0.19200  0.03240  0.62100  1.0000
  O   O20       1.0  0.08330  0.64300  0.63900  1.0000
  O   O21       1.0  0.66400  0.13200  0.69700  1.0000
  O   O22       1.0  0.31300  0.36600  0.70400  1.0000
  O   O23       1.0  0.13000  0.00000  0.75000  1.0000
  O   O24       1.0  0.94700  0.63400  0.79600  1.0000
  O   O25       1.0  0.53300  0.86800  0.80300  1.0000
  O   O26       1.0  0.44100  0.35700  0.86100  1.0000
  O   O27       1.0  0.15900  0.96800  0.87900  1.0000
  O   O28       1.0  0.71200  0.16500  0.93000  1.0000
  O   O29       1.0  0.08750  0.58100  0.95000  1.0000
  O   O30       1.0  0.25100  0.25400  0.98000  1.0000
