data_image0
_chemical_formula_structural       H8O32P8Zr4
_chemical_formula_sum              "H8 O32 P8 Zr4"
_cell_length_a       9.57721
_cell_length_b       9.57721
_cell_length_c       9.57721
_cell_angle_alpha    108.421
_cell_angle_beta     111.593
_cell_angle_gamma    108.421

_space_group_name_H-M_alt    "P 1"
_space_group_IT_number       1

loop_
  _space_group_symop_operation_xyz
  'x, y, z'

loop_
  _atom_site_type_symbol
  _atom_site_label
  _atom_site_symmetry_multiplicity
  _atom_site_fract_x
  _atom_site_fract_y
  _atom_site_fract_z
  _atom_site_occupancy
  H   H1        1.0  0.08400  0.45000  0.05020  1.0000
  H   H2        1.0  0.58400  0.03380  0.13400  1.0000
  H   H3        1.0  0.38400  0.53400  0.33400  1.0000
  H   H4        1.0  0.88400  0.05000  0.35000  1.0000
  H   H5        1.0  0.10000  0.96600  0.55000  1.0000
  H   H6        1.0  0.60000  0.55000  0.63400  1.0000
  H   H7        1.0  0.30000  0.95000  0.83400  1.0000
  H   H8        1.0  0.80000  0.46600  0.85000  1.0000
  O   O1        1.0  0.34500  0.60100  0.00385  1.0000
  O   O2        1.0  0.47600  0.03680  0.07700  1.0000
  O   O3        1.0  0.25400  0.10100  0.09520  1.0000
  O   O4        1.0  0.99500  0.89900  0.15300  1.0000
  O   O5        1.0  0.01120  0.20900  0.16900  1.0000
  O   O6        1.0  0.91900  0.65700  0.21000  1.0000
  O   O7        1.0  0.32700  0.53700  0.22600  1.0000
  O   O8        1.0  0.61500  0.63900  0.23700  1.0000
  O   O9        1.0  0.84500  0.34100  0.24500  1.0000
  O   O10       1.0  0.55300  0.34300  0.26100  1.0000
  O   O11       1.0  0.82700  0.10100  0.29000  1.0000
  O   O12       1.0  0.51100  0.84300  0.30300  1.0000
  O   O13       1.0  0.22600  0.86100  0.34800  1.0000
  O   O14       1.0  0.48700  0.13900  0.36500  1.0000
  O   O15       1.0  0.04020  0.96300  0.44000  1.0000
  O   O16       1.0  0.11500  0.37800  0.47600  1.0000
  O   O17       1.0  0.90300  0.65900  0.50400  1.0000
  O   O18       1.0  0.54000  0.60100  0.57700  1.0000
  O   O19       1.0  0.49500  0.84100  0.59500  1.0000
  O   O20       1.0  0.75400  0.15900  0.65300  1.0000
  O   O21       1.0  0.46000  0.15700  0.66900  1.0000
  O   O22       1.0  0.05260  0.29100  0.71000  1.0000
  O   O23       1.0  0.19000  0.89900  0.72600  1.0000
  O   O24       1.0  0.09790  0.62200  0.73700  1.0000
  O   O25       1.0  0.40300  0.39900  0.74500  1.0000
  O   O26       1.0  0.41900  0.70900  0.76100  1.0000
  O   O27       1.0  0.69000  0.46300  0.79000  1.0000
  O   O28       1.0  0.96000  0.79100  0.80300  1.0000
  O   O29       1.0  0.98700  0.12200  0.84800  1.0000
  O   O30       1.0  0.72600  0.87800  0.86500  1.0000
  O   O31       1.0  0.97600  0.39900  0.94000  1.0000
  O   O32       1.0  0.59800  0.36100  0.97600  1.0000
  P   P1        1.0  0.45500  0.65800  0.19400  1.0000
  P   P2        1.0  0.44400  0.15800  0.20500  1.0000
  P   P3        1.0  0.04690  0.84200  0.28500  1.0000
  P   P4        1.0  0.95500  0.26100  0.29700  1.0000
  P   P5        1.0  0.03540  0.73900  0.69400  1.0000
  P   P6        1.0  0.54700  0.76100  0.70500  1.0000
  P   P7        1.0  0.94400  0.23900  0.78500  1.0000
  P   P8        1.0  0.53500  0.34200  0.79700  1.0000
  Zr  Zr1       1.0  0.74200  0.50000  0.24200  1.0000
  Zr  Zr2       1.0  0.49200  0.00000  0.49200  1.0000
  Zr  Zr3       1.0  0.24200  0.50000  0.74200  1.0000
  Zr  Zr4       1.0  0.99200  0.00000  0.99200  1.0000
