data_image0
_chemical_formula_structural       K12Li12O24Te4
_chemical_formula_sum              "K12 Li12 O24 Te4"
_cell_length_a       11.6539
_cell_length_b       5.97706
_cell_length_c       9.6702
_cell_angle_alpha    90
_cell_angle_beta     90
_cell_angle_gamma    90

_space_group_name_H-M_alt    "P 1"
_space_group_IT_number       1

loop_
  _space_group_symop_operation_xyz
  'x, y, z'

loop_
  _atom_site_type_symbol
  _atom_site_label
  _atom_site_symmetry_multiplicity
  _atom_site_fract_x
  _atom_site_fract_y
  _atom_site_fract_z
  _atom_site_occupancy
  K   K1        1.0  0.96200  0.75000  0.03890  1.0000
  K   K2        1.0  0.52700  0.75000  0.13000  1.0000
  K   K3        1.0  0.49200  0.25000  0.20400  1.0000
  K   K4        1.0  0.99200  0.25000  0.29600  1.0000
  K   K5        1.0  0.02710  0.75000  0.37000  1.0000
  K   K6        1.0  0.46200  0.75000  0.46100  1.0000
  K   K7        1.0  0.53800  0.25000  0.53900  1.0000
  K   K8        1.0  0.97300  0.25000  0.63000  1.0000
  K   K9        1.0  0.00784  0.75000  0.70400  1.0000
  K   K10       1.0  0.50800  0.75000  0.79600  1.0000
  K   K11       1.0  0.47300  0.25000  0.87000  1.0000
  K   K12       1.0  0.03830  0.25000  0.96100  1.0000
  Li  Li1       1.0  0.25100  0.25000  0.09140  1.0000
  Li  Li2       1.0  0.74300  0.00619  0.16500  1.0000
  Li  Li3       1.0  0.74300  0.49400  0.16500  1.0000
  Li  Li4       1.0  0.24300  0.00619  0.33500  1.0000
  Li  Li5       1.0  0.24300  0.49400  0.33500  1.0000
  Li  Li6       1.0  0.75100  0.25000  0.40900  1.0000
  Li  Li7       1.0  0.24900  0.75000  0.59100  1.0000
  Li  Li8       1.0  0.75700  0.50600  0.66500  1.0000
  Li  Li9       1.0  0.75700  0.99400  0.66500  1.0000
  Li  Li10      1.0  0.25700  0.50600  0.83500  1.0000
  Li  Li11      1.0  0.25700  0.99400  0.83500  1.0000
  Li  Li12      1.0  0.74900  0.75000  0.90900  1.0000
  O   O1        1.0  0.34400  0.51200  0.01380  1.0000
  O   O2        1.0  0.34400  0.98800  0.01380  1.0000
  O   O3        1.0  0.83700  0.25000  0.09320  1.0000
  O   O4        1.0  0.14600  0.51000  0.16100  1.0000
  O   O5        1.0  0.14600  0.99000  0.16100  1.0000
  O   O6        1.0  0.82500  0.75000  0.23600  1.0000
  O   O7        1.0  0.32500  0.75000  0.26400  1.0000
  O   O8        1.0  0.64600  0.51000  0.33900  1.0000
  O   O9        1.0  0.64600  0.99000  0.33900  1.0000
  O   O10       1.0  0.33700  0.25000  0.40700  1.0000
  O   O11       1.0  0.84400  0.51200  0.48600  1.0000
  O   O12       1.0  0.84400  0.98800  0.48600  1.0000
  O   O13       1.0  0.15600  0.01190  0.51400  1.0000
  O   O14       1.0  0.15600  0.48800  0.51400  1.0000
  O   O15       1.0  0.66300  0.75000  0.59300  1.0000
  O   O16       1.0  0.35400  0.00966  0.66100  1.0000
  O   O17       1.0  0.35400  0.49000  0.66100  1.0000
  O   O18       1.0  0.67500  0.25000  0.73600  1.0000
  O   O19       1.0  0.17500  0.25000  0.76400  1.0000
  O   O20       1.0  0.85400  0.00966  0.83900  1.0000
  O   O21       1.0  0.85400  0.49000  0.83900  1.0000
  O   O22       1.0  0.16300  0.75000  0.90700  1.0000
  O   O23       1.0  0.65600  0.01190  0.98600  1.0000
  O   O24       1.0  0.65600  0.48800  0.98600  1.0000
  Te  Te1       1.0  0.24400  0.75000  0.08650  1.0000
  Te  Te2       1.0  0.74400  0.75000  0.41400  1.0000
  Te  Te3       1.0  0.25600  0.25000  0.58600  1.0000
  Te  Te4       1.0  0.75600  0.25000  0.91400  1.0000
