data_image0
_chemical_formula_structural       H14N6Na4O16P6Tl2
_chemical_formula_sum              "H14 N6 Na4 O16 P6 Tl2"
_cell_length_a       7.82761
_cell_length_b       7.84916
_cell_length_c       8.43395
_cell_angle_alpha    77.4839
_cell_angle_beta     84.0679
_cell_angle_gamma    77.6564

_space_group_name_H-M_alt    "P 1"
_space_group_IT_number       1

loop_
  _space_group_symop_operation_xyz
  'x, y, z'

loop_
  _atom_site_type_symbol
  _atom_site_label
  _atom_site_symmetry_multiplicity
  _atom_site_fract_x
  _atom_site_fract_y
  _atom_site_fract_z
  _atom_site_occupancy
  H   H1        1.0  0.54300  0.71600  0.10800  1.0000
  H   H2        1.0  0.24400  0.42300  0.12500  1.0000
  H   H3        1.0  0.50600  0.43400  0.23600  1.0000
  H   H4        1.0  0.28000  0.03300  0.33900  1.0000
  H   H5        1.0  0.00961  0.30500  0.38100  1.0000
  H   H6        1.0  0.25900  0.83200  0.40700  1.0000
  H   H7        1.0  0.06550  0.62900  0.45600  1.0000
  H   H8        1.0  0.93500  0.37100  0.54400  1.0000
  H   H9        1.0  0.74100  0.16800  0.59300  1.0000
  H   H10       1.0  0.99000  0.69500  0.61900  1.0000
  H   H11       1.0  0.72000  0.96700  0.66100  1.0000
  H   H12       1.0  0.49400  0.56600  0.76400  1.0000
  H   H13       1.0  0.75600  0.57700  0.87500  1.0000
  H   H14       1.0  0.45700  0.28400  0.89200  1.0000
  N   N1        1.0  0.42500  0.78000  0.05660  1.0000
  N   N2        1.0  0.20600  0.55400  0.06430  1.0000
  N   N3        1.0  0.61200  0.33600  0.21600  1.0000
  N   N4        1.0  0.38800  0.66400  0.78400  1.0000
  N   N5        1.0  0.79400  0.44600  0.93600  1.0000
  N   N6        1.0  0.57500  0.22000  0.94300  1.0000
  Na  Na1       1.0  0.15100  0.14800  0.00013  1.0000
  Na  Na2       1.0  0.93100  0.99000  0.33500  1.0000
  Na  Na3       1.0  0.06940  0.00967  0.66500  1.0000
  Na  Na4       1.0  0.84900  0.85200  0.00000  1.0000
  O   O1        1.0  0.09420  0.86700  0.13000  1.0000
  O   O2        1.0  0.76500  0.60300  0.17800  1.0000
  O   O3        1.0  0.35800  0.18100  0.19400  1.0000
  O   O4        1.0  0.95000  0.28000  0.19900  1.0000
  O   O5        1.0  0.68100  0.99900  0.20600  1.0000
  O   O6        1.0  0.29500  0.62200  0.32800  1.0000
  O   O7        1.0  0.22700  0.95300  0.43100  1.0000
  O   O8        1.0  0.03890  0.30400  0.49400  1.0000
  O   O9        1.0  0.96100  0.69600  0.50600  1.0000
  O   O10       1.0  0.77300  0.04710  0.56900  1.0000
  O   O11       1.0  0.70500  0.37800  0.67200  1.0000
  O   O12       1.0  0.31900  0.00112  0.79400  1.0000
  O   O13       1.0  0.04960  0.72000  0.80100  1.0000
  O   O14       1.0  0.64200  0.81900  0.80600  1.0000
  O   O15       1.0  0.23500  0.39700  0.82200  1.0000
  O   O16       1.0  0.90600  0.13300  0.87000  1.0000
  P   P1        1.0  0.79300  0.41900  0.13900  1.0000
  P   P2        1.0  0.55300  0.16900  0.14800  1.0000
  P   P3        1.0  0.24600  0.71100  0.15500  1.0000
  P   P4        1.0  0.75400  0.28900  0.84500  1.0000
  P   P5        1.0  0.44700  0.83100  0.85200  1.0000
  P   P6        1.0  0.20700  0.58100  0.86100  1.0000
  Tl  Tl1       1.0  0.62600  0.72200  0.44800  1.0000
  Tl  Tl2       1.0  0.37400  0.27800  0.55200  1.0000
