data_image0
_chemical_formula_structural       B8Na8O28Y8
_chemical_formula_sum              "B8 Na8 O28 Y8"
_cell_length_a       10.5769
_cell_length_b       6.20177
_cell_length_c       10.1898
_cell_angle_alpha    90
_cell_angle_beta     117.971
_cell_angle_gamma    90

_space_group_name_H-M_alt    "P 1"
_space_group_IT_number       1

loop_
  _space_group_symop_operation_xyz
  'x, y, z'

loop_
  _atom_site_type_symbol
  _atom_site_label
  _atom_site_symmetry_multiplicity
  _atom_site_fract_x
  _atom_site_fract_y
  _atom_site_fract_z
  _atom_site_occupancy
  B   B1        1.0  0.68200  0.75100  0.08060  1.0000
  B   B2        1.0  0.21000  0.65100  0.15000  1.0000
  B   B3        1.0  0.79000  0.15100  0.35000  1.0000
  B   B4        1.0  0.31800  0.25100  0.41900  1.0000
  B   B5        1.0  0.68200  0.74900  0.58100  1.0000
  B   B6        1.0  0.21000  0.84900  0.65000  1.0000
  B   B7        1.0  0.79000  0.34900  0.85000  1.0000
  B   B8        1.0  0.31800  0.24900  0.91900  1.0000
  Na  Na1       1.0  0.61100  0.25600  0.04730  1.0000
  Na  Na2       1.0  0.47500  0.43900  0.23500  1.0000
  Na  Na3       1.0  0.52500  0.93900  0.26500  1.0000
  Na  Na4       1.0  0.38900  0.75600  0.45300  1.0000
  Na  Na5       1.0  0.61100  0.24400  0.54700  1.0000
  Na  Na6       1.0  0.47500  0.06120  0.73500  1.0000
  Na  Na7       1.0  0.52500  0.56100  0.76500  1.0000
  Na  Na8       1.0  0.38900  0.74400  0.95300  1.0000
  O   O1        1.0  0.40000  0.15500  0.05540  1.0000
  O   O2        1.0  0.14900  0.45500  0.08660  1.0000
  O   O3        1.0  0.97300  0.12400  0.09600  1.0000
  O   O4        1.0  0.83100  0.76200  0.13400  1.0000
  O   O5        1.0  0.31900  0.74300  0.13500  1.0000
  O   O6        1.0  0.62700  0.64700  0.16200  1.0000
  O   O7        1.0  0.15300  0.75800  0.23200  1.0000
  O   O8        1.0  0.84700  0.25800  0.26800  1.0000
  O   O9        1.0  0.37300  0.14700  0.33800  1.0000
  O   O10       1.0  0.68100  0.24300  0.36500  1.0000
  O   O11       1.0  0.16900  0.26200  0.36600  1.0000
  O   O12       1.0  0.02750  0.62400  0.40400  1.0000
  O   O13       1.0  0.85100  0.95500  0.41300  1.0000
  O   O14       1.0  0.60000  0.65500  0.44500  1.0000
  O   O15       1.0  0.40000  0.34500  0.55500  1.0000
  O   O16       1.0  0.14900  0.04460  0.58700  1.0000
  O   O17       1.0  0.97300  0.37600  0.59600  1.0000
  O   O18       1.0  0.83100  0.73800  0.63400  1.0000
  O   O19       1.0  0.31900  0.75700  0.63500  1.0000
  O   O20       1.0  0.62700  0.85300  0.66200  1.0000
  O   O21       1.0  0.15300  0.74200  0.73200  1.0000
  O   O22       1.0  0.84700  0.24200  0.76800  1.0000
  O   O23       1.0  0.37300  0.35300  0.83800  1.0000
  O   O24       1.0  0.68100  0.25700  0.86500  1.0000
  O   O25       1.0  0.16900  0.23800  0.86600  1.0000
  O   O26       1.0  0.02750  0.87600  0.90400  1.0000
  O   O27       1.0  0.85100  0.54500  0.91300  1.0000
  O   O28       1.0  0.60000  0.84500  0.94500  1.0000
  Y   Y1        1.0  0.18500  0.08070  0.08880  1.0000
  Y   Y2        1.0  0.98300  0.46100  0.18100  1.0000
  Y   Y3        1.0  0.01730  0.96100  0.31900  1.0000
  Y   Y4        1.0  0.81500  0.58100  0.41100  1.0000
  Y   Y5        1.0  0.18500  0.41900  0.58900  1.0000
  Y   Y6        1.0  0.98300  0.03930  0.68100  1.0000
  Y   Y7        1.0  0.01730  0.53900  0.81900  1.0000
  Y   Y8        1.0  0.81500  0.91900  0.91100  1.0000
