data_image0
_chemical_formula_structural       Cd4Ge14O32
_chemical_formula_sum              "Cd4 Ge14 O32"
_cell_length_a       11.2874
_cell_length_b       11.2874
_cell_length_c       4.64608
_cell_angle_alpha    90
_cell_angle_beta     90
_cell_angle_gamma    90

_space_group_name_H-M_alt    "P 1"
_space_group_IT_number       1

loop_
  _space_group_symop_operation_xyz
  'x, y, z'

loop_
  _atom_site_type_symbol
  _atom_site_label
  _atom_site_symmetry_multiplicity
  _atom_site_fract_x
  _atom_site_fract_y
  _atom_site_fract_z
  _atom_site_occupancy
  Cd  Cd1       1.0  0.33600  0.16400  0.00000  1.0000
  Cd  Cd2       1.0  0.83600  0.33600  0.00000  1.0000
  Cd  Cd3       1.0  0.16400  0.66400  0.00000  1.0000
  Cd  Cd4       1.0  0.66400  0.83600  0.00000  1.0000
  Ge  Ge1       1.0  0.63600  0.13600  0.00000  1.0000
  Ge  Ge2       1.0  0.13600  0.36400  0.00000  1.0000
  Ge  Ge3       1.0  0.86400  0.63600  0.00000  1.0000
  Ge  Ge4       1.0  0.36400  0.86400  0.00000  1.0000
  Ge  Ge5       1.0  0.81500  0.06810  0.49000  1.0000
  Ge  Ge6       1.0  0.31500  0.43200  0.49000  1.0000
  Ge  Ge7       1.0  0.68500  0.56800  0.49000  1.0000
  Ge  Ge8       1.0  0.18500  0.93200  0.49000  1.0000
  Ge  Ge9       1.0  0.50000  0.00000  0.50000  1.0000
  Ge  Ge10      1.0  0.00000  0.50000  0.50000  1.0000
  Ge  Ge11      1.0  0.06810  0.18500  0.51000  1.0000
  Ge  Ge12      1.0  0.56800  0.31500  0.51000  1.0000
  Ge  Ge13      1.0  0.43200  0.68500  0.51000  1.0000
  Ge  Ge14      1.0  0.93200  0.81500  0.51000  1.0000
  O   O1        1.0  0.52800  0.22000  0.22600  1.0000
  O   O2        1.0  0.02750  0.28000  0.22600  1.0000
  O   O3        1.0  0.97200  0.72000  0.22600  1.0000
  O   O4        1.0  0.47200  0.78000  0.22600  1.0000
  O   O5        1.0  0.76800  0.17600  0.23300  1.0000
  O   O6        1.0  0.26800  0.32400  0.23300  1.0000
  O   O7        1.0  0.73200  0.67600  0.23300  1.0000
  O   O8        1.0  0.23200  0.82400  0.23300  1.0000
  O   O9        1.0  0.62000  0.00044  0.25400  1.0000
  O   O10       1.0  0.12000  0.50000  0.25400  1.0000
  O   O11       1.0  0.88000  0.50000  0.25400  1.0000
  O   O12       1.0  0.38000  0.00000  0.25400  1.0000
  O   O13       1.0  0.13700  0.06450  0.32300  1.0000
  O   O14       1.0  0.63700  0.43500  0.32300  1.0000
  O   O15       1.0  0.36300  0.56500  0.32300  1.0000
  O   O16       1.0  0.86300  0.93500  0.32300  1.0000
  O   O17       1.0  0.93500  0.13700  0.67700  1.0000
  O   O18       1.0  0.43500  0.36300  0.67700  1.0000
  O   O19       1.0  0.56500  0.63700  0.67700  1.0000
  O   O20       1.0  0.06450  0.86300  0.67700  1.0000
  O   O21       1.0  0.50000  0.12000  0.74600  1.0000
  O   O22       1.0  0.00044  0.38000  0.74600  1.0000
  O   O23       1.0  0.00000  0.62000  0.74600  1.0000
  O   O24       1.0  0.50000  0.88000  0.74600  1.0000
  O   O25       1.0  0.17600  0.23200  0.76700  1.0000
  O   O26       1.0  0.67600  0.26800  0.76700  1.0000
  O   O27       1.0  0.32400  0.73200  0.76700  1.0000
  O   O28       1.0  0.82400  0.76800  0.76700  1.0000
  O   O29       1.0  0.72000  0.02750  0.77400  1.0000
  O   O30       1.0  0.22000  0.47200  0.77400  1.0000
  O   O31       1.0  0.78000  0.52800  0.77400  1.0000
  O   O32       1.0  0.28000  0.97200  0.77400  1.0000
