data_image0
_chemical_formula_structural       B8Ge4O32Sm8
_chemical_formula_sum              "B8 Ge4 O32 Sm8"
_cell_length_a       13.6015
_cell_length_b       4.42928
_cell_length_c       9.33774
_cell_angle_alpha    90
_cell_angle_beta     90
_cell_angle_gamma    90

_space_group_name_H-M_alt    "P 1"
_space_group_IT_number       1

loop_
  _space_group_symop_operation_xyz
  'x, y, z'

loop_
  _atom_site_type_symbol
  _atom_site_label
  _atom_site_symmetry_multiplicity
  _atom_site_fract_x
  _atom_site_fract_y
  _atom_site_fract_z
  _atom_site_occupancy
  B   B1        1.0  0.20000  0.46700  0.20400  1.0000
  B   B2        1.0  0.30000  0.96700  0.20400  1.0000
  B   B3        1.0  0.80000  0.46700  0.29600  1.0000
  B   B4        1.0  0.70000  0.96700  0.29600  1.0000
  B   B5        1.0  0.30000  0.03280  0.70400  1.0000
  B   B6        1.0  0.20000  0.53300  0.70400  1.0000
  B   B7        1.0  0.70000  0.03280  0.79600  1.0000
  B   B8        1.0  0.80000  0.53300  0.79600  1.0000
  Ge  Ge1       1.0  0.50000  0.07050  0.25000  1.0000
  Ge  Ge2       1.0  0.00000  0.57100  0.25000  1.0000
  Ge  Ge3       1.0  0.00000  0.42900  0.75000  1.0000
  Ge  Ge4       1.0  0.50000  0.92900  0.75000  1.0000
  O   O1        1.0  0.19200  0.46200  0.04990  1.0000
  O   O2        1.0  0.30800  0.96200  0.04990  1.0000
  O   O3        1.0  0.49600  0.29200  0.09720  1.0000
  O   O4        1.0  0.00395  0.79200  0.09720  1.0000
  O   O5        1.0  0.89300  0.33700  0.23300  1.0000
  O   O6        1.0  0.60700  0.83700  0.23300  1.0000
  O   O7        1.0  0.71600  0.28000  0.24100  1.0000
  O   O8        1.0  0.78400  0.78000  0.24100  1.0000
  O   O9        1.0  0.28400  0.28000  0.25900  1.0000
  O   O10       1.0  0.21600  0.78000  0.25900  1.0000
  O   O11       1.0  0.10700  0.33700  0.26700  1.0000
  O   O12       1.0  0.39300  0.83700  0.26700  1.0000
  O   O13       1.0  0.50400  0.29200  0.40300  1.0000
  O   O14       1.0  0.99600  0.79200  0.40300  1.0000
  O   O15       1.0  0.80800  0.46200  0.45000  1.0000
  O   O16       1.0  0.69200  0.96200  0.45000  1.0000
  O   O17       1.0  0.30800  0.03790  0.55000  1.0000
  O   O18       1.0  0.19200  0.53800  0.55000  1.0000
  O   O19       1.0  0.00395  0.20800  0.59700  1.0000
  O   O20       1.0  0.49600  0.70800  0.59700  1.0000
  O   O21       1.0  0.60700  0.16300  0.73300  1.0000
  O   O22       1.0  0.89300  0.66300  0.73300  1.0000
  O   O23       1.0  0.78400  0.22000  0.74100  1.0000
  O   O24       1.0  0.71600  0.72000  0.74100  1.0000
  O   O25       1.0  0.21600  0.22000  0.75900  1.0000
  O   O26       1.0  0.28400  0.72000  0.75900  1.0000
  O   O27       1.0  0.39300  0.16300  0.76700  1.0000
  O   O28       1.0  0.10700  0.66300  0.76700  1.0000
  O   O29       1.0  0.99600  0.20800  0.90300  1.0000
  O   O30       1.0  0.50400  0.70800  0.90300  1.0000
  O   O31       1.0  0.69200  0.03790  0.95000  1.0000
  O   O32       1.0  0.80800  0.53800  0.95000  1.0000
  Sm  Sm1       1.0  0.86000  0.03960  0.02420  1.0000
  Sm  Sm2       1.0  0.64000  0.54000  0.02420  1.0000
  Sm  Sm3       1.0  0.14000  0.03960  0.47600  1.0000
  Sm  Sm4       1.0  0.36000  0.54000  0.47600  1.0000
  Sm  Sm5       1.0  0.64000  0.46000  0.52400  1.0000
  Sm  Sm6       1.0  0.86000  0.96000  0.52400  1.0000
  Sm  Sm7       1.0  0.36000  0.46000  0.97600  1.0000
  Sm  Sm8       1.0  0.14000  0.96000  0.97600  1.0000
