data_image0
_chemical_formula_structural       F8H16O16Rb8
_chemical_formula_sum              "F8 H16 O16 Rb8"
_cell_length_a       11.6455
_cell_length_b       11.6455
_cell_length_c       4.32028
_cell_angle_alpha    90
_cell_angle_beta     90
_cell_angle_gamma    90

_space_group_name_H-M_alt    "P 1"
_space_group_IT_number       1

loop_
  _space_group_symop_operation_xyz
  'x, y, z'

loop_
  _atom_site_type_symbol
  _atom_site_label
  _atom_site_symmetry_multiplicity
  _atom_site_fract_x
  _atom_site_fract_y
  _atom_site_fract_z
  _atom_site_occupancy
  F   F1        1.0  0.89000  0.39000  0.21000  1.0000
  F   F2        1.0  0.11000  0.61000  0.21000  1.0000
  F   F3        1.0  0.66600  0.16600  0.22200  1.0000
  F   F4        1.0  0.33400  0.83400  0.22200  1.0000
  F   F5        1.0  0.16600  0.33400  0.77800  1.0000
  F   F6        1.0  0.83400  0.66600  0.77800  1.0000
  F   F7        1.0  0.39000  0.11000  0.79000  1.0000
  F   F8        1.0  0.61000  0.89000  0.79000  1.0000
  H   H1        1.0  0.96000  0.28500  0.26300  1.0000
  H   H2        1.0  0.78500  0.46000  0.26300  1.0000
  H   H3        1.0  0.21500  0.54000  0.26300  1.0000
  H   H4        1.0  0.03970  0.71500  0.26300  1.0000
  H   H5        1.0  0.74300  0.06900  0.28700  1.0000
  H   H6        1.0  0.56900  0.24300  0.28700  1.0000
  H   H7        1.0  0.43100  0.75700  0.28700  1.0000
  H   H8        1.0  0.25700  0.93100  0.28700  1.0000
  H   H9        1.0  0.06900  0.25700  0.71300  1.0000
  H   H10       1.0  0.24300  0.43100  0.71300  1.0000
  H   H11       1.0  0.75700  0.56900  0.71300  1.0000
  H   H12       1.0  0.93100  0.74300  0.71300  1.0000
  H   H13       1.0  0.28500  0.03970  0.73700  1.0000
  H   H14       1.0  0.46000  0.21500  0.73700  1.0000
  H   H15       1.0  0.54000  0.78500  0.73700  1.0000
  H   H16       1.0  0.71500  0.96000  0.73700  1.0000
  O   O1        1.0  0.00818  0.21400  0.31200  1.0000
  O   O2        1.0  0.28600  0.49200  0.31200  1.0000
  O   O3        1.0  0.71400  0.50800  0.31200  1.0000
  O   O4        1.0  0.99200  0.78600  0.31200  1.0000
  O   O5        1.0  0.21000  0.00101  0.35000  1.0000
  O   O6        1.0  0.49900  0.29000  0.35000  1.0000
  O   O7        1.0  0.50100  0.71000  0.35000  1.0000
  O   O8        1.0  0.79000  0.99900  0.35000  1.0000
  O   O9        1.0  0.99900  0.21000  0.65000  1.0000
  O   O10       1.0  0.71000  0.49900  0.65000  1.0000
  O   O11       1.0  0.29000  0.50100  0.65000  1.0000
  O   O12       1.0  0.00101  0.79000  0.65000  1.0000
  O   O13       1.0  0.78600  0.00818  0.68800  1.0000
  O   O14       1.0  0.50800  0.28600  0.68800  1.0000
  O   O15       1.0  0.49200  0.71400  0.68800  1.0000
  O   O16       1.0  0.21400  0.99200  0.68800  1.0000
  Rb  Rb1       1.0  0.00000  0.00000  0.00000  1.0000
  Rb  Rb2       1.0  0.50000  0.50000  0.00000  1.0000
  Rb  Rb3       1.0  0.26400  0.23600  0.26400  1.0000
  Rb  Rb4       1.0  0.73600  0.76400  0.26400  1.0000
  Rb  Rb5       1.0  0.50000  0.00000  0.27800  1.0000
  Rb  Rb6       1.0  0.00000  0.50000  0.72200  1.0000
  Rb  Rb7       1.0  0.76400  0.26400  0.73700  1.0000
  Rb  Rb8       1.0  0.23600  0.73600  0.73700  1.0000
