data_image0
_chemical_formula_structural       Ca4Cs8O28V8
_chemical_formula_sum              "Ca4 Cs8 O28 V8"
_cell_length_a       13.9428
_cell_length_b       6.06459
_cell_length_c       10.534
_cell_angle_alpha    90
_cell_angle_beta     104.662
_cell_angle_gamma    90

_space_group_name_H-M_alt    "P 1"
_space_group_IT_number       1

loop_
  _space_group_symop_operation_xyz
  'x, y, z'

loop_
  _atom_site_type_symbol
  _atom_site_label
  _atom_site_symmetry_multiplicity
  _atom_site_fract_x
  _atom_site_fract_y
  _atom_site_fract_z
  _atom_site_occupancy
  Ca  Ca1       1.0  0.48500  0.74000  0.24900  1.0000
  Ca  Ca2       1.0  0.01540  0.24000  0.25100  1.0000
  Ca  Ca3       1.0  0.98500  0.76000  0.74900  1.0000
  Ca  Ca4       1.0  0.51500  0.26000  0.75100  1.0000
  Cs  Cs1       1.0  0.65200  0.23200  0.13700  1.0000
  Cs  Cs2       1.0  0.17600  0.77800  0.13900  1.0000
  Cs  Cs3       1.0  0.32400  0.27800  0.36100  1.0000
  Cs  Cs4       1.0  0.84800  0.73200  0.36300  1.0000
  Cs  Cs5       1.0  0.15200  0.26800  0.63700  1.0000
  Cs  Cs6       1.0  0.67600  0.72200  0.63900  1.0000
  Cs  Cs7       1.0  0.82400  0.22200  0.86100  1.0000
  Cs  Cs8       1.0  0.34800  0.76800  0.86300  1.0000
  O   O1        1.0  0.75600  0.82300  0.06180  1.0000
  O   O2        1.0  0.56600  0.70800  0.08170  1.0000
  O   O3        1.0  0.12100  0.28600  0.11200  1.0000
  O   O4        1.0  0.36200  0.50600  0.11400  1.0000
  O   O5        1.0  0.89600  0.47000  0.12100  1.0000
  O   O6        1.0  0.95700  0.91900  0.13500  1.0000
  O   O7        1.0  0.41000  0.05270  0.13900  1.0000
  O   O8        1.0  0.08960  0.55300  0.36100  1.0000
  O   O9        1.0  0.54300  0.41900  0.36500  1.0000
  O   O10       1.0  0.60400  0.97000  0.37900  1.0000
  O   O11       1.0  0.13800  0.00565  0.38600  1.0000
  O   O12       1.0  0.37900  0.78600  0.38800  1.0000
  O   O13       1.0  0.93400  0.20800  0.41800  1.0000
  O   O14       1.0  0.74400  0.32300  0.43800  1.0000
  O   O15       1.0  0.25600  0.67700  0.56200  1.0000
  O   O16       1.0  0.06600  0.79200  0.58200  1.0000
  O   O17       1.0  0.62100  0.21400  0.61200  1.0000
  O   O18       1.0  0.86200  0.99400  0.61400  1.0000
  O   O19       1.0  0.39600  0.03000  0.62100  1.0000
  O   O20       1.0  0.45700  0.58100  0.63500  1.0000
  O   O21       1.0  0.91000  0.44700  0.63900  1.0000
  O   O22       1.0  0.59000  0.94700  0.86100  1.0000
  O   O23       1.0  0.04310  0.08120  0.86500  1.0000
  O   O24       1.0  0.10400  0.53000  0.87900  1.0000
  O   O25       1.0  0.63800  0.49400  0.88600  1.0000
  O   O26       1.0  0.87900  0.71400  0.88800  1.0000
  O   O27       1.0  0.43400  0.29200  0.91800  1.0000
  O   O28       1.0  0.24400  0.17700  0.93800  1.0000
  V   V1        1.0  0.36700  0.26300  0.03260  1.0000
  V   V2        1.0  0.87800  0.72600  0.04970  1.0000
  V   V3        1.0  0.62200  0.22600  0.45000  1.0000
  V   V4        1.0  0.13300  0.76300  0.46700  1.0000
  V   V5        1.0  0.86700  0.23700  0.53300  1.0000
  V   V6        1.0  0.37800  0.77400  0.55000  1.0000
  V   V7        1.0  0.12200  0.27400  0.95000  1.0000
  V   V8        1.0  0.63300  0.73700  0.96700  1.0000
