data_image0
_chemical_formula_structural       Ag2F12S32Sb2
_chemical_formula_sum              "Ag2 F12 S32 Sb2"
_cell_length_a       7.77467
_cell_length_b       9.4832
_cell_length_c       15.587
_cell_angle_alpha    101.235
_cell_angle_beta     90
_cell_angle_gamma    114.2

_space_group_name_H-M_alt    "P 1"
_space_group_IT_number       1

loop_
  _space_group_symop_operation_xyz
  'x, y, z'

loop_
  _atom_site_type_symbol
  _atom_site_label
  _atom_site_symmetry_multiplicity
  _atom_site_fract_x
  _atom_site_fract_y
  _atom_site_fract_z
  _atom_site_occupancy
  Ag  Ag1       1.0  0.83800  0.00000  0.25000  1.0000
  Ag  Ag2       1.0  0.16200  0.00000  0.75000  1.0000
  F   F1        1.0  0.24300  0.96400  0.02050  1.0000
  F   F2        1.0  0.57600  0.22300  0.03820  1.0000
  F   F3        1.0  0.54800  0.98500  0.11800  1.0000
  F   F4        1.0  0.56300  0.01530  0.38200  1.0000
  F   F5        1.0  0.35300  0.77700  0.46200  1.0000
  F   F6        1.0  0.27900  0.03600  0.48000  1.0000
  F   F7        1.0  0.72100  0.96400  0.52000  1.0000
  F   F8        1.0  0.64700  0.22300  0.53800  1.0000
  F   F9        1.0  0.43700  0.98500  0.61800  1.0000
  F   F10       1.0  0.45200  0.01530  0.88200  1.0000
  F   F11       1.0  0.42400  0.77700  0.96200  1.0000
  F   F12       1.0  0.75700  0.03600  0.98000  1.0000
  S   S1        1.0  0.70900  0.70400  0.05810  1.0000
  S   S2        1.0  0.91700  0.63000  0.07630  1.0000
  S   S3        1.0  0.47900  0.58700  0.12200  1.0000
  S   S4        1.0  0.07250  0.16800  0.14200  1.0000
  S   S5        1.0  0.96600  0.33600  0.16200  1.0000
  S   S6        1.0  0.11500  0.80400  0.17100  1.0000
  S   S7        1.0  0.33900  0.25800  0.21000  1.0000
  S   S8        1.0  0.50400  0.72800  0.24400  1.0000
  S   S9        1.0  0.77600  0.27200  0.25600  1.0000
  S   S10       1.0  0.08090  0.74200  0.29000  1.0000
  S   S11       1.0  0.31100  0.19600  0.32900  1.0000
  S   S12       1.0  0.63000  0.66400  0.33800  1.0000
  S   S13       1.0  0.90500  0.83200  0.35800  1.0000
  S   S14       1.0  0.89200  0.41300  0.37800  1.0000
  S   S15       1.0  0.28700  0.37000  0.42400  1.0000
  S   S16       1.0  0.00461  0.29600  0.44200  1.0000
  S   S17       1.0  0.99500  0.70400  0.55800  1.0000
  S   S18       1.0  0.71300  0.63000  0.57600  1.0000
  S   S19       1.0  0.10800  0.58700  0.62200  1.0000
  S   S20       1.0  0.09510  0.16800  0.64200  1.0000
  S   S21       1.0  0.37000  0.33600  0.66200  1.0000
  S   S22       1.0  0.68900  0.80400  0.67100  1.0000
  S   S23       1.0  0.91900  0.25800  0.71000  1.0000
  S   S24       1.0  0.22400  0.72800  0.74400  1.0000
  S   S25       1.0  0.49600  0.27200  0.75600  1.0000
  S   S26       1.0  0.66100  0.74200  0.79000  1.0000
  S   S27       1.0  0.88500  0.19600  0.82900  1.0000
  S   S28       1.0  0.03390  0.66400  0.83800  1.0000
  S   S29       1.0  0.92800  0.83200  0.85800  1.0000
  S   S30       1.0  0.52100  0.41300  0.87800  1.0000
  S   S31       1.0  0.08280  0.37000  0.92400  1.0000
  S   S32       1.0  0.29100  0.29600  0.94200  1.0000
  Sb  Sb1       1.0  0.50000  0.00000  0.00000  1.0000
  Sb  Sb2       1.0  0.50000  0.00000  0.50000  1.0000
