data_image0
_chemical_formula_structural       Co4Fe4O4Te4
_chemical_formula_sum              "Co4 Fe4 O4 Te4"
_cell_length_a       6.19863
_cell_length_b       3.48088
_cell_length_c       12.7742
_cell_angle_alpha    90
_cell_angle_beta     90
_cell_angle_gamma    90

_space_group_name_H-M_alt    "P 1"
_space_group_IT_number       1

loop_
  _space_group_symop_operation_xyz
  'x, y, z'

loop_
  _atom_site_type_symbol
  _atom_site_label
  _atom_site_symmetry_multiplicity
  _atom_site_fract_x
  _atom_site_fract_y
  _atom_site_fract_z
  _atom_site_occupancy
  Co  Co1       1.0  0.24700  0.75000  0.07190  1.0000
  Co  Co2       1.0  0.74700  0.75000  0.42800  1.0000
  Co  Co3       1.0  0.25300  0.25000  0.57200  1.0000
  Co  Co4       1.0  0.75300  0.25000  0.92800  1.0000
  Fe  Fe1       1.0  0.51300  0.25000  0.24900  1.0000
  Fe  Fe2       1.0  0.01320  0.25000  0.25100  1.0000
  Fe  Fe3       1.0  0.98700  0.75000  0.74900  1.0000
  Fe  Fe4       1.0  0.48700  0.75000  0.75100  1.0000
  O   O1        1.0  0.26100  0.25000  0.15800  1.0000
  O   O2        1.0  0.76100  0.25000  0.34200  1.0000
  O   O3        1.0  0.23900  0.75000  0.65800  1.0000
  O   O4        1.0  0.73900  0.75000  0.84200  1.0000
  Te  Te1       1.0  0.76000  0.75000  0.09670  1.0000
  Te  Te2       1.0  0.26000  0.75000  0.40300  1.0000
  Te  Te3       1.0  0.74000  0.25000  0.59700  1.0000
  Te  Te4       1.0  0.24000  0.25000  0.90300  1.0000
