data_image0
_chemical_formula_structural       Mo4Na8O32P4Y4
_chemical_formula_sum              "Mo4 Na8 O32 P4 Y4"
_cell_length_a       6.8286
_cell_length_b       11.2749
_cell_length_c       11.2749
_cell_angle_alpha    104.276
_cell_angle_beta     107.591
_cell_angle_gamma    107.591

_space_group_name_H-M_alt    "P 1"
_space_group_IT_number       1

loop_
  _space_group_symop_operation_xyz
  'x, y, z'

loop_
  _atom_site_type_symbol
  _atom_site_label
  _atom_site_symmetry_multiplicity
  _atom_site_fract_x
  _atom_site_fract_y
  _atom_site_fract_z
  _atom_site_occupancy
  Mo  Mo1       1.0  0.75000  0.93000  0.07030  1.0000
  Mo  Mo2       1.0  0.25000  0.57000  0.43000  1.0000
  Mo  Mo3       1.0  0.75000  0.43000  0.57000  1.0000
  Mo  Mo4       1.0  0.25000  0.07030  0.93000  1.0000
  Na  Na1       1.0  0.95600  0.28800  0.09330  1.0000
  Na  Na2       1.0  0.57400  0.40700  0.21200  1.0000
  Na  Na3       1.0  0.45600  0.09330  0.28800  1.0000
  Na  Na4       1.0  0.07410  0.21200  0.40700  1.0000
  Na  Na5       1.0  0.92600  0.78800  0.59300  1.0000
  Na  Na6       1.0  0.54400  0.90700  0.71200  1.0000
  Na  Na7       1.0  0.42600  0.59300  0.78800  1.0000
  Na  Na8       1.0  0.04400  0.71200  0.90700  1.0000
  O   O1        1.0  0.75600  0.42200  0.06190  1.0000
  O   O2        1.0  0.27100  0.43800  0.07760  1.0000
  O   O3        1.0  0.51200  0.85100  0.10400  1.0000
  O   O4        1.0  0.32900  0.13800  0.10500  1.0000
  O   O5        1.0  0.82900  0.10500  0.13800  1.0000
  O   O6        1.0  0.07370  0.65600  0.13900  1.0000
  O   O7        1.0  0.98800  0.89600  0.14900  1.0000
  O   O8        1.0  0.72200  0.63900  0.15600  1.0000
  O   O9        1.0  0.42600  0.86100  0.34400  1.0000
  O   O10       1.0  0.44300  0.60400  0.35000  1.0000
  O   O11       1.0  0.77800  0.84400  0.36100  1.0000
  O   O12       1.0  0.08660  0.39500  0.36200  1.0000
  O   O13       1.0  0.58700  0.36200  0.39500  1.0000
  O   O14       1.0  0.05700  0.65000  0.39600  1.0000
  O   O15       1.0  0.25600  0.06190  0.42200  1.0000
  O   O16       1.0  0.77100  0.07760  0.43800  1.0000
  O   O17       1.0  0.22900  0.92200  0.56200  1.0000
  O   O18       1.0  0.74400  0.93800  0.57800  1.0000
  O   O19       1.0  0.94300  0.35000  0.60400  1.0000
  O   O20       1.0  0.41300  0.63800  0.60500  1.0000
  O   O21       1.0  0.91300  0.60500  0.63800  1.0000
  O   O22       1.0  0.22200  0.15600  0.63900  1.0000
  O   O23       1.0  0.55700  0.39600  0.65000  1.0000
  O   O24       1.0  0.57400  0.13900  0.65600  1.0000
  O   O25       1.0  0.27800  0.36100  0.84400  1.0000
  O   O26       1.0  0.01170  0.10400  0.85100  1.0000
  O   O27       1.0  0.92600  0.34400  0.86100  1.0000
  O   O28       1.0  0.17100  0.89500  0.86200  1.0000
  O   O29       1.0  0.67100  0.86200  0.89500  1.0000
  O   O30       1.0  0.48800  0.14900  0.89600  1.0000
  O   O31       1.0  0.72900  0.56200  0.92200  1.0000
  O   O32       1.0  0.24400  0.57800  0.93800  1.0000
  P   P1        1.0  0.81800  0.56700  0.06750  1.0000
  P   P2        1.0  0.68200  0.93200  0.43300  1.0000
  P   P3        1.0  0.31800  0.06750  0.56700  1.0000
  P   P4        1.0  0.18200  0.43300  0.93200  1.0000
  Y   Y1        1.0  0.42900  0.67900  0.17900  1.0000
  Y   Y2        1.0  0.07060  0.82100  0.32100  1.0000
  Y   Y3        1.0  0.92900  0.17900  0.67900  1.0000
  Y   Y4        1.0  0.57100  0.32100  0.82100  1.0000
