data_image0
_chemical_formula_structural       Fe6H16O24P4
_chemical_formula_sum              "Fe6 H16 O24 P4"
_cell_length_a       10.5086
_cell_length_b       4.61791
_cell_length_c       9.14231
_cell_angle_alpha    90
_cell_angle_beta     101.387
_cell_angle_gamma    90

_space_group_name_H-M_alt    "P 1"
_space_group_IT_number       1

loop_
  _space_group_symop_operation_xyz
  'x, y, z'

loop_
  _atom_site_type_symbol
  _atom_site_label
  _atom_site_symmetry_multiplicity
  _atom_site_fract_x
  _atom_site_fract_y
  _atom_site_fract_z
  _atom_site_occupancy
  Fe  Fe1       1.0  0.00000  0.00000  0.00000  1.0000
  Fe  Fe2       1.0  0.50000  0.50000  0.00000  1.0000
  Fe  Fe3       1.0  0.67500  0.42500  0.33400  1.0000
  Fe  Fe4       1.0  0.17500  0.07480  0.33400  1.0000
  Fe  Fe5       1.0  0.32500  0.57500  0.66600  1.0000
  Fe  Fe6       1.0  0.82500  0.92500  0.66600  1.0000
  H   H1        1.0  0.14600  0.44200  0.05820  1.0000
  H   H2        1.0  0.64600  0.05780  0.05820  1.0000
  H   H3        1.0  0.26400  0.21400  0.09170  1.0000
  H   H4        1.0  0.76400  0.28600  0.09170  1.0000
  H   H5        1.0  0.82800  0.93800  0.38200  1.0000
  H   H6        1.0  0.32800  0.56200  0.38200  1.0000
  H   H7        1.0  0.41000  0.28400  0.44500  1.0000
  H   H8        1.0  0.91000  0.21600  0.44500  1.0000
  H   H9        1.0  0.08950  0.78400  0.55500  1.0000
  H   H10       1.0  0.59000  0.71600  0.55500  1.0000
  H   H11       1.0  0.17200  0.06200  0.61800  1.0000
  H   H12       1.0  0.67200  0.43800  0.61800  1.0000
  H   H13       1.0  0.23600  0.71400  0.90800  1.0000
  H   H14       1.0  0.73600  0.78600  0.90800  1.0000
  H   H15       1.0  0.35400  0.94200  0.94200  1.0000
  H   H16       1.0  0.85400  0.55800  0.94200  1.0000
  O   O1        1.0  0.90500  0.34100  0.09850  1.0000
  O   O2        1.0  0.40500  0.15900  0.09850  1.0000
  O   O3        1.0  0.66900  0.25300  0.10100  1.0000
  O   O4        1.0  0.16900  0.24700  0.10100  1.0000
  O   O5        1.0  0.03680  0.78500  0.20000  1.0000
  O   O6        1.0  0.53700  0.71500  0.20000  1.0000
  O   O7        1.0  0.32900  0.84200  0.28700  1.0000
  O   O8        1.0  0.82900  0.65800  0.28700  1.0000
  O   O9        1.0  0.03190  0.35100  0.36700  1.0000
  O   O10       1.0  0.53200  0.14900  0.36700  1.0000
  O   O11       1.0  0.32700  0.38700  0.45000  1.0000
  O   O12       1.0  0.82700  0.11300  0.45000  1.0000
  O   O13       1.0  0.17300  0.88700  0.55000  1.0000
  O   O14       1.0  0.67300  0.61300  0.55000  1.0000
  O   O15       1.0  0.46800  0.85100  0.63300  1.0000
  O   O16       1.0  0.96800  0.64900  0.63300  1.0000
  O   O17       1.0  0.17100  0.34200  0.71300  1.0000
  O   O18       1.0  0.67100  0.15800  0.71300  1.0000
  O   O19       1.0  0.46300  0.28500  0.80000  1.0000
  O   O20       1.0  0.96300  0.21500  0.80000  1.0000
  O   O21       1.0  0.83100  0.75300  0.89900  1.0000
  O   O22       1.0  0.33100  0.74700  0.89900  1.0000
  O   O23       1.0  0.59500  0.84100  0.90200  1.0000
  O   O24       1.0  0.09470  0.65900  0.90200  1.0000
  P   P1        1.0  0.95200  0.53400  0.24000  1.0000
  P   P2        1.0  0.45200  0.96600  0.24000  1.0000
  P   P3        1.0  0.54800  0.03420  0.76000  1.0000
  P   P4        1.0  0.04800  0.46600  0.76000  1.0000
