data_image0
_chemical_formula_structural       Al24Ce12Pt16
_chemical_formula_sum              "Al24 Ce12 Pt16"
_cell_length_a       13.7662
_cell_length_b       4.38118
_cell_length_c       17.6629
_cell_angle_alpha    90
_cell_angle_beta     90
_cell_angle_gamma    90

_space_group_name_H-M_alt    "P 1"
_space_group_IT_number       1

loop_
  _space_group_symop_operation_xyz
  'x, y, z'

loop_
  _atom_site_type_symbol
  _atom_site_label
  _atom_site_symmetry_multiplicity
  _atom_site_fract_x
  _atom_site_fract_y
  _atom_site_fract_z
  _atom_site_occupancy
  Al  Al1       1.0  0.05600  0.25000  0.04380  1.0000
  Al  Al2       1.0  0.47300  0.75000  0.06680  1.0000
  Al  Al3       1.0  0.75100  0.25000  0.10300  1.0000
  Al  Al4       1.0  0.17300  0.75000  0.13000  1.0000
  Al  Al5       1.0  0.46100  0.25000  0.19300  1.0000
  Al  Al6       1.0  0.27300  0.25000  0.22600  1.0000
  Al  Al7       1.0  0.77300  0.25000  0.27400  1.0000
  Al  Al8       1.0  0.96100  0.25000  0.30700  1.0000
  Al  Al9       1.0  0.67300  0.75000  0.37000  1.0000
  Al  Al10      1.0  0.25100  0.25000  0.39700  1.0000
  Al  Al11      1.0  0.97300  0.75000  0.43300  1.0000
  Al  Al12      1.0  0.55600  0.25000  0.45600  1.0000
  Al  Al13      1.0  0.44400  0.75000  0.54400  1.0000
  Al  Al14      1.0  0.02700  0.25000  0.56700  1.0000
  Al  Al15      1.0  0.74900  0.75000  0.60300  1.0000
  Al  Al16      1.0  0.32700  0.25000  0.63000  1.0000
  Al  Al17      1.0  0.03950  0.75000  0.69300  1.0000
  Al  Al18      1.0  0.22700  0.75000  0.72600  1.0000
  Al  Al19      1.0  0.72700  0.75000  0.77400  1.0000
  Al  Al20      1.0  0.53900  0.75000  0.80700  1.0000
  Al  Al21      1.0  0.82700  0.25000  0.87000  1.0000
  Al  Al22      1.0  0.24900  0.75000  0.89700  1.0000
  Al  Al23      1.0  0.52700  0.25000  0.93300  1.0000
  Al  Al24      1.0  0.94400  0.75000  0.95600  1.0000
  Ce  Ce1       1.0  0.30200  0.25000  0.03200  1.0000
  Ce  Ce2       1.0  0.92500  0.75000  0.15200  1.0000
  Ce  Ce3       1.0  0.63300  0.75000  0.19400  1.0000
  Ce  Ce4       1.0  0.13300  0.75000  0.30600  1.0000
  Ce  Ce5       1.0  0.42500  0.75000  0.34800  1.0000
  Ce  Ce6       1.0  0.80200  0.25000  0.46800  1.0000
  Ce  Ce7       1.0  0.19800  0.75000  0.53200  1.0000
  Ce  Ce8       1.0  0.57500  0.25000  0.65200  1.0000
  Ce  Ce9       1.0  0.86700  0.25000  0.69400  1.0000
  Ce  Ce10      1.0  0.36700  0.25000  0.80600  1.0000
  Ce  Ce11      1.0  0.07550  0.25000  0.84800  1.0000
  Ce  Ce12      1.0  0.69800  0.75000  0.96800  1.0000
  Pt  Pt1       1.0  0.87800  0.25000  0.00711  1.0000
  Pt  Pt2       1.0  0.57100  0.25000  0.07190  1.0000
  Pt  Pt3       1.0  0.35200  0.75000  0.17700  1.0000
  Pt  Pt4       1.0  0.09060  0.25000  0.18500  1.0000
  Pt  Pt5       1.0  0.59100  0.25000  0.31500  1.0000
  Pt  Pt6       1.0  0.85200  0.75000  0.32300  1.0000
  Pt  Pt7       1.0  0.07060  0.25000  0.42800  1.0000
  Pt  Pt8       1.0  0.37800  0.25000  0.49300  1.0000
  Pt  Pt9       1.0  0.62200  0.75000  0.50700  1.0000
  Pt  Pt10      1.0  0.92900  0.75000  0.57200  1.0000
  Pt  Pt11      1.0  0.14800  0.25000  0.67700  1.0000
  Pt  Pt12      1.0  0.40900  0.75000  0.68500  1.0000
  Pt  Pt13      1.0  0.90900  0.75000  0.81500  1.0000
  Pt  Pt14      1.0  0.64800  0.25000  0.82300  1.0000
  Pt  Pt15      1.0  0.42900  0.75000  0.92800  1.0000
  Pt  Pt16      1.0  0.12200  0.75000  0.99300  1.0000
