data_image0
_chemical_formula_structural       F40I4Sb4
_chemical_formula_sum              "F40 I4 Sb4"
_cell_length_a       11.2548
_cell_length_b       7.92829
_cell_length_c       7.97991
_cell_angle_alpha    89.9976
_cell_angle_beta     110.764
_cell_angle_gamma    110.623

_space_group_name_H-M_alt    "P 1"
_space_group_IT_number       1

loop_
  _space_group_symop_operation_xyz
  'x, y, z'

loop_
  _atom_site_type_symbol
  _atom_site_label
  _atom_site_symmetry_multiplicity
  _atom_site_fract_x
  _atom_site_fract_y
  _atom_site_fract_z
  _atom_site_occupancy
  F   F1        1.0  0.16300  0.13000  0.06620  1.0000
  F   F2        1.0  0.63700  0.81800  0.06840  1.0000
  F   F3        1.0  0.42100  0.84100  0.08330  1.0000
  F   F4        1.0  0.35300  0.51600  0.09230  1.0000
  F   F5        1.0  0.16300  0.63000  0.09720  1.0000
  F   F6        1.0  0.83500  0.15400  0.12100  1.0000
  F   F7        1.0  0.57900  0.41900  0.16200  1.0000
  F   F8        1.0  0.83500  0.68100  0.21500  1.0000
  F   F9        1.0  0.97800  0.48900  0.23900  1.0000
  F   F10       1.0  0.64800  0.16400  0.24000  1.0000
  F   F11       1.0  0.35200  0.01600  0.26000  1.0000
  F   F12       1.0  0.02180  0.01090  0.26100  1.0000
  F   F13       1.0  0.16500  0.34600  0.28500  1.0000
  F   F14       1.0  0.42100  0.34100  0.33800  1.0000
  F   F15       1.0  0.16500  0.81900  0.37900  1.0000
  F   F16       1.0  0.83700  0.96700  0.40300  1.0000
  F   F17       1.0  0.64800  0.66400  0.40800  1.0000
  F   F18       1.0  0.57900  0.91900  0.41700  1.0000
  F   F19       1.0  0.36300  0.68200  0.43200  1.0000
  F   F20       1.0  0.83700  0.46700  0.43400  1.0000
  F   F21       1.0  0.16300  0.53300  0.56600  1.0000
  F   F22       1.0  0.63700  0.31800  0.56800  1.0000
  F   F23       1.0  0.42100  0.08070  0.58300  1.0000
  F   F24       1.0  0.35200  0.33600  0.59200  1.0000
  F   F25       1.0  0.16300  0.03340  0.59700  1.0000
  F   F26       1.0  0.83500  0.18100  0.62100  1.0000
  F   F27       1.0  0.57900  0.65900  0.66200  1.0000
  F   F28       1.0  0.83500  0.65400  0.71500  1.0000
  F   F29       1.0  0.97800  0.98900  0.73900  1.0000
  F   F30       1.0  0.64800  0.98400  0.74000  1.0000
  F   F31       1.0  0.35200  0.83600  0.76000  1.0000
  F   F32       1.0  0.02180  0.51100  0.76100  1.0000
  F   F33       1.0  0.16500  0.31900  0.78500  1.0000
  F   F34       1.0  0.42100  0.58100  0.83800  1.0000
  F   F35       1.0  0.16500  0.84600  0.87900  1.0000
  F   F36       1.0  0.83700  0.37000  0.90300  1.0000
  F   F37       1.0  0.64700  0.48400  0.90800  1.0000
  F   F38       1.0  0.57900  0.15900  0.91700  1.0000
  F   F39       1.0  0.36300  0.18200  0.93200  1.0000
  F   F40       1.0  0.83700  0.87000  0.93400  1.0000
  I   I1        1.0  0.69800  0.34900  0.09920  1.0000
  I   I2        1.0  0.30100  0.15100  0.40100  1.0000
  I   I3        1.0  0.69900  0.84900  0.59900  1.0000
  I   I4        1.0  0.30200  0.65100  0.90100  1.0000
  Sb  Sb1       1.0  0.82900  0.91400  0.16400  1.0000
  Sb  Sb2       1.0  0.17100  0.58600  0.33600  1.0000
  Sb  Sb3       1.0  0.82900  0.41400  0.66400  1.0000
  Sb  Sb4       1.0  0.17100  0.08560  0.83600  1.0000
