data_image0
_chemical_formula_structural       Ge2H4O8Tm2
_chemical_formula_sum              "Ge2 H4 O8 Tm2"
_cell_length_a       6.78473
_cell_length_b       6.13942
_cell_length_c       4.93062
_cell_angle_alpha    90
_cell_angle_beta     121.903
_cell_angle_gamma    90

_space_group_name_H-M_alt    "P 1"
_space_group_IT_number       1

loop_
  _space_group_symop_operation_xyz
  'x, y, z'

loop_
  _atom_site_type_symbol
  _atom_site_label
  _atom_site_symmetry_multiplicity
  _atom_site_fract_x
  _atom_site_fract_y
  _atom_site_fract_z
  _atom_site_occupancy
  Ge  Ge1       1.0  0.70400  0.25000  0.40700  1.0000
  Ge  Ge2       1.0  0.29600  0.75000  0.59300  1.0000
  H   H1        1.0  0.52600  0.75000  0.18600  1.0000
  H   H2        1.0  0.00000  0.00000  0.50000  1.0000
  H   H3        1.0  0.00000  0.50000  0.50000  1.0000
  H   H4        1.0  0.47400  0.25000  0.81400  1.0000
  O   O1        1.0  0.57500  0.75000  0.01870  1.0000
  O   O2        1.0  0.06400  0.52300  0.31500  1.0000
  O   O3        1.0  0.06400  0.97700  0.31500  1.0000
  O   O4        1.0  0.48400  0.75000  0.44400  1.0000
  O   O5        1.0  0.51600  0.25000  0.55600  1.0000
  O   O6        1.0  0.93600  0.02320  0.68500  1.0000
  O   O7        1.0  0.93600  0.47700  0.68500  1.0000
  O   O8        1.0  0.42500  0.25000  0.98100  1.0000
  Tm  Tm1       1.0  0.17000  0.25000  0.12100  1.0000
  Tm  Tm2       1.0  0.83000  0.75000  0.87900  1.0000
