data_image0
_chemical_formula_structural       O32P8Rb8V4
_chemical_formula_sum              "O32 P8 Rb8 V4"
_cell_length_a       7.04996
_cell_length_b       9.13091
_cell_length_c       12.551
_cell_angle_alpha    90
_cell_angle_beta     90
_cell_angle_gamma    90

_space_group_name_H-M_alt    "P 1"
_space_group_IT_number       1

loop_
  _space_group_symop_operation_xyz
  'x, y, z'

loop_
  _atom_site_type_symbol
  _atom_site_label
  _atom_site_symmetry_multiplicity
  _atom_site_fract_x
  _atom_site_fract_y
  _atom_site_fract_z
  _atom_site_occupancy
  O   O1        1.0  0.44200  0.05990  0.03580  1.0000
  O   O2        1.0  0.97600  0.07500  0.06290  1.0000
  O   O3        1.0  0.32900  0.69200  0.07330  1.0000
  O   O4        1.0  0.69500  0.93000  0.14600  1.0000
  O   O5        1.0  0.00826  0.83900  0.17700  1.0000
  O   O6        1.0  0.55100  0.17200  0.20800  1.0000
  O   O7        1.0  0.36500  0.93900  0.21600  1.0000
  O   O8        1.0  0.08520  0.57500  0.23600  1.0000
  O   O9        1.0  0.91500  0.07500  0.26400  1.0000
  O   O10       1.0  0.63500  0.43900  0.28400  1.0000
  O   O11       1.0  0.44900  0.67200  0.29200  1.0000
  O   O12       1.0  0.99200  0.33900  0.32300  1.0000
  O   O13       1.0  0.30500  0.43000  0.35400  1.0000
  O   O14       1.0  0.67100  0.19200  0.42700  1.0000
  O   O15       1.0  0.02370  0.57500  0.43700  1.0000
  O   O16       1.0  0.55800  0.56000  0.46400  1.0000
  O   O17       1.0  0.05820  0.94000  0.53600  1.0000
  O   O18       1.0  0.52400  0.92500  0.56300  1.0000
  O   O19       1.0  0.17100  0.30800  0.57300  1.0000
  O   O20       1.0  0.80500  0.06950  0.64600  1.0000
  O   O21       1.0  0.49200  0.16100  0.67700  1.0000
  O   O22       1.0  0.94900  0.82800  0.70800  1.0000
  O   O23       1.0  0.13500  0.06080  0.71600  1.0000
  O   O24       1.0  0.41500  0.42500  0.73600  1.0000
  O   O25       1.0  0.58500  0.92500  0.76400  1.0000
  O   O26       1.0  0.86500  0.56100  0.78400  1.0000
  O   O27       1.0  0.05090  0.32800  0.79200  1.0000
  O   O28       1.0  0.50800  0.66100  0.82300  1.0000
  O   O29       1.0  0.19500  0.57000  0.85400  1.0000
  O   O30       1.0  0.82900  0.80800  0.92700  1.0000
  O   O31       1.0  0.47600  0.42500  0.93700  1.0000
  O   O32       1.0  0.94200  0.44000  0.96400  1.0000
  P   P1        1.0  0.50400  0.02870  0.14800  1.0000
  P   P2        1.0  0.91500  0.98900  0.15800  1.0000
  P   P3        1.0  0.08540  0.48900  0.34200  1.0000
  P   P4        1.0  0.49600  0.52900  0.35200  1.0000
  P   P5        1.0  0.99600  0.97100  0.64800  1.0000
  P   P6        1.0  0.58500  0.01140  0.65800  1.0000
  P   P7        1.0  0.41500  0.51100  0.84200  1.0000
  P   P8        1.0  0.00376  0.47100  0.85200  1.0000
  Rb  Rb1       1.0  0.72400  0.60900  0.09470  1.0000
  Rb  Rb2       1.0  0.22500  0.32600  0.09660  1.0000
  Rb  Rb3       1.0  0.77500  0.82600  0.40300  1.0000
  Rb  Rb4       1.0  0.27600  0.10900  0.40500  1.0000
  Rb  Rb5       1.0  0.77600  0.39100  0.59500  1.0000
  Rb  Rb6       1.0  0.27500  0.67400  0.59700  1.0000
  Rb  Rb7       1.0  0.72500  0.17400  0.90300  1.0000
  Rb  Rb8       1.0  0.22400  0.89100  0.90500  1.0000
  V   V1        1.0  0.25300  0.74100  0.19100  1.0000
  V   V2        1.0  0.74700  0.24100  0.30900  1.0000
  V   V3        1.0  0.24700  0.25900  0.69100  1.0000
  V   V4        1.0  0.75300  0.75900  0.80900  1.0000
