data_image0
_chemical_formula_structural       Cu4O4Pt4Te4
_chemical_formula_sum              "Cu4 O4 Pt4 Te4"
_cell_length_a       4.95164
_cell_length_b       7.00159
_cell_length_c       7.99939
_cell_angle_alpha    90
_cell_angle_beta     90
_cell_angle_gamma    90

_space_group_name_H-M_alt    "P 1"
_space_group_IT_number       1

loop_
  _space_group_symop_operation_xyz
  'x, y, z'

loop_
  _atom_site_type_symbol
  _atom_site_label
  _atom_site_symmetry_multiplicity
  _atom_site_fract_x
  _atom_site_fract_y
  _atom_site_fract_z
  _atom_site_occupancy
  Cu  Cu1       1.0  0.46200  0.37000  0.20000  1.0000
  Cu  Cu2       1.0  0.53800  0.87000  0.30000  1.0000
  Cu  Cu3       1.0  0.03800  0.63000  0.70000  1.0000
  Cu  Cu4       1.0  0.96200  0.13000  0.80000  1.0000
  O   O1        1.0  0.41200  0.93300  0.07430  1.0000
  O   O2        1.0  0.58800  0.43300  0.42600  1.0000
  O   O3        1.0  0.08790  0.06690  0.57400  1.0000
  O   O4        1.0  0.91200  0.56700  0.92600  1.0000
  Pt  Pt1       1.0  0.97000  0.30300  0.07990  1.0000
  Pt  Pt2       1.0  0.03000  0.80300  0.42000  1.0000
  Pt  Pt3       1.0  0.53000  0.69700  0.58000  1.0000
  Pt  Pt4       1.0  0.47000  0.19700  0.92000  1.0000
  Te  Te1       1.0  0.00765  0.94300  0.11500  1.0000
  Te  Te2       1.0  0.99200  0.44300  0.38500  1.0000
  Te  Te3       1.0  0.49200  0.05710  0.61500  1.0000
  Te  Te4       1.0  0.50800  0.55700  0.88500  1.0000
