data_image0
_chemical_formula_structural       O34P12Sr4
_chemical_formula_sum              "O34 P12 Sr4"
_cell_length_a       7.07348
_cell_length_b       7.08056
_cell_length_c       13.0036
_cell_angle_alpha    90
_cell_angle_beta     90
_cell_angle_gamma    105.401

_space_group_name_H-M_alt    "P 1"
_space_group_IT_number       1

loop_
  _space_group_symop_operation_xyz
  'x, y, z'

loop_
  _atom_site_type_symbol
  _atom_site_label
  _atom_site_symmetry_multiplicity
  _atom_site_fract_x
  _atom_site_fract_y
  _atom_site_fract_z
  _atom_site_occupancy
  O   O1        1.0  0.52800  0.41200  0.02380  1.0000
  O   O2        1.0  0.81700  0.09800  0.02620  1.0000
  O   O3        1.0  0.88400  0.60400  0.03980  1.0000
  O   O4        1.0  0.64000  0.70600  0.14500  1.0000
  O   O5        1.0  0.06030  0.94500  0.16100  1.0000
  O   O6        1.0  0.43200  0.06680  0.18400  1.0000
  O   O7        1.0  0.13500  0.34400  0.19200  1.0000
  O   O8        1.0  0.25900  0.71500  0.20700  1.0000
  O   O9        1.0  0.77100  0.44800  0.24100  1.0000
  O   O10       1.0  0.44700  0.50300  0.28900  1.0000
  O   O11       1.0  0.75400  0.78100  0.32100  1.0000
  O   O12       1.0  0.19700  0.96100  0.33900  1.0000
  O   O13       1.0  0.13500  0.53000  0.36400  1.0000
  O   O14       1.0  0.91700  0.18500  0.40200  1.0000
  O   O15       1.0  0.52000  0.97000  0.42800  1.0000
  O   O16       1.0  0.35900  0.23900  0.45500  1.0000
  O   O17       1.0  0.82700  0.49600  0.47200  1.0000
  O   O18       1.0  0.47200  0.58800  0.52400  1.0000
  O   O19       1.0  0.18300  0.90200  0.52600  1.0000
  O   O20       1.0  0.11600  0.39600  0.54000  1.0000
  O   O21       1.0  0.36000  0.29400  0.64500  1.0000
  O   O22       1.0  0.94000  0.05490  0.66100  1.0000
  O   O23       1.0  0.56800  0.93300  0.68400  1.0000
  O   O24       1.0  0.86500  0.65600  0.69200  1.0000
  O   O25       1.0  0.74100  0.28500  0.70700  1.0000
  O   O26       1.0  0.22900  0.55200  0.74100  1.0000
  O   O27       1.0  0.55300  0.49700  0.78900  1.0000
  O   O28       1.0  0.24600  0.21900  0.82100  1.0000
  O   O29       1.0  0.80300  0.03870  0.83900  1.0000
  O   O30       1.0  0.86500  0.47000  0.86400  1.0000
  O   O31       1.0  0.08280  0.81500  0.90200  1.0000
  O   O32       1.0  0.48000  0.03040  0.92800  1.0000
  O   O33       1.0  0.64100  0.76100  0.95500  1.0000
  O   O34       1.0  0.17300  0.50400  0.97200  1.0000
  P   P1        1.0  0.66200  0.60700  0.03810  1.0000
  P   P2        1.0  0.24000  0.93800  0.21900  1.0000
  P   P3        1.0  0.67200  0.60500  0.25600  1.0000
  P   P4        1.0  0.23400  0.51100  0.25800  1.0000
  P   P5        1.0  0.97300  0.39000  0.44200  1.0000
  P   P6        1.0  0.32300  0.00032  0.44400  1.0000
  P   P7        1.0  0.33800  0.39300  0.53800  1.0000
  P   P8        1.0  0.76000  0.06230  0.71900  1.0000
  P   P9        1.0  0.32800  0.39500  0.75600  1.0000
  P   P10       1.0  0.76600  0.48900  0.75800  1.0000
  P   P11       1.0  0.02720  0.61000  0.94200  1.0000
  P   P12       1.0  0.67700  0.00000  0.94400  1.0000
  Sr  Sr1       1.0  0.21100  0.16800  0.00901  1.0000
  Sr  Sr2       1.0  0.78600  0.10400  0.22200  1.0000
  Sr  Sr3       1.0  0.78900  0.83200  0.50900  1.0000
  Sr  Sr4       1.0  0.21400  0.89600  0.72200  1.0000
