data_image0
_chemical_formula_structural       Be4O4Sn4Te4
_chemical_formula_sum              "Be4 O4 Sn4 Te4"
_cell_length_a       7.76873
_cell_length_b       8.06193
_cell_length_c       6.33684
_cell_angle_alpha    90
_cell_angle_beta     90
_cell_angle_gamma    90

_space_group_name_H-M_alt    "P 1"
_space_group_IT_number       1

loop_
  _space_group_symop_operation_xyz
  'x, y, z'

loop_
  _atom_site_type_symbol
  _atom_site_label
  _atom_site_symmetry_multiplicity
  _atom_site_fract_x
  _atom_site_fract_y
  _atom_site_fract_z
  _atom_site_occupancy
  Be  Be1       1.0  0.55900  0.30700  0.03800  1.0000
  Be  Be2       1.0  0.44100  0.80700  0.46200  1.0000
  Be  Be3       1.0  0.94100  0.69300  0.53800  1.0000
  Be  Be4       1.0  0.05880  0.19300  0.96200  1.0000
  O   O1        1.0  0.57400  0.21700  0.22800  1.0000
  O   O2        1.0  0.42600  0.71700  0.27200  1.0000
  O   O3        1.0  0.92600  0.78300  0.72800  1.0000
  O   O4        1.0  0.07420  0.28300  0.77200  1.0000
  Sn  Sn1       1.0  0.25500  0.71900  0.02000  1.0000
  Sn  Sn2       1.0  0.74500  0.21900  0.48000  1.0000
  Sn  Sn3       1.0  0.24500  0.28100  0.52000  1.0000
  Sn  Sn4       1.0  0.75500  0.78100  0.98000  1.0000
  Te  Te1       1.0  0.04290  0.00885  0.23800  1.0000
  Te  Te2       1.0  0.95700  0.50900  0.26200  1.0000
  Te  Te3       1.0  0.45700  0.99100  0.73800  1.0000
  Te  Te4       1.0  0.54300  0.49100  0.76200  1.0000
