data_image0
_chemical_formula_structural       H12Ni4O28S4Y4
_chemical_formula_sum              "H12 Ni4 O28 S4 Y4"
_cell_length_a       6.91207
_cell_length_b       7.16283
_cell_length_c       10.189
_cell_angle_alpha    90
_cell_angle_beta     90
_cell_angle_gamma    90

_space_group_name_H-M_alt    "P 1"
_space_group_IT_number       1

loop_
  _space_group_symop_operation_xyz
  'x, y, z'

loop_
  _atom_site_type_symbol
  _atom_site_label
  _atom_site_symmetry_multiplicity
  _atom_site_fract_x
  _atom_site_fract_y
  _atom_site_fract_z
  _atom_site_occupancy
  H   H1        1.0  0.73300  0.25000  0.07580  1.0000
  H   H2        1.0  0.52600  0.05370  0.24000  1.0000
  H   H3        1.0  0.52600  0.44600  0.24000  1.0000
  H   H4        1.0  0.02620  0.05370  0.26000  1.0000
  H   H5        1.0  0.02620  0.44600  0.26000  1.0000
  H   H6        1.0  0.23300  0.25000  0.42400  1.0000
  H   H7        1.0  0.76700  0.75000  0.57600  1.0000
  H   H8        1.0  0.97400  0.55400  0.74000  1.0000
  H   H9        1.0  0.97400  0.94600  0.74000  1.0000
  H   H10       1.0  0.47400  0.55400  0.76000  1.0000
  H   H11       1.0  0.47400  0.94600  0.76000  1.0000
  H   H12       1.0  0.26700  0.75000  0.92400  1.0000
  Ni  Ni1       1.0  0.50000  0.00000  0.00000  1.0000
  Ni  Ni2       1.0  0.50000  0.50000  0.00000  1.0000
  Ni  Ni3       1.0  0.00000  0.00000  0.50000  1.0000
  Ni  Ni4       1.0  0.00000  0.50000  0.50000  1.0000
  O   O1        1.0  0.62500  0.25000  0.01190  1.0000
  O   O2        1.0  0.23600  0.07970  0.07700  1.0000
  O   O3        1.0  0.23600  0.42000  0.07700  1.0000
  O   O4        1.0  0.95100  0.75000  0.08370  1.0000
  O   O5        1.0  0.95700  0.25000  0.15000  1.0000
  O   O6        1.0  0.55100  0.56300  0.19100  1.0000
  O   O7        1.0  0.55100  0.93700  0.19100  1.0000
  O   O8        1.0  0.05140  0.56300  0.30900  1.0000
  O   O9        1.0  0.05140  0.93700  0.30900  1.0000
  O   O10       1.0  0.45700  0.25000  0.35000  1.0000
  O   O11       1.0  0.45100  0.75000  0.41600  1.0000
  O   O12       1.0  0.73600  0.07970  0.42300  1.0000
  O   O13       1.0  0.73600  0.42000  0.42300  1.0000
  O   O14       1.0  0.12500  0.25000  0.48800  1.0000
  O   O15       1.0  0.87500  0.75000  0.51200  1.0000
  O   O16       1.0  0.26400  0.58000  0.57700  1.0000
  O   O17       1.0  0.26400  0.92000  0.57700  1.0000
  O   O18       1.0  0.54900  0.25000  0.58400  1.0000
  O   O19       1.0  0.54300  0.75000  0.65000  1.0000
  O   O20       1.0  0.94900  0.06290  0.69100  1.0000
  O   O21       1.0  0.94900  0.43700  0.69100  1.0000
  O   O22       1.0  0.44900  0.06290  0.80900  1.0000
  O   O23       1.0  0.44900  0.43700  0.80900  1.0000
  O   O24       1.0  0.04350  0.75000  0.85000  1.0000
  O   O25       1.0  0.04850  0.25000  0.91600  1.0000
  O   O26       1.0  0.76400  0.58000  0.92300  1.0000
  O   O27       1.0  0.76400  0.92000  0.92300  1.0000
  O   O28       1.0  0.37500  0.75000  0.98800  1.0000
  S   S1        1.0  0.11900  0.25000  0.05500  1.0000
  S   S2        1.0  0.61900  0.25000  0.44500  1.0000
  S   S3        1.0  0.38100  0.75000  0.55500  1.0000
  S   S4        1.0  0.88100  0.75000  0.94500  1.0000
  Y   Y1        1.0  0.26500  0.75000  0.19900  1.0000
  Y   Y2        1.0  0.76500  0.75000  0.30100  1.0000
  Y   Y3        1.0  0.23500  0.25000  0.69900  1.0000
  Y   Y4        1.0  0.73500  0.25000  0.80100  1.0000
