data_image0
_chemical_formula_structural       Cs6In6O32P8
_chemical_formula_sum              "Cs6 In6 O32 P8"
_cell_length_a       9.61624
_cell_length_b       9.61624
_cell_length_c       9.94279
_cell_angle_alpha    91.2026
_cell_angle_beta     91.2026
_cell_angle_gamma    62.6854

_space_group_name_H-M_alt    "P 1"
_space_group_IT_number       1

loop_
  _space_group_symop_operation_xyz
  'x, y, z'

loop_
  _atom_site_type_symbol
  _atom_site_label
  _atom_site_symmetry_multiplicity
  _atom_site_fract_x
  _atom_site_fract_y
  _atom_site_fract_z
  _atom_site_occupancy
  Cs  Cs1       1.0  0.00000  0.50000  0.00000  1.0000
  Cs  Cs2       1.0  0.55600  0.66700  0.18800  1.0000
  Cs  Cs3       1.0  0.33300  0.44400  0.31200  1.0000
  Cs  Cs4       1.0  0.50000  0.00000  0.50000  1.0000
  Cs  Cs5       1.0  0.66700  0.55600  0.68800  1.0000
  Cs  Cs6       1.0  0.44400  0.33300  0.81200  1.0000
  In  In1       1.0  0.67100  0.03620  0.16600  1.0000
  In  In2       1.0  0.08390  0.91600  0.25000  1.0000
  In  In3       1.0  0.96400  0.32900  0.33400  1.0000
  In  In4       1.0  0.03620  0.67100  0.66600  1.0000
  In  In5       1.0  0.91600  0.08390  0.75000  1.0000
  In  In6       1.0  0.32900  0.96400  0.83400  1.0000
  O   O1        1.0  0.71000  0.86700  0.00979  1.0000
  O   O2        1.0  0.61800  0.26400  0.07330  1.0000
  O   O3        1.0  0.17600  0.74600  0.08760  1.0000
  O   O4        1.0  0.88600  0.05570  0.11100  1.0000
  O   O5        1.0  0.83100  0.34200  0.14800  1.0000
  O   O6        1.0  0.25400  0.98000  0.18100  1.0000
  O   O7        1.0  0.15500  0.27300  0.20300  1.0000
  O   O8        1.0  0.43900  0.09640  0.21000  1.0000
  O   O9        1.0  0.90400  0.56100  0.29000  1.0000
  O   O10       1.0  0.72700  0.84500  0.29700  1.0000
  O   O11       1.0  0.02010  0.74600  0.31900  1.0000
  O   O12       1.0  0.65800  0.16900  0.35200  1.0000
  O   O13       1.0  0.94400  0.11400  0.38900  1.0000
  O   O14       1.0  0.25400  0.82400  0.41200  1.0000
  O   O15       1.0  0.73600  0.38200  0.42700  1.0000
  O   O16       1.0  0.13300  0.29000  0.49000  1.0000
  O   O17       1.0  0.86700  0.71000  0.51000  1.0000
  O   O18       1.0  0.26400  0.61800  0.57300  1.0000
  O   O19       1.0  0.74600  0.17600  0.58800  1.0000
  O   O20       1.0  0.05570  0.88600  0.61100  1.0000
  O   O21       1.0  0.34200  0.83100  0.64800  1.0000
  O   O22       1.0  0.98000  0.25400  0.68100  1.0000
  O   O23       1.0  0.27300  0.15500  0.70300  1.0000
  O   O24       1.0  0.09640  0.43900  0.71000  1.0000
  O   O25       1.0  0.56100  0.90400  0.79000  1.0000
  O   O26       1.0  0.84500  0.72700  0.79700  1.0000
  O   O27       1.0  0.74600  0.02010  0.81900  1.0000
  O   O28       1.0  0.16900  0.65800  0.85200  1.0000
  O   O29       1.0  0.11400  0.94400  0.88900  1.0000
  O   O30       1.0  0.82400  0.25400  0.91200  1.0000
  O   O31       1.0  0.38200  0.73600  0.92700  1.0000
  O   O32       1.0  0.29000  0.13300  0.99000  1.0000
  P   P1        1.0  0.79200  0.23200  0.05950  1.0000
  P   P2        1.0  0.28300  0.11800  0.14500  1.0000
  P   P3        1.0  0.88200  0.71700  0.35500  1.0000
  P   P4        1.0  0.76800  0.20800  0.44000  1.0000
  P   P5        1.0  0.23200  0.79200  0.56000  1.0000
  P   P6        1.0  0.11800  0.28300  0.64500  1.0000
  P   P7        1.0  0.71700  0.88200  0.85500  1.0000
  P   P8        1.0  0.20800  0.76800  0.94000  1.0000
