data_image0
_chemical_formula_structural       Br16O16Pb16Si4
_chemical_formula_sum              "Br16 O16 Pb16 Si4"
_cell_length_a       9.04025
_cell_length_b       16.255
_cell_length_c       8.43498
_cell_angle_alpha    90
_cell_angle_beta     92.423
_cell_angle_gamma    90

_space_group_name_H-M_alt    "P 1"
_space_group_IT_number       1

loop_
  _space_group_symop_operation_xyz
  'x, y, z'

loop_
  _atom_site_type_symbol
  _atom_site_label
  _atom_site_symmetry_multiplicity
  _atom_site_fract_x
  _atom_site_fract_y
  _atom_site_fract_z
  _atom_site_occupancy
  Br  Br1       1.0  0.00000  0.00000  0.00000  1.0000
  Br  Br2       1.0  0.50000  0.50000  0.00000  1.0000
  Br  Br3       1.0  0.87000  0.61400  0.11500  1.0000
  Br  Br4       1.0  0.73000  0.84600  0.13800  1.0000
  Br  Br5       1.0  0.82100  0.38000  0.16100  1.0000
  Br  Br6       1.0  0.17900  0.88000  0.33900  1.0000
  Br  Br7       1.0  0.27000  0.34600  0.36200  1.0000
  Br  Br8       1.0  0.13000  0.11400  0.38500  1.0000
  Br  Br9       1.0  0.00000  0.50000  0.50000  1.0000
  Br  Br10      1.0  0.50000  0.00000  0.50000  1.0000
  Br  Br11      1.0  0.87000  0.88600  0.61500  1.0000
  Br  Br12      1.0  0.73000  0.65400  0.63800  1.0000
  Br  Br13      1.0  0.82100  0.12000  0.66100  1.0000
  Br  Br14      1.0  0.17900  0.62000  0.83900  1.0000
  Br  Br15      1.0  0.27000  0.15400  0.86200  1.0000
  Br  Br16      1.0  0.13000  0.38600  0.88500  1.0000
  O   O1        1.0  0.35500  0.79200  0.01540  1.0000
  O   O2        1.0  0.62300  0.04940  0.10400  1.0000
  O   O3        1.0  0.47500  0.17300  0.22400  1.0000
  O   O4        1.0  0.21700  0.65900  0.24200  1.0000
  O   O5        1.0  0.78300  0.15900  0.25800  1.0000
  O   O6        1.0  0.52500  0.67300  0.27600  1.0000
  O   O7        1.0  0.37700  0.54900  0.39600  1.0000
  O   O8        1.0  0.64500  0.29200  0.48500  1.0000
  O   O9        1.0  0.35500  0.70800  0.51500  1.0000
  O   O10       1.0  0.62300  0.45100  0.60400  1.0000
  O   O11       1.0  0.47500  0.32700  0.72400  1.0000
  O   O12       1.0  0.21700  0.84100  0.74200  1.0000
  O   O13       1.0  0.78300  0.34100  0.75800  1.0000
  O   O14       1.0  0.52500  0.82700  0.77600  1.0000
  O   O15       1.0  0.37700  0.95100  0.89600  1.0000
  O   O16       1.0  0.64500  0.20800  0.98500  1.0000
  Pb  Pb1       1.0  0.56100  0.70200  0.00817  1.0000
  Pb  Pb2       1.0  0.11300  0.75900  0.07490  1.0000
  Pb  Pb3       1.0  0.34600  0.03360  0.14300  1.0000
  Pb  Pb4       1.0  0.16700  0.51500  0.19400  1.0000
  Pb  Pb5       1.0  0.83300  0.01530  0.30600  1.0000
  Pb  Pb6       1.0  0.65400  0.53400  0.35700  1.0000
  Pb  Pb7       1.0  0.88700  0.25900  0.42500  1.0000
  Pb  Pb8       1.0  0.43900  0.20200  0.49200  1.0000
  Pb  Pb9       1.0  0.56100  0.79800  0.50800  1.0000
  Pb  Pb10      1.0  0.11300  0.74100  0.57500  1.0000
  Pb  Pb11      1.0  0.34600  0.46600  0.64300  1.0000
  Pb  Pb12      1.0  0.16700  0.98500  0.69400  1.0000
  Pb  Pb13      1.0  0.83300  0.48500  0.80600  1.0000
  Pb  Pb14      1.0  0.65400  0.96600  0.85700  1.0000
  Pb  Pb15      1.0  0.88700  0.24100  0.92500  1.0000
  Pb  Pb16      1.0  0.43900  0.29800  0.99200  1.0000
  Si  Si1       1.0  0.63200  0.15000  0.14300  1.0000
  Si  Si2       1.0  0.36800  0.65000  0.35700  1.0000
  Si  Si3       1.0  0.63200  0.35000  0.64300  1.0000
  Si  Si4       1.0  0.36800  0.85000  0.85700  1.0000
