data_image0
_chemical_formula_structural       Er2Mo8Na10O32
_chemical_formula_sum              "Er2 Mo8 Na10 O32"
_cell_length_a       9.78325
_cell_length_b       9.78325
_cell_length_c       9.78325
_cell_angle_alpha    109.261
_cell_angle_beta     109.577
_cell_angle_gamma    109.577

_space_group_name_H-M_alt    "P 1"
_space_group_IT_number       1

loop_
  _space_group_symop_operation_xyz
  'x, y, z'

loop_
  _atom_site_type_symbol
  _atom_site_label
  _atom_site_symmetry_multiplicity
  _atom_site_fract_x
  _atom_site_fract_y
  _atom_site_fract_z
  _atom_site_occupancy
  Er  Er1       1.0  0.25000  0.87500  0.12500  1.0000
  Er  Er2       1.0  0.75000  0.12500  0.87500  1.0000
  Mo  Mo1       1.0  0.47600  0.20600  0.04420  1.0000
  Mo  Mo2       1.0  0.16200  0.23000  0.20600  1.0000
  Mo  Mo3       1.0  0.02420  0.56800  0.23000  1.0000
  Mo  Mo4       1.0  0.66200  0.95600  0.43200  1.0000
  Mo  Mo5       1.0  0.33800  0.04420  0.56800  1.0000
  Mo  Mo6       1.0  0.97600  0.43200  0.77000  1.0000
  Mo  Mo7       1.0  0.83800  0.77000  0.79400  1.0000
  Mo  Mo8       1.0  0.52400  0.79400  0.95600  1.0000
  Na  Na1       1.0  0.33500  0.53600  0.11100  1.0000
  Na  Na2       1.0  0.92500  0.88900  0.22500  1.0000
  Na  Na3       1.0  0.83500  0.22500  0.29900  1.0000
  Na  Na4       1.0  0.75000  0.62500  0.37500  1.0000
  Na  Na5       1.0  0.57500  0.29900  0.46400  1.0000
  Na  Na6       1.0  0.42500  0.70100  0.53600  1.0000
  Na  Na7       1.0  0.25000  0.37500  0.62500  1.0000
  Na  Na8       1.0  0.16500  0.77500  0.70100  1.0000
  Na  Na9       1.0  0.07450  0.11100  0.77500  1.0000
  Na  Na10      1.0  0.66500  0.46400  0.88900  1.0000
  O   O1        1.0  0.99000  0.85600  0.01250  1.0000
  O   O2        1.0  0.35600  0.30400  0.01290  1.0000
  O   O3        1.0  0.65600  0.01250  0.02300  1.0000
  O   O4        1.0  0.42300  0.77300  0.07660  1.0000
  O   O5        1.0  0.15600  0.63300  0.14400  1.0000
  O   O6        1.0  0.92300  0.34600  0.15000  1.0000
  O   O7        1.0  0.86300  0.62200  0.19300  1.0000
  O   O8        1.0  0.30400  0.15000  0.22700  1.0000
  O   O9        1.0  0.63700  0.33000  0.25900  1.0000
  O   O10       1.0  0.29100  0.44800  0.30400  1.0000
  O   O11       1.0  0.07100  0.19300  0.33000  1.0000
  O   O12       1.0  0.79100  0.98700  0.34300  1.0000
  O   O13       1.0  0.19600  0.92300  0.34600  1.0000
  O   O14       1.0  0.51000  0.02300  0.36700  1.0000
  O   O15       1.0  0.57100  0.74100  0.37800  1.0000
  O   O16       1.0  0.14400  0.65700  0.44800  1.0000
  O   O17       1.0  0.85600  0.34300  0.55200  1.0000
  O   O18       1.0  0.42900  0.25900  0.62200  1.0000
  O   O19       1.0  0.49000  0.97700  0.63300  1.0000
  O   O20       1.0  0.80400  0.07660  0.65400  1.0000
  O   O21       1.0  0.20900  0.01290  0.65700  1.0000
  O   O22       1.0  0.92900  0.80700  0.67000  1.0000
  O   O23       1.0  0.70900  0.55200  0.69600  1.0000
  O   O24       1.0  0.36300  0.67000  0.74100  1.0000
  O   O25       1.0  0.69600  0.85000  0.77300  1.0000
  O   O26       1.0  0.13700  0.37800  0.80700  1.0000
  O   O27       1.0  0.07730  0.65400  0.85000  1.0000
  O   O28       1.0  0.84400  0.36700  0.85600  1.0000
  O   O29       1.0  0.57700  0.22700  0.92300  1.0000
  O   O30       1.0  0.34400  0.98800  0.97700  1.0000
  O   O31       1.0  0.64400  0.69600  0.98700  1.0000
  O   O32       1.0  0.01050  0.14400  0.98800  1.0000
