data_image0
_chemical_formula_structural       C16F24Pt2S8
_chemical_formula_sum              "C16 F24 Pt2 S8"
_cell_length_a       4.54147
_cell_length_b       14.5083
_cell_length_c       9.59823
_cell_angle_alpha    90
_cell_angle_beta     100.034
_cell_angle_gamma    90

_space_group_name_H-M_alt    "P 1"
_space_group_IT_number       1

loop_
  _space_group_symop_operation_xyz
  'x, y, z'

loop_
  _atom_site_type_symbol
  _atom_site_label
  _atom_site_symmetry_multiplicity
  _atom_site_fract_x
  _atom_site_fract_y
  _atom_site_fract_z
  _atom_site_occupancy
  C   C1        1.0  0.77600  0.41900  0.13300  1.0000
  C   C2        1.0  0.84700  0.84000  0.17200  1.0000
  C   C3        1.0  0.93700  0.74400  0.21900  1.0000
  C   C4        1.0  0.98400  0.91800  0.23700  1.0000
  C   C5        1.0  0.01630  0.41800  0.26300  1.0000
  C   C6        1.0  0.06340  0.24400  0.28100  1.0000
  C   C7        1.0  0.15300  0.34000  0.32800  1.0000
  C   C8        1.0  0.22400  0.91900  0.36700  1.0000
  C   C9        1.0  0.77600  0.08080  0.63300  1.0000
  C   C10       1.0  0.84700  0.66000  0.67200  1.0000
  C   C11       1.0  0.93700  0.75600  0.71900  1.0000
  C   C12       1.0  0.98400  0.58200  0.73700  1.0000
  C   C13       1.0  0.01630  0.08200  0.76300  1.0000
  C   C14       1.0  0.06340  0.25600  0.78100  1.0000
  C   C15       1.0  0.15300  0.16000  0.82800  1.0000
  C   C16       1.0  0.22400  0.58100  0.86700  1.0000
  F   F1        1.0  0.89500  0.41200  0.01330  1.0000
  F   F2        1.0  0.62500  0.50000  0.12800  1.0000
  F   F3        1.0  0.57000  0.35100  0.12900  1.0000
  F   F4        1.0  0.04220  0.23400  0.13800  1.0000
  F   F5        1.0  0.73700  0.68100  0.15600  1.0000
  F   F6        1.0  0.20700  0.71900  0.18800  1.0000
  F   F7        1.0  0.79300  0.21900  0.31200  1.0000
  F   F8        1.0  0.26300  0.18100  0.34400  1.0000
  F   F9        1.0  0.95800  0.73400  0.36200  1.0000
  F   F10       1.0  0.43000  0.85100  0.37100  1.0000
  F   F11       1.0  0.37500  0.00030  0.37200  1.0000
  F   F12       1.0  0.10500  0.91200  0.48700  1.0000
  F   F13       1.0  0.89500  0.08820  0.51300  1.0000
  F   F14       1.0  0.62500  0.00000  0.62800  1.0000
  F   F15       1.0  0.57000  0.14900  0.62900  1.0000
  F   F16       1.0  0.04220  0.26600  0.63800  1.0000
  F   F17       1.0  0.73700  0.81900  0.65600  1.0000
  F   F18       1.0  0.20700  0.78100  0.68800  1.0000
  F   F19       1.0  0.79300  0.28100  0.81200  1.0000
  F   F20       1.0  0.26300  0.31900  0.84400  1.0000
  F   F21       1.0  0.95800  0.76600  0.86200  1.0000
  F   F22       1.0  0.43000  0.64900  0.87100  1.0000
  F   F23       1.0  0.37500  0.50000  0.87200  1.0000
  F   F24       1.0  0.10500  0.58800  0.98700  1.0000
  Pt  Pt1       1.0  0.50000  0.00000  0.00000  1.0000
  Pt  Pt2       1.0  0.50000  0.50000  0.50000  1.0000
  S   S1        1.0  0.56300  0.84800  0.03300  1.0000
  S   S2        1.0  0.87600  0.02470  0.18000  1.0000
  S   S3        1.0  0.12400  0.52500  0.32000  1.0000
  S   S4        1.0  0.43700  0.34800  0.46700  1.0000
  S   S5        1.0  0.56300  0.65200  0.53300  1.0000
  S   S6        1.0  0.87600  0.47500  0.68000  1.0000
  S   S7        1.0  0.12400  0.97500  0.82000  1.0000
  S   S8        1.0  0.43700  0.15200  0.96700  1.0000
