data_image0
_chemical_formula_structural       Al4B12Be4CsO28
_chemical_formula_sum              "Al4 B12 Be4 Cs1 O28"
_cell_length_a       7.32211
_cell_length_b       7.32211
_cell_length_c       7.32211
_cell_angle_alpha    90
_cell_angle_beta     90
_cell_angle_gamma    90

_space_group_name_H-M_alt    "P 1"
_space_group_IT_number       1

loop_
  _space_group_symop_operation_xyz
  'x, y, z'

loop_
  _atom_site_type_symbol
  _atom_site_label
  _atom_site_symmetry_multiplicity
  _atom_site_fract_x
  _atom_site_fract_y
  _atom_site_fract_z
  _atom_site_occupancy
  Al  Al1       1.0  0.36000  0.36000  0.36000  1.0000
  Al  Al2       1.0  0.64000  0.64000  0.36000  1.0000
  Al  Al3       1.0  0.64000  0.36000  0.64000  1.0000
  Al  Al4       1.0  0.36000  0.64000  0.64000  1.0000
  B   B1        1.0  0.50000  0.24900  0.00000  1.0000
  B   B2        1.0  0.24900  0.50000  0.00000  1.0000
  B   B3        1.0  0.75100  0.50000  0.00000  1.0000
  B   B4        1.0  0.50000  0.75100  0.00000  1.0000
  B   B5        1.0  0.50000  0.00000  0.24900  1.0000
  B   B6        1.0  0.00000  0.50000  0.24900  1.0000
  B   B7        1.0  0.24900  0.00000  0.50000  1.0000
  B   B8        1.0  0.75100  0.00000  0.50000  1.0000
  B   B9        1.0  0.00000  0.24900  0.50000  1.0000
  B   B10       1.0  0.00000  0.75100  0.50000  1.0000
  B   B11       1.0  0.50000  0.00000  0.75100  1.0000
  B   B12       1.0  0.00000  0.50000  0.75100  1.0000
  Be  Be1       1.0  0.74200  0.25800  0.25800  1.0000
  Be  Be2       1.0  0.25800  0.74200  0.25800  1.0000
  Be  Be3       1.0  0.25800  0.25800  0.74200  1.0000
  Be  Be4       1.0  0.74200  0.74200  0.74200  1.0000
  Cs  Cs1       1.0  0.00000  0.00000  0.00000  1.0000
  O   O1        1.0  0.36300  0.36300  0.09770  1.0000
  O   O2        1.0  0.63700  0.63700  0.09770  1.0000
  O   O3        1.0  0.59900  0.13500  0.13500  1.0000
  O   O4        1.0  0.86500  0.40100  0.13500  1.0000
  O   O5        1.0  0.13500  0.59900  0.13500  1.0000
  O   O6        1.0  0.40100  0.86500  0.13500  1.0000
  O   O7        1.0  0.36300  0.09770  0.36300  1.0000
  O   O8        1.0  0.09770  0.36300  0.36300  1.0000
  O   O9        1.0  0.90200  0.63700  0.36300  1.0000
  O   O10       1.0  0.63700  0.90200  0.36300  1.0000
  O   O11       1.0  0.61900  0.38100  0.38100  1.0000
  O   O12       1.0  0.38100  0.61900  0.38100  1.0000
  O   O13       1.0  0.86500  0.13500  0.40100  1.0000
  O   O14       1.0  0.13500  0.86500  0.40100  1.0000
  O   O15       1.0  0.13500  0.13500  0.59900  1.0000
  O   O16       1.0  0.86500  0.86500  0.59900  1.0000
  O   O17       1.0  0.38100  0.38100  0.61900  1.0000
  O   O18       1.0  0.61900  0.61900  0.61900  1.0000
  O   O19       1.0  0.63700  0.09770  0.63700  1.0000
  O   O20       1.0  0.90200  0.36300  0.63700  1.0000
  O   O21       1.0  0.09770  0.63700  0.63700  1.0000
  O   O22       1.0  0.36300  0.90200  0.63700  1.0000
  O   O23       1.0  0.40100  0.13500  0.86500  1.0000
  O   O24       1.0  0.13500  0.40100  0.86500  1.0000
  O   O25       1.0  0.86500  0.59900  0.86500  1.0000
  O   O26       1.0  0.59900  0.86500  0.86500  1.0000
  O   O27       1.0  0.63700  0.36300  0.90200  1.0000
  O   O28       1.0  0.36300  0.63700  0.90200  1.0000
