data_image0
_chemical_formula_structural       Hg2O2Te2Zn2
_chemical_formula_sum              "Hg2 O2 Te2 Zn2"
_cell_length_a       3.97337
_cell_length_b       5.8021
_cell_length_c       7.32122
_cell_angle_alpha    90
_cell_angle_beta     74.2548
_cell_angle_gamma    90

_space_group_name_H-M_alt    "P 1"
_space_group_IT_number       1

loop_
  _space_group_symop_operation_xyz
  'x, y, z'

loop_
  _atom_site_type_symbol
  _atom_site_label
  _atom_site_symmetry_multiplicity
  _atom_site_fract_x
  _atom_site_fract_y
  _atom_site_fract_z
  _atom_site_occupancy
  Hg  Hg1       1.0  0.40900  0.75000  0.18300  1.0000
  Hg  Hg2       1.0  0.59100  0.25000  0.81700  1.0000
  O   O1        1.0  0.00000  0.00000  0.00000  1.0000
  O   O2        1.0  0.00000  0.50000  0.00000  1.0000
  Te  Te1       1.0  0.28800  0.25000  0.42500  1.0000
  Te  Te2       1.0  0.71200  0.75000  0.57500  1.0000
  Zn  Zn1       1.0  0.91100  0.25000  0.17800  1.0000
  Zn  Zn2       1.0  0.08920  0.75000  0.82200  1.0000
