data_image0
_chemical_formula_structural       Mn12O32Ta8
_chemical_formula_sum              "Mn12 O32 Ta8"
_cell_length_a       9.34804
_cell_length_b       9.34804
_cell_length_c       9.34804
_cell_angle_alpha    106.004
_cell_angle_beta     116.653
_cell_angle_gamma    106.004

_space_group_name_H-M_alt    "P 1"
_space_group_IT_number       1

loop_
  _space_group_symop_operation_xyz
  'x, y, z'

loop_
  _atom_site_type_symbol
  _atom_site_label
  _atom_site_symmetry_multiplicity
  _atom_site_fract_x
  _atom_site_fract_y
  _atom_site_fract_z
  _atom_site_occupancy
  Mn  Mn1       1.0  0.21300  0.07570  0.04840  1.0000
  Mn  Mn2       1.0  0.37500  0.75000  0.12500  1.0000
  Mn  Mn3       1.0  0.86200  0.83500  0.28700  1.0000
  Mn  Mn4       1.0  0.02730  0.57600  0.36200  1.0000
  Mn  Mn5       1.0  0.12500  0.25000  0.37500  1.0000
  Mn  Mn6       1.0  0.54800  0.33500  0.47300  1.0000
  Mn  Mn7       1.0  0.45200  0.66500  0.52700  1.0000
  Mn  Mn8       1.0  0.87500  0.75000  0.62500  1.0000
  Mn  Mn9       1.0  0.97300  0.42400  0.63800  1.0000
  Mn  Mn10      1.0  0.13800  0.16500  0.71300  1.0000
  Mn  Mn11      1.0  0.62500  0.25000  0.87500  1.0000
  Mn  Mn12      1.0  0.78700  0.92400  0.95200  1.0000
  O   O1        1.0  0.87800  0.43500  0.02010  1.0000
  O   O2        1.0  0.41500  0.93500  0.05710  1.0000
  O   O3        1.0  0.28100  0.35500  0.06140  1.0000
  O   O4        1.0  0.01090  0.16800  0.08380  1.0000
  O   O5        1.0  0.52000  0.64200  0.08530  1.0000
  O   O6        1.0  0.80400  0.99400  0.19100  1.0000
  O   O7        1.0  0.56100  0.28000  0.20600  1.0000
  O   O8        1.0  0.07400  0.78000  0.21900  1.0000
  O   O9        1.0  0.30900  0.11300  0.30300  1.0000
  O   O10       1.0  0.81000  0.61300  0.30400  1.0000
  O   O11       1.0  0.19700  0.50600  0.31000  1.0000
  O   O12       1.0  0.91600  0.33200  0.34300  1.0000
  O   O13       1.0  0.44300  0.85800  0.37800  1.0000
  O   O14       1.0  0.58400  0.57300  0.41600  1.0000
  O   O15       1.0  0.70600  0.14500  0.42600  1.0000
  O   O16       1.0  0.15700  0.07290  0.48900  1.0000
  O   O17       1.0  0.84300  0.92700  0.51100  1.0000
  O   O18       1.0  0.29400  0.85500  0.57400  1.0000
  O   O19       1.0  0.41600  0.42700  0.58400  1.0000
  O   O20       1.0  0.55700  0.14200  0.62200  1.0000
  O   O21       1.0  0.08420  0.66800  0.65700  1.0000
  O   O22       1.0  0.80300  0.49400  0.69000  1.0000
  O   O23       1.0  0.19000  0.38700  0.69600  1.0000
  O   O24       1.0  0.69100  0.88700  0.69700  1.0000
  O   O25       1.0  0.92600  0.22000  0.78100  1.0000
  O   O26       1.0  0.43900  0.72000  0.79400  1.0000
  O   O27       1.0  0.19600  0.00620  0.80900  1.0000
  O   O28       1.0  0.48000  0.35800  0.91500  1.0000
  O   O29       1.0  0.98900  0.83200  0.91600  1.0000
  O   O30       1.0  0.71900  0.64500  0.93900  1.0000
  O   O31       1.0  0.58500  0.06510  0.94300  1.0000
  O   O32       1.0  0.12200  0.56500  0.98000  1.0000
  Ta  Ta1       1.0  0.07260  0.36600  0.05260  1.0000
  Ta  Ta2       1.0  0.55300  0.48000  0.18600  1.0000
  Ta  Ta3       1.0  0.68600  0.13400  0.20600  1.0000
  Ta  Ta4       1.0  0.29400  0.98000  0.42700  1.0000
  Ta  Ta5       1.0  0.70600  0.02000  0.57300  1.0000
  Ta  Ta6       1.0  0.31400  0.86600  0.79400  1.0000
  Ta  Ta7       1.0  0.44700  0.52000  0.81400  1.0000
  Ta  Ta8       1.0  0.92700  0.63400  0.94700  1.0000
