data_image0
_chemical_formula_structural       C4Ho8N24Si16
_chemical_formula_sum              "C4 Ho8 N24 Si16"
_cell_length_a       5.9163
_cell_length_b       9.88714
_cell_length_c       11.8561
_cell_angle_alpha    90
_cell_angle_beta     119.544
_cell_angle_gamma    90

_space_group_name_H-M_alt    "P 1"
_space_group_IT_number       1

loop_
  _space_group_symop_operation_xyz
  'x, y, z'

loop_
  _atom_site_type_symbol
  _atom_site_label
  _atom_site_symmetry_multiplicity
  _atom_site_fract_x
  _atom_site_fract_y
  _atom_site_fract_z
  _atom_site_occupancy
  C   C1        1.0  0.97600  0.79100  0.24700  1.0000
  C   C2        1.0  0.02430  0.29100  0.25300  1.0000
  C   C3        1.0  0.97600  0.70900  0.74700  1.0000
  C   C4        1.0  0.02430  0.20900  0.75300  1.0000
  Ho  Ho1       1.0  0.34200  0.91400  0.08130  1.0000
  Ho  Ho2       1.0  0.33200  0.56500  0.09580  1.0000
  Ho  Ho3       1.0  0.66800  0.06530  0.40400  1.0000
  Ho  Ho4       1.0  0.65800  0.41400  0.41900  1.0000
  Ho  Ho5       1.0  0.34200  0.58600  0.58100  1.0000
  Ho  Ho6       1.0  0.33200  0.93500  0.59600  1.0000
  Ho  Ho7       1.0  0.66800  0.43500  0.90400  1.0000
  Ho  Ho8       1.0  0.65800  0.08620  0.91900  1.0000
  N   N1        1.0  0.50600  0.29100  0.00062  1.0000
  N   N2        1.0  0.04250  0.20900  0.00950  1.0000
  N   N3        1.0  0.94100  0.54400  0.09980  1.0000
  N   N4        1.0  0.70000  0.05330  0.13700  1.0000
  N   N5        1.0  0.24400  0.03480  0.22400  1.0000
  N   N6        1.0  0.52000  0.26400  0.24700  1.0000
  N   N7        1.0  0.48000  0.76400  0.25300  1.0000
  N   N8        1.0  0.75600  0.53500  0.27600  1.0000
  N   N9        1.0  0.30000  0.55300  0.36300  1.0000
  N   N10       1.0  0.05860  0.04430  0.40000  1.0000
  N   N11       1.0  0.95800  0.70900  0.49100  1.0000
  N   N12       1.0  0.49400  0.79100  0.49900  1.0000
  N   N13       1.0  0.50600  0.20900  0.50100  1.0000
  N   N14       1.0  0.04250  0.29100  0.50900  1.0000
  N   N15       1.0  0.94100  0.95600  0.60000  1.0000
  N   N16       1.0  0.70000  0.44700  0.63700  1.0000
  N   N17       1.0  0.24400  0.46500  0.72400  1.0000
  N   N18       1.0  0.52000  0.23600  0.74700  1.0000
  N   N19       1.0  0.48000  0.73600  0.75300  1.0000
  N   N20       1.0  0.75600  0.96500  0.77600  1.0000
  N   N21       1.0  0.30000  0.94700  0.86300  1.0000
  N   N22       1.0  0.05860  0.45600  0.90000  1.0000
  N   N23       1.0  0.95800  0.79100  0.99100  1.0000
  N   N24       1.0  0.49400  0.70900  0.99900  1.0000
  Si  Si1       1.0  0.83500  0.71300  0.07970  1.0000
  Si  Si2       1.0  0.67800  0.22800  0.15900  1.0000
  Si  Si3       1.0  0.20200  0.20500  0.17700  1.0000
  Si  Si4       1.0  0.00497  0.47900  0.24900  1.0000
  Si  Si5       1.0  0.99500  0.97900  0.25100  1.0000
  Si  Si6       1.0  0.79800  0.70500  0.32300  1.0000
  Si  Si7       1.0  0.32200  0.72800  0.34100  1.0000
  Si  Si8       1.0  0.16500  0.21300  0.42000  1.0000
  Si  Si9       1.0  0.83500  0.78700  0.58000  1.0000
  Si  Si10      1.0  0.67800  0.27200  0.65900  1.0000
  Si  Si11      1.0  0.20200  0.29500  0.67700  1.0000
  Si  Si12      1.0  0.00496  0.02060  0.74900  1.0000
  Si  Si13      1.0  0.99500  0.52100  0.75100  1.0000
  Si  Si14      1.0  0.79800  0.79500  0.82300  1.0000
  Si  Si15      1.0  0.32200  0.77200  0.84100  1.0000
  Si  Si16      1.0  0.16500  0.28700  0.92000  1.0000
