data_image0
_chemical_formula_structural       I12O36Y4
_chemical_formula_sum              "I12 O36 Y4"
_cell_length_a       8.61736
_cell_length_b       5.80764
_cell_length_c       14.7399
_cell_angle_alpha    90
_cell_angle_beta     97.1021
_cell_angle_gamma    90

_space_group_name_H-M_alt    "P 1"
_space_group_IT_number       1

loop_
  _space_group_symop_operation_xyz
  'x, y, z'

loop_
  _atom_site_type_symbol
  _atom_site_label
  _atom_site_symmetry_multiplicity
  _atom_site_fract_x
  _atom_site_fract_y
  _atom_site_fract_z
  _atom_site_occupancy
  I   I1        1.0  0.66200  0.15400  0.02450  1.0000
  I   I2        1.0  0.22700  0.31200  0.15000  1.0000
  I   I3        1.0  0.62000  0.59900  0.20200  1.0000
  I   I4        1.0  0.88000  0.09880  0.29800  1.0000
  I   I5        1.0  0.27300  0.81200  0.35000  1.0000
  I   I6        1.0  0.83800  0.65400  0.47500  1.0000
  I   I7        1.0  0.16200  0.34600  0.52500  1.0000
  I   I8        1.0  0.72700  0.18800  0.65000  1.0000
  I   I9        1.0  0.12000  0.90100  0.70200  1.0000
  I   I10       1.0  0.38000  0.40100  0.79800  1.0000
  I   I11       1.0  0.77300  0.68800  0.85000  1.0000
  I   I12       1.0  0.33800  0.84600  0.97500  1.0000
  O   O1        1.0  0.13900  0.89500  0.00904  1.0000
  O   O2        1.0  0.14000  0.40500  0.03590  1.0000
  O   O3        1.0  0.41300  0.08290  0.05700  1.0000
  O   O4        1.0  0.45100  0.59200  0.11100  1.0000
  O   O5        1.0  0.72200  0.96600  0.12500  1.0000
  O   O6        1.0  0.77400  0.49500  0.13400  1.0000
  O   O7        1.0  0.07310  0.10500  0.17400  1.0000
  O   O8        1.0  0.14100  0.56400  0.20200  1.0000
  O   O9        1.0  0.58500  0.30600  0.24200  1.0000
  O   O10       1.0  0.91500  0.80600  0.25800  1.0000
  O   O11       1.0  0.35900  0.06380  0.29800  1.0000
  O   O12       1.0  0.42700  0.60500  0.32600  1.0000
  O   O13       1.0  0.72600  0.99500  0.36600  1.0000
  O   O14       1.0  0.77800  0.46600  0.37500  1.0000
  O   O15       1.0  0.04910  0.09230  0.38900  1.0000
  O   O16       1.0  0.08670  0.58300  0.44300  1.0000
  O   O17       1.0  0.36000  0.90500  0.46400  1.0000
  O   O18       1.0  0.36100  0.39500  0.49100  1.0000
  O   O19       1.0  0.63900  0.60500  0.50900  1.0000
  O   O20       1.0  0.64000  0.09520  0.53600  1.0000
  O   O21       1.0  0.91300  0.41700  0.55700  1.0000
  O   O22       1.0  0.95100  0.90800  0.61100  1.0000
  O   O23       1.0  0.22200  0.53400  0.62500  1.0000
  O   O24       1.0  0.27400  0.00450  0.63400  1.0000
  O   O25       1.0  0.57300  0.39500  0.67400  1.0000
  O   O26       1.0  0.64100  0.93600  0.70200  1.0000
  O   O27       1.0  0.08500  0.19400  0.74200  1.0000
  O   O28       1.0  0.41500  0.69400  0.75800  1.0000
  O   O29       1.0  0.85900  0.43600  0.79800  1.0000
  O   O30       1.0  0.92700  0.89500  0.82600  1.0000
  O   O31       1.0  0.22600  0.50500  0.86600  1.0000
  O   O32       1.0  0.27800  0.03380  0.87500  1.0000
  O   O33       1.0  0.54900  0.40800  0.88900  1.0000
  O   O34       1.0  0.58700  0.91700  0.94300  1.0000
  O   O35       1.0  0.86000  0.59500  0.96400  1.0000
  O   O36       1.0  0.86100  0.10500  0.99100  1.0000
  Y   Y1        1.0  0.96000  0.77300  0.10000  1.0000
  Y   Y2        1.0  0.54000  0.27300  0.40000  1.0000
  Y   Y3        1.0  0.46000  0.72700  0.60000  1.0000
  Y   Y4        1.0  0.03960  0.22700  0.90000  1.0000
