data_image0
_chemical_formula_structural       C8Cs2H6O28U4
_chemical_formula_sum              "C8 Cs2 H6 O28 U4"
_cell_length_a       5.37567
_cell_length_b       13.3821
_cell_length_c       9.49677
_cell_angle_alpha    90
_cell_angle_beta     99.4764
_cell_angle_gamma    90

_space_group_name_H-M_alt    "P 1"
_space_group_IT_number       1

loop_
  _space_group_symop_operation_xyz
  'x, y, z'

loop_
  _atom_site_type_symbol
  _atom_site_label
  _atom_site_symmetry_multiplicity
  _atom_site_fract_x
  _atom_site_fract_y
  _atom_site_fract_z
  _atom_site_occupancy
  C   C1        1.0  0.51800  0.04980  0.04070  1.0000
  C   C2        1.0  0.51800  0.45000  0.04070  1.0000
  C   C3        1.0  0.03450  0.05320  0.47900  1.0000
  C   C4        1.0  0.03450  0.44700  0.47900  1.0000
  C   C5        1.0  0.96600  0.55300  0.52100  1.0000
  C   C6        1.0  0.96600  0.94700  0.52100  1.0000
  C   C7        1.0  0.48200  0.55000  0.95900  1.0000
  C   C8        1.0  0.48200  0.95000  0.95900  1.0000
  Cs  Cs1       1.0  0.47200  0.25000  0.35600  1.0000
  Cs  Cs2       1.0  0.52800  0.75000  0.64400  1.0000
  H   H1        1.0  0.85900  0.19300  0.12400  1.0000
  H   H2        1.0  0.85900  0.30700  0.12400  1.0000
  H   H3        1.0  0.90700  0.75000  0.12900  1.0000
  H   H4        1.0  0.09290  0.25000  0.87100  1.0000
  H   H5        1.0  0.14100  0.69300  0.87600  1.0000
  H   H6        1.0  0.14100  0.80700  0.87600  1.0000
  O   O1        1.0  0.37100  0.61900  0.01530  1.0000
  O   O2        1.0  0.37100  0.88100  0.01530  1.0000
  O   O3        1.0  0.92500  0.55000  0.14000  1.0000
  O   O4        1.0  0.92500  0.95000  0.14000  1.0000
  O   O5        1.0  0.43400  0.05570  0.15700  1.0000
  O   O6        1.0  0.43400  0.44400  0.15700  1.0000
  O   O7        1.0  0.93500  0.25000  0.18100  1.0000
  O   O8        1.0  0.07540  0.75000  0.18600  1.0000
  O   O9        1.0  0.51300  0.62900  0.33700  1.0000
  O   O10       1.0  0.51300  0.87100  0.33700  1.0000
  O   O11       1.0  0.16900  0.05970  0.38200  1.0000
  O   O12       1.0  0.16900  0.44000  0.38200  1.0000
  O   O13       1.0  0.04950  0.62500  0.45600  1.0000
  O   O14       1.0  0.04950  0.87500  0.45600  1.0000
  O   O15       1.0  0.95000  0.12500  0.54400  1.0000
  O   O16       1.0  0.95000  0.37500  0.54400  1.0000
  O   O17       1.0  0.83100  0.56000  0.61800  1.0000
  O   O18       1.0  0.83100  0.94000  0.61800  1.0000
  O   O19       1.0  0.48700  0.12900  0.66300  1.0000
  O   O20       1.0  0.48700  0.37100  0.66300  1.0000
  O   O21       1.0  0.92500  0.25000  0.81400  1.0000
  O   O22       1.0  0.06470  0.75000  0.81900  1.0000
  O   O23       1.0  0.56600  0.55600  0.84300  1.0000
  O   O24       1.0  0.56600  0.94400  0.84300  1.0000
  O   O25       1.0  0.07520  0.05010  0.86000  1.0000
  O   O26       1.0  0.07520  0.45000  0.86000  1.0000
  O   O27       1.0  0.62900  0.11900  0.98500  1.0000
  O   O28       1.0  0.62900  0.38100  0.98500  1.0000
  U   U1        1.0  0.21900  0.58900  0.23900  1.0000
  U   U2        1.0  0.21900  0.91100  0.23900  1.0000
  U   U3        1.0  0.78100  0.08860  0.76100  1.0000
  U   U4        1.0  0.78100  0.41100  0.76100  1.0000
