data_image0
_chemical_formula_structural       F24K8O12Ta8
_chemical_formula_sum              "F24 K8 O12 Ta8"
_cell_length_a       9.91725
_cell_length_b       5.46585
_cell_length_c       14.0315
_cell_angle_alpha    90
_cell_angle_beta     90
_cell_angle_gamma    90

_space_group_name_H-M_alt    "P 1"
_space_group_IT_number       1

loop_
  _space_group_symop_operation_xyz
  'x, y, z'

loop_
  _atom_site_type_symbol
  _atom_site_label
  _atom_site_symmetry_multiplicity
  _atom_site_fract_x
  _atom_site_fract_y
  _atom_site_fract_z
  _atom_site_occupancy
  F   F1        1.0  0.65600  0.00245  0.05680  1.0000
  F   F2        1.0  0.65600  0.49800  0.05680  1.0000
  F   F3        1.0  0.36700  0.75000  0.10600  1.0000
  F   F4        1.0  0.24100  0.25000  0.22400  1.0000
  F   F5        1.0  0.01420  0.50100  0.25000  1.0000
  F   F6        1.0  0.01420  0.99900  0.25000  1.0000
  F   F7        1.0  0.51400  0.50100  0.25000  1.0000
  F   F8        1.0  0.51400  0.99900  0.25000  1.0000
  F   F9        1.0  0.74100  0.25000  0.27600  1.0000
  F   F10       1.0  0.86700  0.75000  0.39400  1.0000
  F   F11       1.0  0.15600  0.00245  0.44300  1.0000
  F   F12       1.0  0.15600  0.49800  0.44300  1.0000
  F   F13       1.0  0.84400  0.50200  0.55700  1.0000
  F   F14       1.0  0.84400  0.99800  0.55700  1.0000
  F   F15       1.0  0.13300  0.25000  0.60600  1.0000
  F   F16       1.0  0.25900  0.75000  0.72400  1.0000
  F   F17       1.0  0.48600  0.00129  0.75000  1.0000
  F   F18       1.0  0.48600  0.49900  0.75000  1.0000
  F   F19       1.0  0.98600  0.00129  0.75000  1.0000
  F   F20       1.0  0.98600  0.49900  0.75000  1.0000
  F   F21       1.0  0.75900  0.75000  0.77600  1.0000
  F   F22       1.0  0.63300  0.25000  0.89400  1.0000
  F   F23       1.0  0.34400  0.50200  0.94300  1.0000
  F   F24       1.0  0.34400  0.99800  0.94300  1.0000
  K   K1        1.0  0.43500  0.25000  0.09610  1.0000
  K   K2        1.0  0.76400  0.75000  0.20700  1.0000
  K   K3        1.0  0.26400  0.75000  0.29300  1.0000
  K   K4        1.0  0.93500  0.25000  0.40400  1.0000
  K   K5        1.0  0.06450  0.75000  0.59600  1.0000
  K   K6        1.0  0.73600  0.25000  0.70700  1.0000
  K   K7        1.0  0.23600  0.25000  0.79300  1.0000
  K   K8        1.0  0.56500  0.75000  0.90400  1.0000
  O   O1        1.0  0.13200  0.00191  0.07180  1.0000
  O   O2        1.0  0.13200  0.49800  0.07180  1.0000
  O   O3        1.0  0.88600  0.25000  0.10600  1.0000
  O   O4        1.0  0.38600  0.25000  0.39400  1.0000
  O   O5        1.0  0.63200  0.00191  0.42800  1.0000
  O   O6        1.0  0.63200  0.49800  0.42800  1.0000
  O   O7        1.0  0.36800  0.50200  0.57200  1.0000
  O   O8        1.0  0.36800  0.99800  0.57200  1.0000
  O   O9        1.0  0.61400  0.75000  0.60600  1.0000
  O   O10       1.0  0.11400  0.75000  0.89400  1.0000
  O   O11       1.0  0.86800  0.50200  0.92800  1.0000
  O   O12       1.0  0.86800  0.99800  0.92800  1.0000
  Ta  Ta1       1.0  0.22600  0.75000  0.00531  1.0000
  Ta  Ta2       1.0  0.06460  0.25000  0.15600  1.0000
  Ta  Ta3       1.0  0.56500  0.25000  0.34400  1.0000
  Ta  Ta4       1.0  0.72600  0.75000  0.49500  1.0000
  Ta  Ta5       1.0  0.27400  0.25000  0.50500  1.0000
  Ta  Ta6       1.0  0.43500  0.75000  0.65600  1.0000
  Ta  Ta7       1.0  0.93500  0.75000  0.84400  1.0000
  Ta  Ta8       1.0  0.77400  0.25000  0.99500  1.0000
