data_image0
_chemical_formula_structural       Cu4H16O24P8
_chemical_formula_sum              "Cu4 H16 O24 P8"
_cell_length_a       7.91307
_cell_length_b       9.43194
_cell_length_c       7.1386
_cell_angle_alpha    90
_cell_angle_beta     101.682
_cell_angle_gamma    90

_space_group_name_H-M_alt    "P 1"
_space_group_IT_number       1

loop_
  _space_group_symop_operation_xyz
  'x, y, z'

loop_
  _atom_site_type_symbol
  _atom_site_label
  _atom_site_symmetry_multiplicity
  _atom_site_fract_x
  _atom_site_fract_y
  _atom_site_fract_z
  _atom_site_occupancy
  Cu  Cu1       1.0  0.43900  0.60200  0.33100  1.0000
  Cu  Cu2       1.0  0.93900  0.89800  0.33100  1.0000
  Cu  Cu3       1.0  0.06100  0.10200  0.66900  1.0000
  Cu  Cu4       1.0  0.56100  0.39800  0.66900  1.0000
  H   H1        1.0  0.33400  0.35000  0.02500  1.0000
  H   H2        1.0  0.83400  0.15000  0.02500  1.0000
  H   H3        1.0  0.00869  0.44100  0.19100  1.0000
  H   H4        1.0  0.50900  0.05860  0.19100  1.0000
  H   H5        1.0  0.66800  0.42400  0.32100  1.0000
  H   H6        1.0  0.16800  0.07630  0.32100  1.0000
  H   H7        1.0  0.38300  0.89500  0.44300  1.0000
  H   H8        1.0  0.88300  0.60500  0.44300  1.0000
  H   H9        1.0  0.11700  0.39500  0.55700  1.0000
  H   H10       1.0  0.61700  0.10500  0.55700  1.0000
  H   H11       1.0  0.33200  0.57600  0.67900  1.0000
  H   H12       1.0  0.83200  0.92400  0.67900  1.0000
  H   H13       1.0  0.99100  0.55900  0.80900  1.0000
  H   H14       1.0  0.49100  0.94100  0.80900  1.0000
  H   H15       1.0  0.16600  0.85000  0.97500  1.0000
  H   H16       1.0  0.66600  0.65000  0.97500  1.0000
  O   O1        1.0  0.78800  0.89800  0.08930  1.0000
  O   O2        1.0  0.28800  0.60200  0.08930  1.0000
  O   O3        1.0  0.42100  0.95600  0.16100  1.0000
  O   O4        1.0  0.92100  0.54400  0.16100  1.0000
  O   O5        1.0  0.61700  0.49200  0.20900  1.0000
  O   O6        1.0  0.11700  0.00808  0.20900  1.0000
  O   O7        1.0  0.09700  0.33500  0.22800  1.0000
  O   O8        1.0  0.59700  0.16500  0.22800  1.0000
  O   O9        1.0  0.38500  0.38400  0.44200  1.0000
  O   O10       1.0  0.88500  0.11600  0.44200  1.0000
  O   O11       1.0  0.77600  0.83400  0.49800  1.0000
  O   O12       1.0  0.27600  0.66600  0.49800  1.0000
  O   O13       1.0  0.22400  0.16600  0.50200  1.0000
  O   O14       1.0  0.72400  0.33400  0.50200  1.0000
  O   O15       1.0  0.11500  0.88400  0.55800  1.0000
  O   O16       1.0  0.61500  0.61600  0.55800  1.0000
  O   O17       1.0  0.40300  0.83500  0.77200  1.0000
  O   O18       1.0  0.90300  0.66500  0.77200  1.0000
  O   O19       1.0  0.38300  0.50800  0.79100  1.0000
  O   O20       1.0  0.88300  0.99200  0.79100  1.0000
  O   O21       1.0  0.07950  0.45600  0.83900  1.0000
  O   O22       1.0  0.57900  0.04390  0.83900  1.0000
  O   O23       1.0  0.71200  0.39800  0.91100  1.0000
  O   O24       1.0  0.21200  0.10200  0.91100  1.0000
  P   P1        1.0  0.23500  0.97800  0.05190  1.0000
  P   P2        1.0  0.73500  0.52200  0.05190  1.0000
  P   P3        1.0  0.20200  0.32200  0.43200  1.0000
  P   P4        1.0  0.70200  0.17800  0.43200  1.0000
  P   P5        1.0  0.29800  0.82200  0.56800  1.0000
  P   P6        1.0  0.79800  0.67800  0.56800  1.0000
  P   P7        1.0  0.26500  0.47800  0.94800  1.0000
  P   P8        1.0  0.76500  0.02170  0.94800  1.0000
