data_image0
_chemical_formula_structural       Nd6Zn44
_chemical_formula_sum              "Nd6 Zn44"
_cell_length_a       12.3068
_cell_length_b       8.85807
_cell_length_c       8.85807
_cell_angle_alpha    90
_cell_angle_beta     111.093
_cell_angle_gamma    111.093

_space_group_name_H-M_alt    "P 1"
_space_group_IT_number       1

loop_
  _space_group_symop_operation_xyz
  'x, y, z'

loop_
  _atom_site_type_symbol
  _atom_site_label
  _atom_site_symmetry_multiplicity
  _atom_site_fract_x
  _atom_site_fract_y
  _atom_site_fract_z
  _atom_site_occupancy
  Nd  Nd1       1.0  0.50800  0.25400  0.00388  1.0000
  Nd  Nd2       1.0  0.99200  0.49600  0.24600  1.0000
  Nd  Nd3       1.0  0.25000  0.12500  0.37500  1.0000
  Nd  Nd4       1.0  0.75000  0.87500  0.62500  1.0000
  Nd  Nd5       1.0  0.00777  0.50400  0.75400  1.0000
  Nd  Nd6       1.0  0.49200  0.74600  0.99600  1.0000
  Zn  Zn1       1.0  0.00000  0.00000  0.00000  1.0000
  Zn  Zn2       1.0  0.23400  0.11700  0.01410  1.0000
  Zn  Zn3       1.0  0.12200  0.31900  0.08010  1.0000
  Zn  Zn4       1.0  0.12200  0.80300  0.08010  1.0000
  Zn  Zn5       1.0  0.24700  0.62400  0.09600  1.0000
  Zn  Zn6       1.0  0.74700  0.15100  0.12400  1.0000
  Zn  Zn7       1.0  0.74700  0.59600  0.12400  1.0000
  Zn  Zn8       1.0  0.37800  0.42000  0.18100  1.0000
  Zn  Zn9       1.0  0.37800  0.95800  0.18100  1.0000
  Zn  Zn10      1.0  0.97400  0.13900  0.23700  1.0000
  Zn  Zn11      1.0  0.97400  0.83500  0.23700  1.0000
  Zn  Zn12      1.0  0.76600  0.88300  0.28000  1.0000
  Zn  Zn13      1.0  0.62200  0.04200  0.30300  1.0000
  Zn  Zn14      1.0  0.62200  0.58000  0.30300  1.0000
  Zn  Zn15      1.0  0.47400  0.73700  0.33500  1.0000
  Zn  Zn16      1.0  0.75300  0.37600  0.34900  1.0000
  Zn  Zn17      1.0  0.52600  0.26300  0.36100  1.0000
  Zn  Zn18      1.0  0.26600  0.48600  0.38300  1.0000
  Zn  Zn19      1.0  0.26600  0.78000  0.38300  1.0000
  Zn  Zn20      1.0  0.87800  0.19700  0.45800  1.0000
  Zn  Zn21      1.0  0.87800  0.68100  0.45800  1.0000
  Zn  Zn22      1.0  0.50000  0.00000  0.50000  1.0000
  Zn  Zn23      1.0  0.50000  0.50000  0.50000  1.0000
  Zn  Zn24      1.0  0.00000  0.00000  0.50000  1.0000
  Zn  Zn25      1.0  0.12200  0.31900  0.54200  1.0000
  Zn  Zn26      1.0  0.12200  0.80300  0.54200  1.0000
  Zn  Zn27      1.0  0.73400  0.22000  0.61700  1.0000
  Zn  Zn28      1.0  0.73400  0.51400  0.61700  1.0000
  Zn  Zn29      1.0  0.47400  0.73700  0.63900  1.0000
  Zn  Zn30      1.0  0.24700  0.62400  0.65100  1.0000
  Zn  Zn31      1.0  0.52600  0.26300  0.66500  1.0000
  Zn  Zn32      1.0  0.37800  0.42000  0.69700  1.0000
  Zn  Zn33      1.0  0.37800  0.95800  0.69700  1.0000
  Zn  Zn34      1.0  0.23400  0.11700  0.72000  1.0000
  Zn  Zn35      1.0  0.02610  0.16500  0.76300  1.0000
  Zn  Zn36      1.0  0.02610  0.86100  0.76300  1.0000
  Zn  Zn37      1.0  0.62200  0.04200  0.81900  1.0000
  Zn  Zn38      1.0  0.62200  0.58000  0.81900  1.0000
  Zn  Zn39      1.0  0.25300  0.40400  0.87600  1.0000
  Zn  Zn40      1.0  0.25300  0.84900  0.87600  1.0000
  Zn  Zn41      1.0  0.75300  0.37600  0.90400  1.0000
  Zn  Zn42      1.0  0.87800  0.19700  0.92000  1.0000
  Zn  Zn43      1.0  0.87800  0.68100  0.92000  1.0000
  Zn  Zn44      1.0  0.76600  0.88300  0.98600  1.0000
