data_image0
_chemical_formula_structural       F20H12K4Na4O6Sb4
_chemical_formula_sum              "F20 H12 K4 Na4 O6 Sb4"
_cell_length_a       5.91759
_cell_length_b       16.5325
_cell_length_c       5.89163
_cell_angle_alpha    89.9998
_cell_angle_beta     90.2613
_cell_angle_gamma    89.9997

_space_group_name_H-M_alt    "P 1"
_space_group_IT_number       1

loop_
  _space_group_symop_operation_xyz
  'x, y, z'

loop_
  _atom_site_type_symbol
  _atom_site_label
  _atom_site_symmetry_multiplicity
  _atom_site_fract_x
  _atom_site_fract_y
  _atom_site_fract_z
  _atom_site_occupancy
  F   F1        1.0  0.99900  0.86400  0.00823  1.0000
  F   F2        1.0  0.99900  0.63600  0.00823  1.0000
  F   F3        1.0  0.50700  0.60700  0.01230  1.0000
  F   F4        1.0  0.50700  0.89300  0.01230  1.0000
  F   F5        1.0  0.78900  0.98100  0.21500  1.0000
  F   F6        1.0  0.78900  0.51900  0.21500  1.0000
  F   F7        1.0  0.51000  0.59100  0.48900  1.0000
  F   F8        1.0  0.51000  0.90900  0.48900  1.0000
  F   F9        1.0  0.01680  0.39100  0.49900  1.0000
  F   F10       1.0  0.01680  0.10900  0.49900  1.0000
  F   F11       1.0  0.98300  0.89100  0.50100  1.0000
  F   F12       1.0  0.98300  0.60900  0.50100  1.0000
  F   F13       1.0  0.49000  0.09130  0.51100  1.0000
  F   F14       1.0  0.49000  0.40900  0.51100  1.0000
  F   F15       1.0  0.21100  0.48100  0.78500  1.0000
  F   F16       1.0  0.21100  0.01940  0.78500  1.0000
  F   F17       1.0  0.49300  0.10700  0.98800  1.0000
  F   F18       1.0  0.49300  0.39300  0.98800  1.0000
  F   F19       1.0  0.00128  0.36400  0.99200  1.0000
  F   F20       1.0  0.00129  0.13600  0.99200  1.0000
  H   H1        1.0  0.20300  0.79700  0.15100  1.0000
  H   H2        1.0  0.20300  0.70300  0.15100  1.0000
  H   H3        1.0  0.14600  0.20300  0.21200  1.0000
  H   H4        1.0  0.14600  0.29700  0.21200  1.0000
  H   H5        1.0  0.52200  0.25000  0.28300  1.0000
  H   H6        1.0  0.71100  0.25000  0.47600  1.0000
  H   H7        1.0  0.28900  0.75000  0.52400  1.0000
  H   H8        1.0  0.47800  0.75000  0.71700  1.0000
  H   H9        1.0  0.85400  0.70300  0.78800  1.0000
  H   H10       1.0  0.85400  0.79700  0.78800  1.0000
  H   H11       1.0  0.79700  0.29700  0.84900  1.0000
  H   H12       1.0  0.79700  0.20300  0.84900  1.0000
  K   K1        1.0  0.23800  0.50100  0.23900  1.0000
  K   K2        1.0  0.23800  0.99900  0.23900  1.0000
  K   K3        1.0  0.76200  0.00051  0.76100  1.0000
  K   K4        1.0  0.76200  0.49900  0.76100  1.0000
  Na  Na1       1.0  0.74400  0.11600  0.25400  1.0000
  Na  Na2       1.0  0.74400  0.38400  0.25400  1.0000
  Na  Na3       1.0  0.25600  0.61600  0.74600  1.0000
  Na  Na4       1.0  0.25600  0.88400  0.74600  1.0000
  O   O1        1.0  0.26500  0.75000  0.23400  1.0000
  O   O2        1.0  0.23200  0.25000  0.26700  1.0000
  O   O3        1.0  0.68800  0.25000  0.30800  1.0000
  O   O4        1.0  0.31200  0.75000  0.69200  1.0000
  O   O5        1.0  0.76800  0.75000  0.73300  1.0000
  O   O6        1.0  0.73500  0.25000  0.76600  1.0000
  Sb  Sb1       1.0  0.73700  0.64000  0.26400  1.0000
  Sb  Sb2       1.0  0.73700  0.86000  0.26400  1.0000
  Sb  Sb3       1.0  0.26300  0.14000  0.73600  1.0000
  Sb  Sb4       1.0  0.26300  0.36000  0.73600  1.0000
