data_image0
_chemical_formula_structural       C2Cl2H12N4Na2O4
_chemical_formula_sum              "C2 Cl2 H12 N4 Na2 O4"
_cell_length_a       5.03104
_cell_length_b       6.2834
_cell_length_c       9.49494
_cell_angle_alpha    108.897
_cell_angle_beta     105.363
_cell_angle_gamma    90

_space_group_name_H-M_alt    "P 1"
_space_group_IT_number       1

loop_
  _space_group_symop_operation_xyz
  'x, y, z'

loop_
  _atom_site_type_symbol
  _atom_site_label
  _atom_site_symmetry_multiplicity
  _atom_site_fract_x
  _atom_site_fract_y
  _atom_site_fract_z
  _atom_site_occupancy
  C   C1        1.0  0.63400  0.66600  0.32400  1.0000
  C   C2        1.0  0.31000  0.33400  0.67600  1.0000
  Cl  Cl1       1.0  0.04070  0.11400  0.23600  1.0000
  Cl  Cl2       1.0  0.80400  0.88600  0.76400  1.0000
  H   H1        1.0  0.21200  0.54100  0.08750  1.0000
  H   H2        1.0  0.29900  0.05210  0.08940  1.0000
  H   H3        1.0  0.35400  0.90400  0.33000  1.0000
  H   H4        1.0  0.92100  0.44600  0.35900  1.0000
  H   H5        1.0  0.36100  0.34200  0.46900  1.0000
  H   H6        1.0  0.03130  0.10500  0.48700  1.0000
  H   H7        1.0  0.54500  0.89500  0.51300  1.0000
  H   H8        1.0  0.89200  0.65800  0.53100  1.0000
  H   H9        1.0  0.56100  0.55400  0.64100  1.0000
  H   H10       1.0  0.02320  0.09620  0.67000  1.0000
  H   H11       1.0  0.21000  0.94800  0.91100  1.0000
  H   H12       1.0  0.12400  0.45900  0.91300  1.0000
  N   N1        1.0  0.50400  0.83800  0.39600  1.0000
  N   N2        1.0  0.84100  0.59100  0.41300  1.0000
  N   N3        1.0  0.42900  0.40900  0.58700  1.0000
  N   N4        1.0  0.10900  0.16200  0.60400  1.0000
  Na  Na1       1.0  0.69400  0.74000  0.00416  1.0000
  Na  Na2       1.0  0.69000  0.26000  0.99600  1.0000
  O   O1        1.0  0.37800  0.00000  0.00000  1.0000
  O   O2        1.0  0.03910  0.50000  0.00000  1.0000
  O   O3        1.0  0.56600  0.58000  0.17700  1.0000
  O   O4        1.0  0.39000  0.42000  0.82300  1.0000
