data_image0
_chemical_formula_structural       Ba8O32V8Zn4
_chemical_formula_sum              "Ba8 O32 V8 Zn4"
_cell_length_a       7.90197
_cell_length_b       16.1426
_cell_length_c       6.15808
_cell_angle_alpha    90
_cell_angle_beta     90.4477
_cell_angle_gamma    90

_space_group_name_H-M_alt    "P 1"
_space_group_IT_number       1

loop_
  _space_group_symop_operation_xyz
  'x, y, z'

loop_
  _atom_site_type_symbol
  _atom_site_label
  _atom_site_symmetry_multiplicity
  _atom_site_fract_x
  _atom_site_fract_y
  _atom_site_fract_z
  _atom_site_occupancy
  Ba  Ba1       1.0  0.85800  0.62900  0.22400  1.0000
  Ba  Ba2       1.0  0.63900  0.04400  0.23600  1.0000
  Ba  Ba3       1.0  0.36100  0.54400  0.26400  1.0000
  Ba  Ba4       1.0  0.14200  0.12900  0.27600  1.0000
  Ba  Ba5       1.0  0.85800  0.87100  0.72400  1.0000
  Ba  Ba6       1.0  0.63900  0.45600  0.73600  1.0000
  Ba  Ba7       1.0  0.36100  0.95600  0.76400  1.0000
  Ba  Ba8       1.0  0.14200  0.37100  0.77600  1.0000
  O   O1        1.0  0.85100  0.35400  0.00458  1.0000
  O   O2        1.0  0.12800  0.84800  0.00480  1.0000
  O   O3        1.0  0.42400  0.39900  0.02890  1.0000
  O   O4        1.0  0.60500  0.88700  0.02980  1.0000
  O   O5        1.0  0.21100  0.28400  0.18500  1.0000
  O   O6        1.0  0.28800  0.97600  0.22700  1.0000
  O   O7        1.0  0.05420  0.46900  0.24000  1.0000
  O   O8        1.0  0.57300  0.25300  0.24700  1.0000
  O   O9        1.0  0.42700  0.75300  0.25300  1.0000
  O   O10       1.0  0.94600  0.96900  0.26000  1.0000
  O   O11       1.0  0.71200  0.47600  0.27300  1.0000
  O   O12       1.0  0.78900  0.78400  0.31500  1.0000
  O   O13       1.0  0.39500  0.38700  0.47000  1.0000
  O   O14       1.0  0.57600  0.89900  0.47100  1.0000
  O   O15       1.0  0.87200  0.34800  0.49500  1.0000
  O   O16       1.0  0.14900  0.85400  0.49500  1.0000
  O   O17       1.0  0.85100  0.14600  0.50500  1.0000
  O   O18       1.0  0.12800  0.65200  0.50500  1.0000
  O   O19       1.0  0.42400  0.10100  0.52900  1.0000
  O   O20       1.0  0.60500  0.61300  0.53000  1.0000
  O   O21       1.0  0.21100  0.21600  0.68500  1.0000
  O   O22       1.0  0.28800  0.52400  0.72700  1.0000
  O   O23       1.0  0.05420  0.03090  0.74000  1.0000
  O   O24       1.0  0.57300  0.24700  0.74700  1.0000
  O   O25       1.0  0.42700  0.74700  0.75300  1.0000
  O   O26       1.0  0.94600  0.53100  0.76000  1.0000
  O   O27       1.0  0.71200  0.02420  0.77300  1.0000
  O   O28       1.0  0.78900  0.71600  0.81500  1.0000
  O   O29       1.0  0.39500  0.11300  0.97000  1.0000
  O   O30       1.0  0.57600  0.60100  0.97100  1.0000
  O   O31       1.0  0.87200  0.15200  0.99500  1.0000
  O   O32       1.0  0.14900  0.64600  0.99500  1.0000
  V   V1        1.0  0.40200  0.32900  0.23700  1.0000
  V   V2        1.0  0.12200  0.90900  0.24700  1.0000
  V   V3        1.0  0.87800  0.40900  0.25300  1.0000
  V   V4        1.0  0.59800  0.82900  0.26300  1.0000
  V   V5        1.0  0.40200  0.17100  0.73700  1.0000
  V   V6        1.0  0.12200  0.59100  0.74700  1.0000
  V   V7        1.0  0.87800  0.09090  0.75300  1.0000
  V   V8        1.0  0.59800  0.67100  0.76300  1.0000
  Zn  Zn1       1.0  0.27300  0.75000  0.00114  1.0000
  Zn  Zn2       1.0  0.72700  0.25000  0.49900  1.0000
  Zn  Zn3       1.0  0.27300  0.75000  0.50100  1.0000
  Zn  Zn4       1.0  0.72700  0.25000  0.99900  1.0000
