data_image0
_chemical_formula_structural       O24P16Se12
_chemical_formula_sum              "O24 P16 Se12"
_cell_length_a       9.57731
_cell_length_b       8.36188
_cell_length_c       12.538
_cell_angle_alpha    90
_cell_angle_beta     90.1947
_cell_angle_gamma    90

_space_group_name_H-M_alt    "P 1"
_space_group_IT_number       1

loop_
  _space_group_symop_operation_xyz
  'x, y, z'

loop_
  _atom_site_type_symbol
  _atom_site_label
  _atom_site_symmetry_multiplicity
  _atom_site_fract_x
  _atom_site_fract_y
  _atom_site_fract_z
  _atom_site_occupancy
  O   O1        1.0  0.60600  0.39900  0.13900  1.0000
  O   O2        1.0  0.10600  0.10100  0.13900  1.0000
  O   O3        1.0  0.96900  0.85500  0.19300  1.0000
  O   O4        1.0  0.46900  0.64500  0.19300  1.0000
  O   O5        1.0  0.71600  0.60800  0.25900  1.0000
  O   O6        1.0  0.21600  0.89200  0.25900  1.0000
  O   O7        1.0  0.90300  0.12800  0.26800  1.0000
  O   O8        1.0  0.40300  0.37200  0.26800  1.0000
  O   O9        1.0  0.65000  0.33700  0.33400  1.0000
  O   O10       1.0  0.15000  0.16300  0.33400  1.0000
  O   O11       1.0  0.01610  0.91700  0.38900  1.0000
  O   O12       1.0  0.51600  0.58300  0.38900  1.0000
  O   O13       1.0  0.98400  0.08330  0.61100  1.0000
  O   O14       1.0  0.48400  0.41700  0.61100  1.0000
  O   O15       1.0  0.35000  0.66300  0.66600  1.0000
  O   O16       1.0  0.85000  0.83700  0.66600  1.0000
  O   O17       1.0  0.59700  0.62800  0.73200  1.0000
  O   O18       1.0  0.09690  0.87200  0.73200  1.0000
  O   O19       1.0  0.78400  0.10800  0.74100  1.0000
  O   O20       1.0  0.28400  0.39200  0.74100  1.0000
  O   O21       1.0  0.53100  0.35500  0.80700  1.0000
  O   O22       1.0  0.03060  0.14500  0.80700  1.0000
  O   O23       1.0  0.39400  0.60100  0.86100  1.0000
  O   O24       1.0  0.89400  0.89900  0.86100  1.0000
  P   P1        1.0  0.62200  0.59400  0.14900  1.0000
  P   P2        1.0  0.12200  0.90600  0.14900  1.0000
  P   P3        1.0  0.54700  0.28500  0.23500  1.0000
  P   P4        1.0  0.04690  0.21500  0.23500  1.0000
  P   P5        1.0  0.88500  0.93300  0.29900  1.0000
  P   P6        1.0  0.38500  0.56700  0.29900  1.0000
  P   P7        1.0  0.67400  0.52200  0.37200  1.0000
  P   P8        1.0  0.17400  0.97800  0.37200  1.0000
  P   P9        1.0  0.82600  0.02190  0.62800  1.0000
  P   P10       1.0  0.32600  0.47800  0.62800  1.0000
  P   P11       1.0  0.61500  0.43300  0.70100  1.0000
  P   P12       1.0  0.11500  0.06720  0.70100  1.0000
  P   P13       1.0  0.95300  0.78500  0.76500  1.0000
  P   P14       1.0  0.45300  0.71500  0.76500  1.0000
  P   P15       1.0  0.37800  0.40600  0.85100  1.0000
  P   P16       1.0  0.87800  0.09400  0.85100  1.0000
  Se  Se1       1.0  0.70200  0.70900  0.02120  1.0000
  Se  Se2       1.0  0.20200  0.79100  0.02120  1.0000
  Se  Se3       1.0  0.53900  0.04700  0.20000  1.0000
  Se  Se4       1.0  0.03900  0.45300  0.20000  1.0000
  Se  Se5       1.0  0.81600  0.55300  0.49200  1.0000
  Se  Se6       1.0  0.31600  0.94700  0.49200  1.0000
  Se  Se7       1.0  0.18400  0.44700  0.50800  1.0000
  Se  Se8       1.0  0.68400  0.05300  0.50800  1.0000
  Se  Se9       1.0  0.46100  0.95300  0.80000  1.0000
  Se  Se10      1.0  0.96100  0.54700  0.80000  1.0000
  Se  Se11      1.0  0.79800  0.20900  0.97900  1.0000
  Se  Se12      1.0  0.29800  0.29100  0.97900  1.0000
