data_image0
_chemical_formula_structural       H24Mg2O20P2Tl2
_chemical_formula_sum              "H24 Mg2 O20 P2 Tl2"
_cell_length_a       6.73276
_cell_length_b       6.02998
_cell_length_c       11.119
_cell_angle_alpha    90
_cell_angle_beta     90
_cell_angle_gamma    90

_space_group_name_H-M_alt    "P 1"
_space_group_IT_number       1

loop_
  _space_group_symop_operation_xyz
  'x, y, z'

loop_
  _atom_site_type_symbol
  _atom_site_label
  _atom_site_symmetry_multiplicity
  _atom_site_fract_x
  _atom_site_fract_y
  _atom_site_fract_z
  _atom_site_occupancy
  H   H1        1.0  0.25000  0.35100  0.01190  1.0000
  H   H2        1.0  0.75000  0.35100  0.01190  1.0000
  H   H3        1.0  0.17400  0.60400  0.02530  1.0000
  H   H4        1.0  0.82600  0.60400  0.02530  1.0000
  H   H5        1.0  0.20600  0.20500  0.18800  1.0000
  H   H6        1.0  0.79400  0.20500  0.18800  1.0000
  H   H7        1.0  0.00000  0.73200  0.21300  1.0000
  H   H8        1.0  0.32700  0.17500  0.31200  1.0000
  H   H9        1.0  0.67300  0.17500  0.31200  1.0000
  H   H10       1.0  0.00000  0.84300  0.34600  1.0000
  H   H11       1.0  0.12000  0.00541  0.49900  1.0000
  H   H12       1.0  0.88000  0.00541  0.49900  1.0000
  H   H13       1.0  0.25000  0.64900  0.51200  1.0000
  H   H14       1.0  0.75000  0.64900  0.51200  1.0000
  H   H15       1.0  0.32600  0.39600  0.52500  1.0000
  H   H16       1.0  0.67400  0.39600  0.52500  1.0000
  H   H17       1.0  0.29400  0.79500  0.68800  1.0000
  H   H18       1.0  0.70600  0.79500  0.68800  1.0000
  H   H19       1.0  0.50000  0.26800  0.71300  1.0000
  H   H20       1.0  0.17300  0.82500  0.81200  1.0000
  H   H21       1.0  0.82700  0.82500  0.81200  1.0000
  H   H22       1.0  0.50000  0.15700  0.84600  1.0000
  H   H23       1.0  0.38000  0.99500  0.99900  1.0000
  H   H24       1.0  0.62000  0.99500  0.99900  1.0000
  Mg  Mg1       1.0  0.00000  0.38800  0.37800  1.0000
  Mg  Mg2       1.0  0.50000  0.61200  0.87800  1.0000
  O   O1        1.0  0.18900  0.10900  0.05610  1.0000
  O   O2        1.0  0.81100  0.10900  0.05610  1.0000
  O   O3        1.0  0.00000  0.75100  0.06950  1.0000
  O   O4        1.0  0.23000  0.27600  0.26900  1.0000
  O   O5        1.0  0.77000  0.27600  0.26900  1.0000
  O   O6        1.0  0.00000  0.70100  0.30200  1.0000
  O   O7        1.0  0.50000  0.03020  0.37400  1.0000
  O   O8        1.0  0.00000  0.06530  0.45500  1.0000
  O   O9        1.0  0.20900  0.49000  0.49900  1.0000
  O   O10       1.0  0.79100  0.49000  0.49900  1.0000
  O   O11       1.0  0.31100  0.89100  0.55600  1.0000
  O   O12       1.0  0.68900  0.89100  0.55600  1.0000
  O   O13       1.0  0.50000  0.24900  0.57000  1.0000
  O   O14       1.0  0.27000  0.72400  0.76900  1.0000
  O   O15       1.0  0.73000  0.72400  0.76900  1.0000
  O   O16       1.0  0.50000  0.29900  0.80200  1.0000
  O   O17       1.0  0.00000  0.97000  0.87400  1.0000
  O   O18       1.0  0.50000  0.93500  0.95500  1.0000
  O   O19       1.0  0.29100  0.51000  0.99900  1.0000
  O   O20       1.0  0.70900  0.51000  0.99900  1.0000
  P   P1        1.0  0.00000  0.98700  0.01210  1.0000
  P   P2        1.0  0.50000  0.01320  0.51200  1.0000
  Tl  Tl1       1.0  0.50000  0.62300  0.22600  1.0000
  Tl  Tl2       1.0  0.00000  0.37700  0.72600  1.0000
