data_image0
_chemical_formula_structural       Cl40Pd4Te8
_chemical_formula_sum              "Cl40 Pd4 Te8"
_cell_length_a       15.4907
_cell_length_b       13.9255
_cell_length_c       7.26044
_cell_angle_alpha    90
_cell_angle_beta     90
_cell_angle_gamma    90.3215

_space_group_name_H-M_alt    "P 1"
_space_group_IT_number       1

loop_
  _space_group_symop_operation_xyz
  'x, y, z'

loop_
  _atom_site_type_symbol
  _atom_site_label
  _atom_site_symmetry_multiplicity
  _atom_site_fract_x
  _atom_site_fract_y
  _atom_site_fract_z
  _atom_site_occupancy
  Cl  Cl1       1.0  0.74000  0.78000  0.06620  1.0000
  Cl  Cl2       1.0  0.33800  0.00278  0.07260  1.0000
  Cl  Cl3       1.0  0.21200  0.45900  0.11400  1.0000
  Cl  Cl4       1.0  0.81000  0.29000  0.12000  1.0000
  Cl  Cl5       1.0  0.02160  0.62800  0.14800  1.0000
  Cl  Cl6       1.0  0.50500  0.83800  0.17800  1.0000
  Cl  Cl7       1.0  0.12900  0.87700  0.18700  1.0000
  Cl  Cl8       1.0  0.41000  0.59300  0.19100  1.0000
  Cl  Cl9       1.0  0.11700  0.11000  0.21900  1.0000
  Cl  Cl10      1.0  0.42400  0.35700  0.22300  1.0000
  Cl  Cl11      1.0  0.92400  0.85700  0.27700  1.0000
  Cl  Cl12      1.0  0.61700  0.61000  0.28100  1.0000
  Cl  Cl13      1.0  0.91000  0.09310  0.30900  1.0000
  Cl  Cl14      1.0  0.62900  0.37700  0.31300  1.0000
  Cl  Cl15      1.0  0.00500  0.33800  0.32200  1.0000
  Cl  Cl16      1.0  0.52200  0.12800  0.35200  1.0000
  Cl  Cl17      1.0  0.31000  0.79000  0.38000  1.0000
  Cl  Cl18      1.0  0.71200  0.95900  0.38600  1.0000
  Cl  Cl19      1.0  0.83800  0.50300  0.42700  1.0000
  Cl  Cl20      1.0  0.24000  0.28000  0.43400  1.0000
  Cl  Cl21      1.0  0.76000  0.72000  0.56600  1.0000
  Cl  Cl22      1.0  0.16200  0.49700  0.57300  1.0000
  Cl  Cl23      1.0  0.28800  0.04140  0.61400  1.0000
  Cl  Cl24      1.0  0.69000  0.21000  0.62000  1.0000
  Cl  Cl25      1.0  0.47800  0.87200  0.64800  1.0000
  Cl  Cl26      1.0  0.99500  0.66200  0.67800  1.0000
  Cl  Cl27      1.0  0.37100  0.62300  0.68700  1.0000
  Cl  Cl28      1.0  0.08990  0.90700  0.69100  1.0000
  Cl  Cl29      1.0  0.38300  0.39000  0.71900  1.0000
  Cl  Cl30      1.0  0.07610  0.14300  0.72300  1.0000
  Cl  Cl31      1.0  0.57600  0.64300  0.77700  1.0000
  Cl  Cl32      1.0  0.88300  0.89000  0.78100  1.0000
  Cl  Cl33      1.0  0.59000  0.40700  0.80900  1.0000
  Cl  Cl34      1.0  0.87100  0.12300  0.81300  1.0000
  Cl  Cl35      1.0  0.49500  0.16200  0.82200  1.0000
  Cl  Cl36      1.0  0.97800  0.37200  0.85200  1.0000
  Cl  Cl37      1.0  0.19000  0.71000  0.88000  1.0000
  Cl  Cl38      1.0  0.78800  0.54100  0.88600  1.0000
  Cl  Cl39      1.0  0.66200  0.99700  0.92700  1.0000
  Cl  Cl40      1.0  0.26000  0.22000  0.93400  1.0000
  Pd  Pd1       1.0  0.02000  0.98500  0.24700  1.0000
  Pd  Pd2       1.0  0.52000  0.48500  0.25300  1.0000
  Pd  Pd3       1.0  0.48000  0.51500  0.74700  1.0000
  Pd  Pd4       1.0  0.98000  0.01520  0.75300  1.0000
  Te  Te1       1.0  0.95400  0.24700  0.06800  1.0000
  Te  Te2       1.0  0.78300  0.94100  0.09930  1.0000
  Te  Te3       1.0  0.28300  0.44100  0.40100  1.0000
  Te  Te4       1.0  0.45400  0.74700  0.43200  1.0000
  Te  Te5       1.0  0.54600  0.25300  0.56800  1.0000
  Te  Te6       1.0  0.71700  0.55900  0.59900  1.0000
  Te  Te7       1.0  0.21700  0.05940  0.90100  1.0000
  Te  Te8       1.0  0.04560  0.75300  0.93200  1.0000
