data_image0
_chemical_formula_structural       Cl36Cs2Lu2Nb12
_chemical_formula_sum              "Cl36 Cs2 Lu2 Nb12"
_cell_length_a       9.26489
_cell_length_b       9.26452
_cell_length_c       17.3159
_cell_angle_alpha    90.0014
_cell_angle_beta     89.9993
_cell_angle_gamma    119.999

_space_group_name_H-M_alt    "P 1"
_space_group_IT_number       1

loop_
  _space_group_symop_operation_xyz
  'x, y, z'

loop_
  _atom_site_type_symbol
  _atom_site_label
  _atom_site_symmetry_multiplicity
  _atom_site_fract_x
  _atom_site_fract_y
  _atom_site_fract_z
  _atom_site_occupancy
  Cl  Cl1       1.0  0.57800  0.72000  0.00144  1.0000
  Cl  Cl2       1.0  0.28000  0.85800  0.00144  1.0000
  Cl  Cl3       1.0  0.14200  0.42200  0.00144  1.0000
  Cl  Cl4       1.0  0.04790  0.81100  0.16200  1.0000
  Cl  Cl5       1.0  0.18900  0.23700  0.16200  1.0000
  Cl  Cl6       1.0  0.76300  0.95200  0.16200  1.0000
  Cl  Cl7       1.0  0.45400  0.08940  0.16300  1.0000
  Cl  Cl8       1.0  0.63600  0.54600  0.16300  1.0000
  Cl  Cl9       1.0  0.91100  0.36400  0.16300  1.0000
  Cl  Cl10      1.0  0.91100  0.54600  0.33700  1.0000
  Cl  Cl11      1.0  0.63600  0.08940  0.33700  1.0000
  Cl  Cl12      1.0  0.45400  0.36400  0.33700  1.0000
  Cl  Cl13      1.0  0.76300  0.81100  0.33800  1.0000
  Cl  Cl14      1.0  0.18900  0.95200  0.33800  1.0000
  Cl  Cl15      1.0  0.04790  0.23700  0.33800  1.0000
  Cl  Cl16      1.0  0.14200  0.72000  0.49900  1.0000
  Cl  Cl17      1.0  0.28000  0.42200  0.49900  1.0000
  Cl  Cl18      1.0  0.57800  0.85800  0.49900  1.0000
  Cl  Cl19      1.0  0.42200  0.14200  0.50100  1.0000
  Cl  Cl20      1.0  0.72000  0.57800  0.50100  1.0000
  Cl  Cl21      1.0  0.85800  0.28000  0.50100  1.0000
  Cl  Cl22      1.0  0.95200  0.76300  0.66200  1.0000
  Cl  Cl23      1.0  0.81100  0.04790  0.66200  1.0000
  Cl  Cl24      1.0  0.23700  0.18900  0.66200  1.0000
  Cl  Cl25      1.0  0.54600  0.63600  0.66300  1.0000
  Cl  Cl26      1.0  0.36400  0.91100  0.66300  1.0000
  Cl  Cl27      1.0  0.08950  0.45400  0.66300  1.0000
  Cl  Cl28      1.0  0.08950  0.63600  0.83700  1.0000
  Cl  Cl29      1.0  0.36400  0.45400  0.83700  1.0000
  Cl  Cl30      1.0  0.54600  0.91100  0.83700  1.0000
  Cl  Cl31      1.0  0.23700  0.04790  0.83800  1.0000
  Cl  Cl32      1.0  0.81100  0.76300  0.83800  1.0000
  Cl  Cl33      1.0  0.95200  0.18900  0.83800  1.0000
  Cl  Cl34      1.0  0.85800  0.57800  0.99900  1.0000
  Cl  Cl35      1.0  0.72000  0.14200  0.99900  1.0000
  Cl  Cl36      1.0  0.42200  0.28000  0.99900  1.0000
  Cs  Cs1       1.0  0.33300  0.66700  0.25000  1.0000
  Cs  Cs2       1.0  0.66700  0.33300  0.75000  1.0000
  Lu  Lu1       1.0  0.66700  0.33300  0.25000  1.0000
  Lu  Lu2       1.0  0.33300  0.66700  0.75000  1.0000
  Nb  Nb1       1.0  0.19900  0.04120  0.06880  1.0000
  Nb  Nb2       1.0  0.84200  0.80100  0.06880  1.0000
  Nb  Nb3       1.0  0.95900  0.15800  0.06880  1.0000
  Nb  Nb4       1.0  0.95900  0.80100  0.43100  1.0000
  Nb  Nb5       1.0  0.84200  0.04120  0.43100  1.0000
  Nb  Nb6       1.0  0.19900  0.15800  0.43100  1.0000
  Nb  Nb7       1.0  0.80100  0.84200  0.56900  1.0000
  Nb  Nb8       1.0  0.15800  0.95900  0.56900  1.0000
  Nb  Nb9       1.0  0.04120  0.19900  0.56900  1.0000
  Nb  Nb10      1.0  0.04120  0.84200  0.93100  1.0000
  Nb  Nb11      1.0  0.15800  0.19900  0.93100  1.0000
  Nb  Nb12      1.0  0.80100  0.95900  0.93100  1.0000
