data_image0
_chemical_formula_structural       Fe2O2Sn2Te2
_chemical_formula_sum              "Fe2 O2 Sn2 Te2"
_cell_length_a       3.29994
_cell_length_b       3.36104
_cell_length_c       16.4659
_cell_angle_alpha    90
_cell_angle_beta     90
_cell_angle_gamma    119.4

_space_group_name_H-M_alt    "P 1"
_space_group_IT_number       1

loop_
  _space_group_symop_operation_xyz
  'x, y, z'

loop_
  _atom_site_type_symbol
  _atom_site_label
  _atom_site_symmetry_multiplicity
  _atom_site_fract_x
  _atom_site_fract_y
  _atom_site_fract_z
  _atom_site_occupancy
  Fe  Fe1       1.0  0.32500  0.65100  0.27400  1.0000
  Fe  Fe2       1.0  0.67500  0.34900  0.77400  1.0000
  O   O1        1.0  0.00740  0.01480  0.32200  1.0000
  O   O2        1.0  0.99300  0.98500  0.82200  1.0000
  Sn  Sn1       1.0  0.00205  0.00410  0.45300  1.0000
  Sn  Sn2       1.0  0.99800  0.99600  0.95300  1.0000
  Te  Te1       1.0  0.66500  0.32900  0.13900  1.0000
  Te  Te2       1.0  0.33500  0.67100  0.63900  1.0000
