data_image0
_chemical_formula_structural       F16O4Ru4
_chemical_formula_sum              "F16 O4 Ru4"
_cell_length_a       5.75788
_cell_length_b       7.70015
_cell_length_c       5.99474
_cell_angle_alpha    90
_cell_angle_beta     92.1013
_cell_angle_gamma    90

_space_group_name_H-M_alt    "P 1"
_space_group_IT_number       1

loop_
  _space_group_symop_operation_xyz
  'x, y, z'

loop_
  _atom_site_type_symbol
  _atom_site_label
  _atom_site_symmetry_multiplicity
  _atom_site_fract_x
  _atom_site_fract_y
  _atom_site_fract_z
  _atom_site_occupancy
  F   F1        1.0  0.64500  0.36700  0.04270  1.0000
  F   F2        1.0  0.64400  0.88200  0.06960  1.0000
  F   F3        1.0  0.95600  0.11100  0.14100  1.0000
  F   F4        1.0  0.24700  0.38200  0.23600  1.0000
  F   F5        1.0  0.25300  0.88200  0.26400  1.0000
  F   F6        1.0  0.54400  0.61100  0.35900  1.0000
  F   F7        1.0  0.85600  0.38200  0.43000  1.0000
  F   F8        1.0  0.85500  0.86700  0.45700  1.0000
  F   F9        1.0  0.14500  0.13300  0.54300  1.0000
  F   F10       1.0  0.14400  0.61800  0.57000  1.0000
  F   F11       1.0  0.45600  0.38900  0.64100  1.0000
  F   F12       1.0  0.74700  0.11800  0.73600  1.0000
  F   F13       1.0  0.75300  0.61800  0.76400  1.0000
  F   F14       1.0  0.04420  0.88900  0.85900  1.0000
  F   F15       1.0  0.35600  0.11800  0.93000  1.0000
  F   F16       1.0  0.35500  0.63300  0.95700  1.0000
  O   O1        1.0  0.95500  0.61800  0.14300  1.0000
  O   O2        1.0  0.54500  0.11800  0.35700  1.0000
  O   O3        1.0  0.45500  0.88200  0.64300  1.0000
  O   O4        1.0  0.04530  0.38200  0.85700  1.0000
  Ru  Ru1       1.0  0.94800  0.83400  0.16700  1.0000
  Ru  Ru2       1.0  0.55200  0.33400  0.33300  1.0000
  Ru  Ru3       1.0  0.44800  0.66600  0.66700  1.0000
  Ru  Ru4       1.0  0.05150  0.16600  0.83300  1.0000
