data_image0
_chemical_formula_structural       H10N10Na4O24Ru2
_chemical_formula_sum              "H10 N10 Na4 O24 Ru2"
_cell_length_a       7.22747
_cell_length_b       9.25175
_cell_length_c       9.25175
_cell_angle_alpha    97.9705
_cell_angle_beta     109.874
_cell_angle_gamma    109.874

_space_group_name_H-M_alt    "P 1"
_space_group_IT_number       1

loop_
  _space_group_symop_operation_xyz
  'x, y, z'

loop_
  _atom_site_type_symbol
  _atom_site_label
  _atom_site_symmetry_multiplicity
  _atom_site_fract_x
  _atom_site_fract_y
  _atom_site_fract_z
  _atom_site_occupancy
  H   H1        1.0  0.86900  0.03780  0.03780  1.0000
  H   H2        1.0  0.82300  0.77400  0.20300  1.0000
  H   H3        1.0  0.17700  0.79700  0.22600  1.0000
  H   H4        1.0  0.26800  0.66600  0.23400  1.0000
  H   H5        1.0  0.73200  0.76600  0.33400  1.0000
  H   H6        1.0  0.26800  0.23400  0.66600  1.0000
  H   H7        1.0  0.73200  0.33400  0.76600  1.0000
  H   H8        1.0  0.82300  0.20300  0.77400  1.0000
  H   H9        1.0  0.17700  0.22600  0.79700  1.0000
  H   H10       1.0  0.13100  0.96200  0.96200  1.0000
  N   N1        1.0  0.17500  0.33800  0.12900  1.0000
  N   N2        1.0  0.82200  0.39400  0.18200  1.0000
  N   N3        1.0  0.17500  0.12900  0.33800  1.0000
  N   N4        1.0  0.82200  0.18200  0.39400  1.0000
  N   N5        1.0  0.20400  0.43800  0.43800  1.0000
  N   N6        1.0  0.79600  0.56200  0.56200  1.0000
  N   N7        1.0  0.17800  0.81800  0.60600  1.0000
  N   N8        1.0  0.82500  0.87100  0.66200  1.0000
  N   N9        1.0  0.17800  0.60600  0.81800  1.0000
  N   N10       1.0  0.82500  0.66200  0.87100  1.0000
  Na  Na1       1.0  0.50000  0.50000  0.00000  1.0000
  Na  Na2       1.0  0.50000  0.89200  0.10800  1.0000
  Na  Na3       1.0  0.50000  0.00000  0.50000  1.0000
  Na  Na4       1.0  0.50000  0.10800  0.89200  1.0000
  O   O1        1.0  0.15300  0.23400  0.01640  1.0000
  O   O2        1.0  0.79300  0.08530  0.08530  1.0000
  O   O3        1.0  0.62000  0.32200  0.11600  1.0000
  O   O4        1.0  0.29900  0.48200  0.15900  1.0000
  O   O5        1.0  0.91300  0.53900  0.19500  1.0000
  O   O6        1.0  0.69100  0.75500  0.21900  1.0000
  O   O7        1.0  0.15300  0.01640  0.23400  1.0000
  O   O8        1.0  0.30900  0.78100  0.24500  1.0000
  O   O9        1.0  0.62000  0.11600  0.32200  1.0000
  O   O10       1.0  0.66000  0.45300  0.45300  1.0000
  O   O11       1.0  0.08680  0.80500  0.46100  1.0000
  O   O12       1.0  0.29900  0.15900  0.48200  1.0000
  O   O13       1.0  0.70100  0.84100  0.51800  1.0000
  O   O14       1.0  0.91300  0.19500  0.53900  1.0000
  O   O15       1.0  0.34000  0.54700  0.54700  1.0000
  O   O16       1.0  0.38000  0.88400  0.67800  1.0000
  O   O17       1.0  0.69100  0.21900  0.75500  1.0000
  O   O18       1.0  0.84700  0.98400  0.76600  1.0000
  O   O19       1.0  0.30900  0.24500  0.78100  1.0000
  O   O20       1.0  0.08680  0.46100  0.80500  1.0000
  O   O21       1.0  0.70100  0.51800  0.84100  1.0000
  O   O22       1.0  0.38000  0.67800  0.88400  1.0000
  O   O23       1.0  0.20700  0.91500  0.91500  1.0000
  O   O24       1.0  0.84700  0.76600  0.98400  1.0000
  Ru  Ru1       1.0  0.00824  0.27100  0.27100  1.0000
  Ru  Ru2       1.0  0.99200  0.72900  0.72900  1.0000
