data_image0
_chemical_formula_structural       Al38Co12Cu
_chemical_formula_sum              "Al38 Co12 Cu1"
_cell_length_a       8.12548
_cell_length_b       8.59363
_cell_length_c       12.385
_cell_angle_alpha    105.896
_cell_angle_beta     90
_cell_angle_gamma    118.214

_space_group_name_H-M_alt    "P 1"
_space_group_IT_number       1

loop_
  _space_group_symop_operation_xyz
  'x, y, z'

loop_
  _atom_site_type_symbol
  _atom_site_label
  _atom_site_symmetry_multiplicity
  _atom_site_fract_x
  _atom_site_fract_y
  _atom_site_fract_z
  _atom_site_occupancy
  Al  Al1       1.0  0.24700  0.99600  0.00238  1.0000
  Al  Al2       1.0  0.74900  0.99600  0.00238  1.0000
  Al  Al3       1.0  0.75400  0.50900  0.02900  1.0000
  Al  Al4       1.0  0.15500  0.73700  0.11300  1.0000
  Al  Al5       1.0  0.58300  0.73700  0.11300  1.0000
  Al  Al6       1.0  0.40300  0.36400  0.11600  1.0000
  Al  Al7       1.0  0.96100  0.36400  0.11600  1.0000
  Al  Al8       1.0  0.52300  0.04640  0.17200  1.0000
  Al  Al9       1.0  0.06400  0.12800  0.17600  1.0000
  Al  Al10      1.0  0.90700  0.81500  0.21700  1.0000
  Al  Al11      1.0  0.70600  0.41200  0.23800  1.0000
  Al  Al12      1.0  0.32100  0.64300  0.28100  1.0000
  Al  Al13      1.0  0.26700  0.97800  0.33600  1.0000
  Al  Al14      1.0  0.71100  0.97800  0.33600  1.0000
  Al  Al15      1.0  0.39600  0.34900  0.33600  1.0000
  Al  Al16      1.0  0.95300  0.34900  0.33600  1.0000
  Al  Al17      1.0  0.92000  0.84000  0.42300  1.0000
  Al  Al18      1.0  0.15800  0.72900  0.48000  1.0000
  Al  Al19      1.0  0.57100  0.72900  0.48000  1.0000
  Al  Al20      1.0  0.76300  0.52500  0.48300  1.0000
  Al  Al21      1.0  0.23300  0.46600  0.52300  1.0000
  Al  Al22      1.0  0.42300  0.26100  0.52600  1.0000
  Al  Al23      1.0  0.83800  0.26100  0.52600  1.0000
  Al  Al24      1.0  0.07600  0.15200  0.58400  1.0000
  Al  Al25      1.0  0.04270  0.64200  0.67000  1.0000
  Al  Al26      1.0  0.59900  0.64200  0.67000  1.0000
  Al  Al27      1.0  0.28300  0.01240  0.67100  1.0000
  Al  Al28      1.0  0.72900  0.01240  0.67100  1.0000
  Al  Al29      1.0  0.67300  0.34500  0.72300  1.0000
  Al  Al30      1.0  0.28900  0.57700  0.76800  1.0000
  Al  Al31      1.0  0.09020  0.18000  0.79000  1.0000
  Al  Al32      1.0  0.93200  0.86400  0.82900  1.0000
  Al  Al33      1.0  0.47200  0.94500  0.83400  1.0000
  Al  Al34      1.0  0.03270  0.62600  0.88900  1.0000
  Al  Al35      1.0  0.59300  0.62600  0.88900  1.0000
  Al  Al36      1.0  0.41500  0.25500  0.89200  1.0000
  Al  Al37      1.0  0.84000  0.25500  0.89200  1.0000
  Al  Al38      1.0  0.24200  0.48400  0.98000  1.0000
  Co  Co1       1.0  0.90700  0.81400  0.01970  1.0000
  Co  Co2       1.0  0.59800  0.19600  0.02050  1.0000
  Co  Co3       1.0  0.04210  0.64200  0.28200  1.0000
  Co  Co4       1.0  0.60000  0.64200  0.28200  1.0000
  Co  Co5       1.0  0.60400  0.20900  0.37300  1.0000
  Co  Co6       1.0  0.07850  0.15700  0.38600  1.0000
  Co  Co7       1.0  0.91700  0.83300  0.62000  1.0000
  Co  Co8       1.0  0.39100  0.78200  0.63200  1.0000
  Co  Co9       1.0  0.39700  0.34900  0.72400  1.0000
  Co  Co10      1.0  0.95300  0.34900  0.72400  1.0000
  Co  Co11      1.0  0.39800  0.79500  0.98600  1.0000
  Co  Co12      1.0  0.08900  0.17800  0.98700  1.0000
  Cu  Cu1       1.0  0.49800  0.99600  0.50300  1.0000
