data_image0
_chemical_formula_structural       Er8Ir26Si18
_chemical_formula_sum              "Er8 Ir26 Si18"
_cell_length_a       19
_cell_length_b       11.01
_cell_length_c       3.94797
_cell_angle_alpha    90
_cell_angle_beta     90
_cell_angle_gamma    90

_space_group_name_H-M_alt    "P 1"
_space_group_IT_number       1

loop_
  _space_group_symop_operation_xyz
  'x, y, z'

loop_
  _atom_site_type_symbol
  _atom_site_label
  _atom_site_symmetry_multiplicity
  _atom_site_fract_x
  _atom_site_fract_y
  _atom_site_fract_z
  _atom_site_occupancy
  Er  Er1       1.0  0.79200  0.05910  0.25000  1.0000
  Er  Er2       1.0  0.97800  0.25000  0.25000  1.0000
  Er  Er3       1.0  0.79200  0.44100  0.25000  1.0000
  Er  Er4       1.0  0.48100  0.75000  0.25000  1.0000
  Er  Er5       1.0  0.51900  0.25000  0.75000  1.0000
  Er  Er6       1.0  0.20800  0.55900  0.75000  1.0000
  Er  Er7       1.0  0.02210  0.75000  0.75000  1.0000
  Er  Er8       1.0  0.20800  0.94100  0.75000  1.0000
  Ir  Ir1       1.0  0.46100  0.06130  0.25000  1.0000
  Ir  Ir2       1.0  0.14300  0.12500  0.25000  1.0000
  Ir  Ir3       1.0  0.65700  0.25000  0.25000  1.0000
  Ir  Ir4       1.0  0.14300  0.37500  0.25000  1.0000
  Ir  Ir5       1.0  0.46100  0.43900  0.25000  1.0000
  Ir  Ir6       1.0  0.95300  0.55000  0.25000  1.0000
  Ir  Ir7       1.0  0.33500  0.56600  0.25000  1.0000
  Ir  Ir8       1.0  0.64500  0.62200  0.25000  1.0000
  Ir  Ir9       1.0  0.14200  0.75000  0.25000  1.0000
  Ir  Ir10      1.0  0.77300  0.75000  0.25000  1.0000
  Ir  Ir11      1.0  0.64500  0.87800  0.25000  1.0000
  Ir  Ir12      1.0  0.33500  0.93400  0.25000  1.0000
  Ir  Ir13      1.0  0.95300  0.95000  0.25000  1.0000
  Ir  Ir14      1.0  0.04670  0.04980  0.75000  1.0000
  Ir  Ir15      1.0  0.66500  0.06610  0.75000  1.0000
  Ir  Ir16      1.0  0.35500  0.12200  0.75000  1.0000
  Ir  Ir17      1.0  0.22700  0.25000  0.75000  1.0000
  Ir  Ir18      1.0  0.85800  0.25000  0.75000  1.0000
  Ir  Ir19      1.0  0.35500  0.37800  0.75000  1.0000
  Ir  Ir20      1.0  0.66500  0.43400  0.75000  1.0000
  Ir  Ir21      1.0  0.04670  0.45000  0.75000  1.0000
  Ir  Ir22      1.0  0.53900  0.56100  0.75000  1.0000
  Ir  Ir23      1.0  0.85700  0.62500  0.75000  1.0000
  Ir  Ir24      1.0  0.34300  0.75000  0.75000  1.0000
  Ir  Ir25      1.0  0.85700  0.87500  0.75000  1.0000
  Ir  Ir26      1.0  0.53900  0.93900  0.75000  1.0000
  Si  Si1       1.0  0.58500  0.06850  0.25000  1.0000
  Si  Si2       1.0  0.27100  0.12300  0.25000  1.0000
  Si  Si3       1.0  0.39800  0.25000  0.25000  1.0000
  Si  Si4       1.0  0.27100  0.37700  0.25000  1.0000
  Si  Si5       1.0  0.58500  0.43100  0.25000  1.0000
  Si  Si6       1.0  0.08060  0.56200  0.25000  1.0000
  Si  Si7       1.0  0.26700  0.75000  0.25000  1.0000
  Si  Si8       1.0  0.89800  0.75000  0.25000  1.0000
  Si  Si9       1.0  0.08060  0.93800  0.25000  1.0000
  Si  Si10      1.0  0.91900  0.06180  0.75000  1.0000
  Si  Si11      1.0  0.10200  0.25000  0.75000  1.0000
  Si  Si12      1.0  0.73300  0.25000  0.75000  1.0000
  Si  Si13      1.0  0.91900  0.43800  0.75000  1.0000
  Si  Si14      1.0  0.41500  0.56900  0.75000  1.0000
  Si  Si15      1.0  0.72900  0.62300  0.75000  1.0000
  Si  Si16      1.0  0.60200  0.75000  0.75000  1.0000
  Si  Si17      1.0  0.72900  0.87700  0.75000  1.0000
  Si  Si18      1.0  0.41500  0.93100  0.75000  1.0000
