data_image0
_chemical_formula_structural       Ca4O4Sr4Te4
_chemical_formula_sum              "Ca4 O4 Sr4 Te4"
_cell_length_a       6.86586
_cell_length_b       4.25439
_cell_length_c       14.2785
_cell_angle_alpha    90
_cell_angle_beta     90
_cell_angle_gamma    90

_space_group_name_H-M_alt    "P 1"
_space_group_IT_number       1

loop_
  _space_group_symop_operation_xyz
  'x, y, z'

loop_
  _atom_site_type_symbol
  _atom_site_label
  _atom_site_symmetry_multiplicity
  _atom_site_fract_x
  _atom_site_fract_y
  _atom_site_fract_z
  _atom_site_occupancy
  Ca  Ca1       1.0  0.51000  0.25000  0.24900  1.0000
  Ca  Ca2       1.0  0.00962  0.25000  0.25100  1.0000
  Ca  Ca3       1.0  0.99000  0.75000  0.74900  1.0000
  Ca  Ca4       1.0  0.49000  0.75000  0.75100  1.0000
  O   O1        1.0  0.25800  0.25000  0.14900  1.0000
  O   O2        1.0  0.75800  0.25000  0.35100  1.0000
  O   O3        1.0  0.24200  0.75000  0.64900  1.0000
  O   O4        1.0  0.74200  0.75000  0.85100  1.0000
  Sr  Sr1       1.0  0.25300  0.75000  0.06720  1.0000
  Sr  Sr2       1.0  0.75300  0.75000  0.43300  1.0000
  Sr  Sr3       1.0  0.24700  0.25000  0.56700  1.0000
  Sr  Sr4       1.0  0.74700  0.25000  0.93300  1.0000
  Te  Te1       1.0  0.75700  0.75000  0.12400  1.0000
  Te  Te2       1.0  0.25700  0.75000  0.37600  1.0000
  Te  Te3       1.0  0.74300  0.25000  0.62400  1.0000
  Te  Te4       1.0  0.24300  0.25000  0.87600  1.0000
