data_image0
_chemical_formula_structural       Fe4H8Na8O24P8
_chemical_formula_sum              "Fe4 H8 Na8 O24 P8"
_cell_length_a       11.9632
_cell_length_b       5.44721
_cell_length_c       9.11689
_cell_angle_alpha    90
_cell_angle_beta     90
_cell_angle_gamma    90

_space_group_name_H-M_alt    "P 1"
_space_group_IT_number       1

loop_
  _space_group_symop_operation_xyz
  'x, y, z'

loop_
  _atom_site_type_symbol
  _atom_site_label
  _atom_site_symmetry_multiplicity
  _atom_site_fract_x
  _atom_site_fract_y
  _atom_site_fract_z
  _atom_site_occupancy
  Fe  Fe1       1.0  0.33700  0.75000  0.13800  1.0000
  Fe  Fe2       1.0  0.83700  0.75000  0.36200  1.0000
  Fe  Fe3       1.0  0.16300  0.25000  0.63800  1.0000
  Fe  Fe4       1.0  0.66300  0.25000  0.86200  1.0000
  H   H1        1.0  0.58000  0.75000  0.00024  1.0000
  H   H2        1.0  0.93600  0.75000  0.01040  1.0000
  H   H3        1.0  0.43600  0.75000  0.49000  1.0000
  H   H4        1.0  0.08000  0.75000  0.50000  1.0000
  H   H5        1.0  0.92000  0.25000  0.50000  1.0000
  H   H6        1.0  0.56400  0.25000  0.51000  1.0000
  H   H7        1.0  0.06450  0.25000  0.99000  1.0000
  H   H8        1.0  0.42000  0.25000  0.00000  1.0000
  Na  Na1       1.0  0.78300  0.25000  0.17100  1.0000
  Na  Na2       1.0  0.09360  0.75000  0.22800  1.0000
  Na  Na3       1.0  0.59400  0.75000  0.27200  1.0000
  Na  Na4       1.0  0.28300  0.25000  0.32900  1.0000
  Na  Na5       1.0  0.71700  0.75000  0.67100  1.0000
  Na  Na6       1.0  0.40600  0.25000  0.72800  1.0000
  Na  Na7       1.0  0.90600  0.25000  0.77200  1.0000
  Na  Na8       1.0  0.21700  0.75000  0.82900  1.0000
  O   O1        1.0  0.60700  0.25000  0.08410  1.0000
  O   O2        1.0  0.20900  0.01500  0.09220  1.0000
  O   O3        1.0  0.20900  0.48500  0.09220  1.0000
  O   O4        1.0  0.76500  0.75000  0.14700  1.0000
  O   O5        1.0  0.44900  0.01990  0.21600  1.0000
  O   O6        1.0  0.44900  0.48000  0.21600  1.0000
  O   O7        1.0  0.94900  0.01990  0.28400  1.0000
  O   O8        1.0  0.94900  0.48000  0.28400  1.0000
  O   O9        1.0  0.26500  0.75000  0.35300  1.0000
  O   O10       1.0  0.70900  0.01500  0.40800  1.0000
  O   O11       1.0  0.70900  0.48500  0.40800  1.0000
  O   O12       1.0  0.10700  0.25000  0.41600  1.0000
  O   O13       1.0  0.89300  0.75000  0.58400  1.0000
  O   O14       1.0  0.29100  0.51500  0.59200  1.0000
  O   O15       1.0  0.29100  0.98500  0.59200  1.0000
  O   O16       1.0  0.73500  0.25000  0.64700  1.0000
  O   O17       1.0  0.05150  0.52000  0.71600  1.0000
  O   O18       1.0  0.05150  0.98000  0.71600  1.0000
  O   O19       1.0  0.55100  0.52000  0.78400  1.0000
  O   O20       1.0  0.55100  0.98000  0.78400  1.0000
  O   O21       1.0  0.23500  0.25000  0.85300  1.0000
  O   O22       1.0  0.79100  0.51500  0.90800  1.0000
  O   O23       1.0  0.79100  0.98500  0.90800  1.0000
  O   O24       1.0  0.39300  0.75000  0.91600  1.0000
  P   P1        1.0  0.18200  0.25000  0.00581  1.0000
  P   P2        1.0  0.48400  0.25000  0.12900  1.0000
  P   P3        1.0  0.98400  0.25000  0.37100  1.0000
  P   P4        1.0  0.68200  0.25000  0.49400  1.0000
  P   P5        1.0  0.31800  0.75000  0.50600  1.0000
  P   P6        1.0  0.01620  0.75000  0.62900  1.0000
  P   P7        1.0  0.51600  0.75000  0.87100  1.0000
  P   P8        1.0  0.81800  0.75000  0.99400  1.0000
