data_image0
_chemical_formula_structural       As16Br4Na4O24
_chemical_formula_sum              "As16 Br4 Na4 O24"
_cell_length_a       5.26688
_cell_length_b       7.99597
_cell_length_c       18.6437
_cell_angle_alpha    90
_cell_angle_beta     90
_cell_angle_gamma    90

_space_group_name_H-M_alt    "P 1"
_space_group_IT_number       1

loop_
  _space_group_symop_operation_xyz
  'x, y, z'

loop_
  _atom_site_type_symbol
  _atom_site_label
  _atom_site_symmetry_multiplicity
  _atom_site_fract_x
  _atom_site_fract_y
  _atom_site_fract_z
  _atom_site_occupancy
  As  As1       1.0  0.75000  0.64500  0.04680  1.0000
  As  As2       1.0  0.25000  0.83000  0.11500  1.0000
  As  As3       1.0  0.25000  0.21100  0.16900  1.0000
  As  As4       1.0  0.75000  0.40900  0.18300  1.0000
  As  As5       1.0  0.25000  0.90900  0.31700  1.0000
  As  As6       1.0  0.75000  0.71100  0.33100  1.0000
  As  As7       1.0  0.75000  0.33000  0.38500  1.0000
  As  As8       1.0  0.25000  0.14500  0.45300  1.0000
  As  As9       1.0  0.75000  0.85500  0.54700  1.0000
  As  As10      1.0  0.25000  0.67000  0.61500  1.0000
  As  As11      1.0  0.25000  0.28900  0.66900  1.0000
  As  As12      1.0  0.75000  0.09060  0.68300  1.0000
  As  As13      1.0  0.25000  0.59100  0.81700  1.0000
  As  As14      1.0  0.75000  0.78900  0.83100  1.0000
  As  As15      1.0  0.75000  0.17000  0.88500  1.0000
  As  As16      1.0  0.25000  0.35500  0.95300  1.0000
  Br  Br1       1.0  0.75000  0.00760  0.22000  1.0000
  Br  Br2       1.0  0.25000  0.50800  0.28000  1.0000
  Br  Br3       1.0  0.75000  0.49200  0.72000  1.0000
  Br  Br4       1.0  0.25000  0.99200  0.78000  1.0000
  Na  Na1       1.0  0.75000  0.09530  0.05730  1.0000
  Na  Na2       1.0  0.25000  0.59500  0.44300  1.0000
  Na  Na3       1.0  0.75000  0.40500  0.55700  1.0000
  Na  Na4       1.0  0.25000  0.90500  0.94300  1.0000
  O   O1        1.0  0.00201  0.80200  0.04620  1.0000
  O   O2        1.0  0.49800  0.80200  0.04620  1.0000
  O   O3        1.0  0.25000  0.05200  0.09590  1.0000
  O   O4        1.0  0.50200  0.32800  0.12200  1.0000
  O   O5        1.0  0.99800  0.32800  0.12200  1.0000
  O   O6        1.0  0.75000  0.61700  0.14300  1.0000
  O   O7        1.0  0.25000  0.11700  0.35700  1.0000
  O   O8        1.0  0.00199  0.82800  0.37800  1.0000
  O   O9        1.0  0.49800  0.82800  0.37800  1.0000
  O   O10       1.0  0.75000  0.55200  0.40400  1.0000
  O   O11       1.0  0.50200  0.30200  0.45400  1.0000
  O   O12       1.0  0.99800  0.30200  0.45400  1.0000
  O   O13       1.0  0.00201  0.69800  0.54600  1.0000
  O   O14       1.0  0.49800  0.69800  0.54600  1.0000
  O   O15       1.0  0.25000  0.44800  0.59600  1.0000
  O   O16       1.0  0.50200  0.17200  0.62200  1.0000
  O   O17       1.0  0.99800  0.17200  0.62200  1.0000
  O   O18       1.0  0.75000  0.88300  0.64300  1.0000
  O   O19       1.0  0.25000  0.38300  0.85700  1.0000
  O   O20       1.0  0.00199  0.67200  0.87800  1.0000
  O   O21       1.0  0.49800  0.67200  0.87800  1.0000
  O   O22       1.0  0.75000  0.94800  0.90400  1.0000
  O   O23       1.0  0.50200  0.19800  0.95400  1.0000
  O   O24       1.0  0.99800  0.19800  0.95400  1.0000
