data_image0
_chemical_formula_structural       Cu12Ga32V8
_chemical_formula_sum              "Cu12 Ga32 V8"
_cell_length_a       10.2179
_cell_length_b       10.2179
_cell_length_c       10.2179
_cell_angle_alpha    109.471
_cell_angle_beta     109.471
_cell_angle_gamma    109.471

_space_group_name_H-M_alt    "P 1"
_space_group_IT_number       1

loop_
  _space_group_symop_operation_xyz
  'x, y, z'

loop_
  _atom_site_type_symbol
  _atom_site_label
  _atom_site_symmetry_multiplicity
  _atom_site_fract_x
  _atom_site_fract_y
  _atom_site_fract_z
  _atom_site_occupancy
  Cu  Cu1       1.0  0.75000  0.25500  0.00465  1.0000
  Cu  Cu2       1.0  0.75000  0.49500  0.24500  1.0000
  Cu  Cu3       1.0  0.25500  0.50500  0.25000  1.0000
  Cu  Cu4       1.0  0.49500  0.74500  0.25000  1.0000
  Cu  Cu5       1.0  0.25000  0.00465  0.25500  1.0000
  Cu  Cu6       1.0  0.25000  0.24500  0.49500  1.0000
  Cu  Cu7       1.0  0.75500  0.25000  0.50500  1.0000
  Cu  Cu8       1.0  0.99500  0.25000  0.74500  1.0000
  Cu  Cu9       1.0  0.00465  0.75500  0.75000  1.0000
  Cu  Cu10      1.0  0.24500  0.99500  0.75000  1.0000
  Cu  Cu11      1.0  0.50500  0.75000  0.75500  1.0000
  Cu  Cu12      1.0  0.74500  0.75000  0.99500  1.0000
  Ga  Ga1       1.0  0.00000  0.22700  0.00000  1.0000
  Ga  Ga2       1.0  0.00000  0.72700  0.00000  1.0000
  Ga  Ga3       1.0  0.49300  0.75700  0.00333  1.0000
  Ga  Ga4       1.0  0.76400  0.00985  0.00652  1.0000
  Ga  Ga5       1.0  0.26400  0.00652  0.00985  1.0000
  Ga  Ga6       1.0  0.50000  0.00000  0.22700  1.0000
  Ga  Ga7       1.0  0.24300  0.24600  0.23600  1.0000
  Ga  Ga8       1.0  0.23600  0.74600  0.24300  1.0000
  Ga  Ga9       1.0  0.74300  0.23600  0.24600  1.0000
  Ga  Ga10      1.0  0.99000  0.99700  0.25400  1.0000
  Ga  Ga11      1.0  0.50300  0.49300  0.25700  1.0000
  Ga  Ga12      1.0  0.00985  0.50700  0.26400  1.0000
  Ga  Ga13      1.0  0.77300  0.77300  0.27300  1.0000
  Ga  Ga14      1.0  0.99700  0.75400  0.49000  1.0000
  Ga  Ga15      1.0  0.00333  0.25700  0.49300  1.0000
  Ga  Ga16      1.0  0.75400  0.99000  0.49700  1.0000
  Ga  Ga17      1.0  0.22700  0.50000  0.50000  1.0000
  Ga  Ga18      1.0  0.72700  0.50000  0.50000  1.0000
  Ga  Ga19      1.0  0.25700  0.99300  0.50300  1.0000
  Ga  Ga20      1.0  0.51000  0.26400  0.50700  1.0000
  Ga  Ga21      1.0  0.50700  0.76400  0.51000  1.0000
  Ga  Ga22      1.0  0.50000  0.00000  0.72700  1.0000
  Ga  Ga23      1.0  0.74600  0.74300  0.73600  1.0000
  Ga  Ga24      1.0  0.24600  0.73600  0.74300  1.0000
  Ga  Ga25      1.0  0.73600  0.24300  0.74600  1.0000
  Ga  Ga26      1.0  0.49700  0.49000  0.75400  1.0000
  Ga  Ga27      1.0  0.99300  0.00333  0.75700  1.0000
  Ga  Ga28      1.0  0.00652  0.51000  0.76400  1.0000
  Ga  Ga29      1.0  0.27300  0.27300  0.77300  1.0000
  Ga  Ga30      1.0  0.25400  0.49700  0.99000  1.0000
  Ga  Ga31      1.0  0.75700  0.50300  0.99300  1.0000
  Ga  Ga32      1.0  0.49000  0.25400  0.99700  1.0000
  V   V1        1.0  0.00000  0.47600  0.00000  1.0000
  V   V2        1.0  0.00000  0.97600  0.00000  1.0000
  V   V3        1.0  0.52400  0.52400  0.02380  1.0000
  V   V4        1.0  0.50000  0.00000  0.47600  1.0000
  V   V5        1.0  0.47600  0.50000  0.50000  1.0000
  V   V6        1.0  0.97600  0.50000  0.50000  1.0000
  V   V7        1.0  0.02380  0.02380  0.52400  1.0000
  V   V8        1.0  0.50000  0.00000  0.97600  1.0000
