data_image0
_chemical_formula_structural       As2H24Mg2O20Rb2
_chemical_formula_sum              "As2 H24 Mg2 O20 Rb2"
_cell_length_a       6.82839
_cell_length_b       6.10022
_cell_length_c       11.2421
_cell_angle_alpha    90
_cell_angle_beta     90
_cell_angle_gamma    90

_space_group_name_H-M_alt    "P 1"
_space_group_IT_number       1

loop_
  _space_group_symop_operation_xyz
  'x, y, z'

loop_
  _atom_site_type_symbol
  _atom_site_label
  _atom_site_symmetry_multiplicity
  _atom_site_fract_x
  _atom_site_fract_y
  _atom_site_fract_z
  _atom_site_occupancy
  As  As1       1.0  0.00000  0.97600  0.01920  1.0000
  As  As2       1.0  0.50000  0.02350  0.51900  1.0000
  H   H1        1.0  0.38300  0.98700  0.00475  1.0000
  H   H2        1.0  0.61700  0.98700  0.00475  1.0000
  H   H3        1.0  0.26200  0.34800  0.02070  1.0000
  H   H4        1.0  0.73800  0.34800  0.02070  1.0000
  H   H5        1.0  0.17600  0.59000  0.03570  1.0000
  H   H6        1.0  0.82400  0.59000  0.03570  1.0000
  H   H7        1.0  0.20400  0.22000  0.19600  1.0000
  H   H8        1.0  0.79600  0.22000  0.19600  1.0000
  H   H9        1.0  0.00000  0.73200  0.22700  1.0000
  H   H10       1.0  0.32400  0.20000  0.31600  1.0000
  H   H11       1.0  0.67600  0.20000  0.31600  1.0000
  H   H12       1.0  0.00000  0.85500  0.35600  1.0000
  H   H13       1.0  0.11700  0.01340  0.50500  1.0000
  H   H14       1.0  0.88300  0.01340  0.50500  1.0000
  H   H15       1.0  0.23800  0.65200  0.52100  1.0000
  H   H16       1.0  0.76200  0.65200  0.52100  1.0000
  H   H17       1.0  0.32400  0.41000  0.53600  1.0000
  H   H18       1.0  0.67600  0.41000  0.53600  1.0000
  H   H19       1.0  0.29600  0.78000  0.69600  1.0000
  H   H20       1.0  0.70400  0.78000  0.69600  1.0000
  H   H21       1.0  0.50000  0.26800  0.72700  1.0000
  H   H22       1.0  0.17600  0.80000  0.81600  1.0000
  H   H23       1.0  0.82400  0.80000  0.81600  1.0000
  H   H24       1.0  0.50000  0.14500  0.85600  1.0000
  Mg  Mg1       1.0  0.00000  0.39700  0.38500  1.0000
  Mg  Mg2       1.0  0.50000  0.60300  0.88500  1.0000
  O   O1        1.0  0.29300  0.50600  0.00519  1.0000
  O   O2        1.0  0.70700  0.50600  0.00519  1.0000
  O   O3        1.0  0.20800  0.10700  0.06780  1.0000
  O   O4        1.0  0.79200  0.10700  0.06780  1.0000
  O   O5        1.0  0.00000  0.72200  0.08580  1.0000
  O   O6        1.0  0.22400  0.29500  0.27500  1.0000
  O   O7        1.0  0.77600  0.29500  0.27500  1.0000
  O   O8        1.0  0.00000  0.71100  0.31500  1.0000
  O   O9        1.0  0.50000  0.04620  0.36800  1.0000
  O   O10       1.0  0.00000  0.07700  0.46100  1.0000
  O   O11       1.0  0.20700  0.49400  0.50500  1.0000
  O   O12       1.0  0.79300  0.49400  0.50500  1.0000
  O   O13       1.0  0.29200  0.89300  0.56800  1.0000
  O   O14       1.0  0.70800  0.89300  0.56800  1.0000
  O   O15       1.0  0.50000  0.27800  0.58600  1.0000
  O   O16       1.0  0.27600  0.70500  0.77500  1.0000
  O   O17       1.0  0.72400  0.70500  0.77500  1.0000
  O   O18       1.0  0.50000  0.28900  0.81500  1.0000
  O   O19       1.0  0.00000  0.95400  0.86800  1.0000
  O   O20       1.0  0.50000  0.92300  0.96100  1.0000
  Rb  Rb1       1.0  0.50000  0.65600  0.22900  1.0000
  Rb  Rb2       1.0  0.00000  0.34400  0.72900  1.0000
