data_image0
_chemical_formula_structural       Ba2Nb15O32
_chemical_formula_sum              "Ba2 Nb15 O32"
_cell_length_a       7.82379
_cell_length_b       7.82379
_cell_length_c       12.7344
_cell_angle_alpha    90
_cell_angle_beta     107.89
_cell_angle_gamma    60

_space_group_name_H-M_alt    "P 1"
_space_group_IT_number       1

loop_
  _space_group_symop_operation_xyz
  'x, y, z'

loop_
  _atom_site_type_symbol
  _atom_site_label
  _atom_site_symmetry_multiplicity
  _atom_site_fract_x
  _atom_site_fract_y
  _atom_site_fract_z
  _atom_site_occupancy
  Ba  Ba1       1.0  0.72400  0.63800  0.08540  1.0000
  Ba  Ba2       1.0  0.27600  0.36200  0.91500  1.0000
  Nb  Nb1       1.0  0.00000  0.00000  0.00000  1.0000
  Nb  Nb2       1.0  0.38900  0.07910  0.19900  1.0000
  Nb  Nb3       1.0  0.73100  0.19000  0.19900  1.0000
  Nb  Nb4       1.0  0.27800  0.53200  0.19900  1.0000
  Nb  Nb5       1.0  0.12600  0.31400  0.40000  1.0000
  Nb  Nb6       1.0  0.71400  0.56000  0.40000  1.0000
  Nb  Nb7       1.0  0.96100  0.72600  0.40000  1.0000
  Nb  Nb8       1.0  0.27900  0.86100  0.41800  1.0000
  Nb  Nb9       1.0  0.72100  0.13900  0.58200  1.0000
  Nb  Nb10      1.0  0.03950  0.27400  0.60000  1.0000
  Nb  Nb11      1.0  0.28600  0.44000  0.60000  1.0000
  Nb  Nb12      1.0  0.87400  0.68600  0.60000  1.0000
  Nb  Nb13      1.0  0.72200  0.46800  0.80100  1.0000
  Nb  Nb14      1.0  0.26900  0.81000  0.80100  1.0000
  Nb  Nb15      1.0  0.61100  0.92100  0.80100  1.0000
  O   O1        1.0  0.86400  0.19200  0.09530  1.0000
  O   O2        1.0  0.03970  0.76900  0.09530  1.0000
  O   O3        1.0  0.28700  0.94400  0.09530  1.0000
  O   O4        1.0  0.58800  0.05900  0.11500  1.0000
  O   O5        1.0  0.17400  0.35300  0.11500  1.0000
  O   O6        1.0  0.46800  0.47300  0.11500  1.0000
  O   O7        1.0  0.52400  0.23800  0.28600  1.0000
  O   O8        1.0  0.82800  0.36900  0.29300  1.0000
  O   O9        1.0  0.09630  0.53500  0.29300  1.0000
  O   O10       1.0  0.66200  0.80300  0.29300  1.0000
  O   O11       1.0  0.26800  0.07010  0.31000  1.0000
  O   O12       1.0  0.38000  0.66200  0.31000  1.0000
  O   O13       1.0  0.97200  0.95800  0.31000  1.0000
  O   O14       1.0  0.42600  0.23200  0.49800  1.0000
  O   O15       1.0  0.72900  0.34300  0.49800  1.0000
  O   O16       1.0  0.84100  0.92800  0.49800  1.0000
  O   O17       1.0  0.15900  0.07210  0.50200  1.0000
  O   O18       1.0  0.27100  0.65700  0.50200  1.0000
  O   O19       1.0  0.57400  0.76800  0.50200  1.0000
  O   O20       1.0  0.02780  0.04230  0.69000  1.0000
  O   O21       1.0  0.62000  0.33800  0.69000  1.0000
  O   O22       1.0  0.73200  0.93000  0.69000  1.0000
  O   O23       1.0  0.33800  0.19700  0.70700  1.0000
  O   O24       1.0  0.90400  0.46500  0.70700  1.0000
  O   O25       1.0  0.17200  0.63100  0.70700  1.0000
  O   O26       1.0  0.47600  0.76200  0.71400  1.0000
  O   O27       1.0  0.53200  0.52700  0.88500  1.0000
  O   O28       1.0  0.82600  0.64700  0.88500  1.0000
  O   O29       1.0  0.41200  0.94100  0.88500  1.0000
  O   O30       1.0  0.71300  0.05560  0.90500  1.0000
  O   O31       1.0  0.96000  0.23100  0.90500  1.0000
  O   O32       1.0  0.13600  0.80800  0.90500  1.0000
