data_image0
_chemical_formula_structural       As4F36Pb2Xe6
_chemical_formula_sum              "As4 F36 Pb2 Xe6"
_cell_length_a       8.37353
_cell_length_b       8.37353
_cell_length_c       10.4261
_cell_angle_alpha    96.787
_cell_angle_beta     96.787
_cell_angle_gamma    89.5366

_space_group_name_H-M_alt    "P 1"
_space_group_IT_number       1

loop_
  _space_group_symop_operation_xyz
  'x, y, z'

loop_
  _atom_site_type_symbol
  _atom_site_label
  _atom_site_symmetry_multiplicity
  _atom_site_fract_x
  _atom_site_fract_y
  _atom_site_fract_z
  _atom_site_occupancy
  As  As1       1.0  0.50000  0.00000  0.00000  1.0000
  As  As2       1.0  0.00000  0.50000  0.00000  1.0000
  As  As3       1.0  0.80200  0.80200  0.38600  1.0000
  As  As4       1.0  0.19800  0.19800  0.61400  1.0000
  F   F1        1.0  0.37700  0.15800  0.06250  1.0000
  F   F2        1.0  0.15800  0.37700  0.06250  1.0000
  F   F3        1.0  0.86000  0.39600  0.07330  1.0000
  F   F4        1.0  0.39600  0.86000  0.07330  1.0000
  F   F5        1.0  0.64100  0.03600  0.13900  1.0000
  F   F6        1.0  0.03600  0.64100  0.13900  1.0000
  F   F7        1.0  0.08540  0.08540  0.18800  1.0000
  F   F8        1.0  0.47400  0.47400  0.19200  1.0000
  F   F9        1.0  0.70400  0.70400  0.23900  1.0000
  F   F10       1.0  0.91600  0.91600  0.30100  1.0000
  F   F11       1.0  0.37300  0.02600  0.31000  1.0000
  F   F12       1.0  0.02600  0.37300  0.31000  1.0000
  F   F13       1.0  0.56700  0.27600  0.38400  1.0000
  F   F14       1.0  0.27600  0.56700  0.38400  1.0000
  F   F15       1.0  0.95200  0.65500  0.39500  1.0000
  F   F16       1.0  0.65500  0.95200  0.39500  1.0000
  F   F17       1.0  0.11100  0.11100  0.45900  1.0000
  F   F18       1.0  0.67900  0.67900  0.46800  1.0000
  F   F19       1.0  0.32100  0.32100  0.53200  1.0000
  F   F20       1.0  0.88900  0.88900  0.54100  1.0000
  F   F21       1.0  0.34500  0.04760  0.60500  1.0000
  F   F22       1.0  0.04760  0.34500  0.60500  1.0000
  F   F23       1.0  0.72400  0.43300  0.61600  1.0000
  F   F24       1.0  0.43300  0.72400  0.61600  1.0000
  F   F25       1.0  0.97400  0.62700  0.69000  1.0000
  F   F26       1.0  0.62700  0.97400  0.69000  1.0000
  F   F27       1.0  0.08400  0.08400  0.69900  1.0000
  F   F28       1.0  0.29600  0.29600  0.76100  1.0000
  F   F29       1.0  0.52600  0.52600  0.80800  1.0000
  F   F30       1.0  0.91500  0.91500  0.81200  1.0000
  F   F31       1.0  0.96400  0.35900  0.86100  1.0000
  F   F32       1.0  0.35900  0.96400  0.86100  1.0000
  F   F33       1.0  0.60400  0.14000  0.92700  1.0000
  F   F34       1.0  0.14000  0.60400  0.92700  1.0000
  F   F35       1.0  0.84200  0.62300  0.93700  1.0000
  F   F36       1.0  0.62300  0.84200  0.93700  1.0000
  Pb  Pb1       1.0  0.29100  0.29100  0.28300  1.0000
  Pb  Pb2       1.0  0.70900  0.70900  0.71700  1.0000
  Xe  Xe1       1.0  0.00000  0.00000  0.00000  1.0000
  Xe  Xe2       1.0  0.50000  0.50000  0.00000  1.0000
  Xe  Xe3       1.0  0.79600  0.31800  0.34000  1.0000
  Xe  Xe4       1.0  0.31800  0.79600  0.34000  1.0000
  Xe  Xe5       1.0  0.68200  0.20400  0.66000  1.0000
  Xe  Xe6       1.0  0.20400  0.68200  0.66000  1.0000
