data_image0
_chemical_formula_structural       Al8Sb24Sr20
_chemical_formula_sum              "Al8 Sb24 Sr20"
_cell_length_a       12.249
_cell_length_b       10.4571
_cell_length_c       13.4848
_cell_angle_alpha    90
_cell_angle_beta     90
_cell_angle_gamma    90

_space_group_name_H-M_alt    "P 1"
_space_group_IT_number       1

loop_
  _space_group_symop_operation_xyz
  'x, y, z'

loop_
  _atom_site_type_symbol
  _atom_site_label
  _atom_site_symmetry_multiplicity
  _atom_site_fract_x
  _atom_site_fract_y
  _atom_site_fract_z
  _atom_site_occupancy
  Al  Al1       1.0  0.07840  0.75000  0.06700  1.0000
  Al  Al2       1.0  0.69000  0.75000  0.20100  1.0000
  Al  Al3       1.0  0.19000  0.75000  0.29900  1.0000
  Al  Al4       1.0  0.57800  0.75000  0.43300  1.0000
  Al  Al5       1.0  0.42200  0.25000  0.56700  1.0000
  Al  Al6       1.0  0.81000  0.25000  0.70100  1.0000
  Al  Al7       1.0  0.31000  0.25000  0.79900  1.0000
  Al  Al8       1.0  0.92200  0.25000  0.93300  1.0000
  Sb  Sb1       1.0  0.85100  0.75000  0.06250  1.0000
  Sb  Sb2       1.0  0.49900  0.75000  0.09020  1.0000
  Sb  Sb3       1.0  0.85500  0.25000  0.12300  1.0000
  Sb  Sb4       1.0  0.45400  0.25000  0.12400  1.0000
  Sb  Sb5       1.0  0.17400  0.55500  0.16900  1.0000
  Sb  Sb6       1.0  0.17400  0.94500  0.16900  1.0000
  Sb  Sb7       1.0  0.67400  0.55500  0.33100  1.0000
  Sb  Sb8       1.0  0.67400  0.94500  0.33100  1.0000
  Sb  Sb9       1.0  0.95400  0.25000  0.37600  1.0000
  Sb  Sb10      1.0  0.35500  0.25000  0.37700  1.0000
  Sb  Sb11      1.0  0.99900  0.75000  0.41000  1.0000
  Sb  Sb12      1.0  0.35100  0.75000  0.43700  1.0000
  Sb  Sb13      1.0  0.64900  0.25000  0.56300  1.0000
  Sb  Sb14      1.0  0.00137  0.25000  0.59000  1.0000
  Sb  Sb15      1.0  0.64500  0.75000  0.62300  1.0000
  Sb  Sb16      1.0  0.04620  0.75000  0.62400  1.0000
  Sb  Sb17      1.0  0.32600  0.05500  0.66900  1.0000
  Sb  Sb18      1.0  0.32600  0.44500  0.66900  1.0000
  Sb  Sb19      1.0  0.82600  0.05500  0.83100  1.0000
  Sb  Sb20      1.0  0.82600  0.44500  0.83100  1.0000
  Sb  Sb21      1.0  0.54600  0.75000  0.87600  1.0000
  Sb  Sb22      1.0  0.14500  0.75000  0.87700  1.0000
  Sb  Sb23      1.0  0.50100  0.25000  0.91000  1.0000
  Sb  Sb24      1.0  0.14900  0.25000  0.93700  1.0000
  Sr  Sr1       1.0  0.66800  0.02060  0.03620  1.0000
  Sr  Sr2       1.0  0.66800  0.47900  0.03620  1.0000
  Sr  Sr3       1.0  0.16200  0.25000  0.18800  1.0000
  Sr  Sr4       1.0  0.92000  0.52700  0.23600  1.0000
  Sr  Sr5       1.0  0.92000  0.97300  0.23600  1.0000
  Sr  Sr6       1.0  0.42000  0.52700  0.26400  1.0000
  Sr  Sr7       1.0  0.42000  0.97300  0.26400  1.0000
  Sr  Sr8       1.0  0.66200  0.25000  0.31200  1.0000
  Sr  Sr9       1.0  0.16800  0.02060  0.46400  1.0000
  Sr  Sr10      1.0  0.16800  0.47900  0.46400  1.0000
  Sr  Sr11      1.0  0.83200  0.52100  0.53600  1.0000
  Sr  Sr12      1.0  0.83200  0.97900  0.53600  1.0000
  Sr  Sr13      1.0  0.33800  0.75000  0.68800  1.0000
  Sr  Sr14      1.0  0.58000  0.02730  0.73600  1.0000
  Sr  Sr15      1.0  0.58000  0.47300  0.73600  1.0000
  Sr  Sr16      1.0  0.07980  0.02730  0.76400  1.0000
  Sr  Sr17      1.0  0.07980  0.47300  0.76400  1.0000
  Sr  Sr18      1.0  0.83800  0.75000  0.81200  1.0000
  Sr  Sr19      1.0  0.33200  0.52100  0.96400  1.0000
  Sr  Sr20      1.0  0.33200  0.97900  0.96400  1.0000
