data_image0
_chemical_formula_structural       C4F10H24N12Sb2
_chemical_formula_sum              "C4 F10 H24 N12 Sb2"
_cell_length_a       8.30681
_cell_length_b       8.68159
_cell_length_c       9.23503
_cell_angle_alpha    119.565
_cell_angle_beta     90
_cell_angle_gamma    118.582

_space_group_name_H-M_alt    "P 1"
_space_group_IT_number       1

loop_
  _space_group_symop_operation_xyz
  'x, y, z'

loop_
  _atom_site_type_symbol
  _atom_site_label
  _atom_site_symmetry_multiplicity
  _atom_site_fract_x
  _atom_site_fract_y
  _atom_site_fract_z
  _atom_site_occupancy
  C   C1        1.0  0.98900  0.97800  0.20500  1.0000
  C   C2        1.0  0.32400  0.64900  0.35500  1.0000
  C   C3        1.0  0.67600  0.35100  0.64500  1.0000
  C   C4        1.0  0.01120  0.02240  0.79500  1.0000
  F   F1        1.0  0.92200  0.49100  0.12500  1.0000
  F   F2        1.0  0.56900  0.49100  0.12500  1.0000
  F   F3        1.0  0.76600  0.18800  0.22000  1.0000
  F   F4        1.0  0.42200  0.18800  0.22000  1.0000
  F   F5        1.0  0.76500  0.53000  0.36900  1.0000
  F   F6        1.0  0.23500  0.47000  0.63100  1.0000
  F   F7        1.0  0.57800  0.81200  0.78000  1.0000
  F   F8        1.0  0.23400  0.81200  0.78000  1.0000
  F   F9        1.0  0.43100  0.50900  0.87500  1.0000
  F   F10       1.0  0.07820  0.50900  0.87500  1.0000
  H   H1        1.0  0.37100  0.52900  0.12000  1.0000
  H   H2        1.0  0.15800  0.52900  0.12000  1.0000
  H   H3        1.0  0.72700  0.74000  0.17800  1.0000
  H   H4        1.0  0.01360  0.74000  0.17800  1.0000
  H   H5        1.0  0.73700  0.95900  0.19800  1.0000
  H   H6        1.0  0.22200  0.95900  0.19800  1.0000
  H   H7        1.0  0.22400  0.23400  0.23300  1.0000
  H   H8        1.0  0.00964  0.23400  0.23300  1.0000
  H   H9        1.0  0.56500  0.64000  0.36900  1.0000
  H   H10       1.0  0.07560  0.64000  0.36900  1.0000
  H   H11       1.0  0.78400  0.28300  0.43800  1.0000
  H   H12       1.0  0.49900  0.28300  0.43800  1.0000
  H   H13       1.0  0.50100  0.71700  0.56200  1.0000
  H   H14       1.0  0.21600  0.71700  0.56200  1.0000
  H   H15       1.0  0.92400  0.36000  0.63100  1.0000
  H   H16       1.0  0.43500  0.36000  0.63100  1.0000
  H   H17       1.0  0.99000  0.76600  0.76700  1.0000
  H   H18       1.0  0.77600  0.76600  0.76700  1.0000
  H   H19       1.0  0.77800  0.04130  0.80200  1.0000
  H   H20       1.0  0.26300  0.04130  0.80200  1.0000
  H   H21       1.0  0.98600  0.26000  0.82200  1.0000
  H   H22       1.0  0.27300  0.26000  0.82200  1.0000
  H   H23       1.0  0.84200  0.47100  0.88000  1.0000
  H   H24       1.0  0.62900  0.47100  0.88000  1.0000
  N   N1        1.0  0.29300  0.58500  0.18700  1.0000
  N   N2        1.0  0.80400  0.88700  0.19900  1.0000
  N   N3        1.0  0.08300  0.88700  0.19900  1.0000
  N   N4        1.0  0.08050  0.16100  0.21800  1.0000
  N   N5        1.0  0.48100  0.68200  0.43800  1.0000
  N   N6        1.0  0.20100  0.68200  0.43800  1.0000
  N   N7        1.0  0.79900  0.31800  0.56200  1.0000
  N   N8        1.0  0.51900  0.31800  0.56200  1.0000
  N   N9        1.0  0.91900  0.83900  0.78200  1.0000
  N   N10       1.0  0.91700  0.11300  0.80100  1.0000
  N   N11       1.0  0.19600  0.11300  0.80100  1.0000
  N   N12       1.0  0.70700  0.41500  0.81300  1.0000
  Sb  Sb1       1.0  0.64600  0.29200  0.11900  1.0000
  Sb  Sb2       1.0  0.35400  0.70800  0.88100  1.0000
