data_image0
_chemical_formula_structural       Ge12O32Zn8
_chemical_formula_sum              "Ge12 O32 Zn8"
_cell_length_a       8.23574
_cell_length_b       8.23574
_cell_length_c       8.23574
_cell_angle_alpha    90
_cell_angle_beta     90
_cell_angle_gamma    90

_space_group_name_H-M_alt    "P 1"
_space_group_IT_number       1

loop_
  _space_group_symop_operation_xyz
  'x, y, z'

loop_
  _atom_site_type_symbol
  _atom_site_label
  _atom_site_symmetry_multiplicity
  _atom_site_fract_x
  _atom_site_fract_y
  _atom_site_fract_z
  _atom_site_occupancy
  Ge  Ge1       1.0  0.62500  0.13100  0.11900  1.0000
  Ge  Ge2       1.0  0.36900  0.88100  0.12500  1.0000
  Ge  Ge3       1.0  0.11900  0.62500  0.13100  1.0000
  Ge  Ge4       1.0  0.88100  0.12500  0.36900  1.0000
  Ge  Ge5       1.0  0.63100  0.38100  0.37500  1.0000
  Ge  Ge6       1.0  0.37500  0.63100  0.38100  1.0000
  Ge  Ge7       1.0  0.87500  0.86900  0.61900  1.0000
  Ge  Ge8       1.0  0.13100  0.11900  0.62500  1.0000
  Ge  Ge9       1.0  0.38100  0.37500  0.63100  1.0000
  Ge  Ge10      1.0  0.61900  0.87500  0.86900  1.0000
  Ge  Ge11      1.0  0.86900  0.61900  0.87500  1.0000
  Ge  Ge12      1.0  0.12500  0.36900  0.88100  1.0000
  O   O1        1.0  0.13600  0.39500  0.10200  1.0000
  O   O2        1.0  0.89800  0.63600  0.10500  1.0000
  O   O3        1.0  0.61100  0.88900  0.11100  1.0000
  O   O4        1.0  0.14800  0.85500  0.11400  1.0000
  O   O5        1.0  0.39500  0.10200  0.13600  1.0000
  O   O6        1.0  0.36100  0.63900  0.13900  1.0000
  O   O7        1.0  0.61400  0.35200  0.14500  1.0000
  O   O8        1.0  0.85500  0.11400  0.14800  1.0000
  O   O9        1.0  0.14500  0.61400  0.35200  1.0000
  O   O10       1.0  0.38600  0.85200  0.35500  1.0000
  O   O11       1.0  0.63900  0.13900  0.36100  1.0000
  O   O12       1.0  0.60500  0.60200  0.36400  1.0000
  O   O13       1.0  0.85200  0.35500  0.38600  1.0000
  O   O14       1.0  0.38900  0.38900  0.38900  1.0000
  O   O15       1.0  0.10200  0.13600  0.39500  1.0000
  O   O16       1.0  0.86400  0.89500  0.39800  1.0000
  O   O17       1.0  0.36400  0.60500  0.60200  1.0000
  O   O18       1.0  0.60200  0.36400  0.60500  1.0000
  O   O19       1.0  0.88900  0.11100  0.61100  1.0000
  O   O20       1.0  0.35200  0.14500  0.61400  1.0000
  O   O21       1.0  0.10500  0.89800  0.63600  1.0000
  O   O22       1.0  0.13900  0.36100  0.63900  1.0000
  O   O23       1.0  0.88600  0.64800  0.64500  1.0000
  O   O24       1.0  0.64500  0.88600  0.64800  1.0000
  O   O25       1.0  0.35500  0.38600  0.85200  1.0000
  O   O26       1.0  0.11400  0.14800  0.85500  1.0000
  O   O27       1.0  0.86100  0.86100  0.86100  1.0000
  O   O28       1.0  0.89500  0.39800  0.86400  1.0000
  O   O29       1.0  0.64800  0.64500  0.88600  1.0000
  O   O30       1.0  0.11100  0.61100  0.88900  1.0000
  O   O31       1.0  0.39800  0.86400  0.89500  1.0000
  O   O32       1.0  0.63600  0.10500  0.89800  1.0000
  Zn  Zn1       1.0  0.00122  0.00122  0.00122  1.0000
  Zn  Zn2       1.0  0.24900  0.24900  0.24900  1.0000
  Zn  Zn3       1.0  0.75100  0.74900  0.25100  1.0000
  Zn  Zn4       1.0  0.99900  0.50100  0.49900  1.0000
  Zn  Zn5       1.0  0.49900  0.99900  0.50100  1.0000
  Zn  Zn6       1.0  0.25100  0.75100  0.74900  1.0000
  Zn  Zn7       1.0  0.74900  0.25100  0.75100  1.0000
  Zn  Zn8       1.0  0.50100  0.49900  0.99900  1.0000
