data_image0
_chemical_formula_structural       H16K8O8P4Se12
_chemical_formula_sum              "H16 K8 O8 P4 Se12"
_cell_length_a       8.6407
_cell_length_b       8.6407
_cell_length_c       11.7675
_cell_angle_alpha    90
_cell_angle_beta     90
_cell_angle_gamma    93.4104

_space_group_name_H-M_alt    "P 1"
_space_group_IT_number       1

loop_
  _space_group_symop_operation_xyz
  'x, y, z'

loop_
  _atom_site_type_symbol
  _atom_site_label
  _atom_site_symmetry_multiplicity
  _atom_site_fract_x
  _atom_site_fract_y
  _atom_site_fract_z
  _atom_site_occupancy
  H   H1        1.0  0.18700  0.40100  0.00073  1.0000
  H   H2        1.0  0.59900  0.81300  0.00073  1.0000
  H   H3        1.0  0.19800  0.57800  0.02760  1.0000
  H   H4        1.0  0.42200  0.80200  0.02760  1.0000
  H   H5        1.0  0.69800  0.07780  0.47200  1.0000
  H   H6        1.0  0.92200  0.30200  0.47200  1.0000
  H   H7        1.0  0.09930  0.31300  0.49900  1.0000
  H   H8        1.0  0.68700  0.90100  0.49900  1.0000
  H   H9        1.0  0.31300  0.09930  0.50100  1.0000
  H   H10       1.0  0.90100  0.68700  0.50100  1.0000
  H   H11       1.0  0.07780  0.69800  0.52800  1.0000
  H   H12       1.0  0.30200  0.92200  0.52800  1.0000
  H   H13       1.0  0.57800  0.19800  0.97200  1.0000
  H   H14       1.0  0.80200  0.42200  0.97200  1.0000
  H   H15       1.0  0.40100  0.18700  0.99900  1.0000
  H   H16       1.0  0.81300  0.59900  0.99900  1.0000
  K   K1        1.0  0.53600  0.46400  0.14300  1.0000
  K   K2        1.0  0.09700  0.40300  0.25000  1.0000
  K   K3        1.0  0.59700  0.90300  0.25000  1.0000
  K   K4        1.0  0.03620  0.96400  0.35700  1.0000
  K   K5        1.0  0.96400  0.03620  0.64300  1.0000
  K   K6        1.0  0.40300  0.09700  0.75000  1.0000
  K   K7        1.0  0.90300  0.59700  0.75000  1.0000
  K   K8        1.0  0.46400  0.53600  0.85700  1.0000
  O   O1        1.0  0.24600  0.48100  0.04750  1.0000
  O   O2        1.0  0.51900  0.75400  0.04750  1.0000
  O   O3        1.0  0.01950  0.25400  0.45200  1.0000
  O   O4        1.0  0.74600  0.98100  0.45200  1.0000
  O   O5        1.0  0.25400  0.01950  0.54800  1.0000
  O   O6        1.0  0.98100  0.74600  0.54800  1.0000
  O   O7        1.0  0.48100  0.24600  0.95200  1.0000
  O   O8        1.0  0.75400  0.51900  0.95200  1.0000
  P   P1        1.0  0.08560  0.91400  0.03310  1.0000
  P   P2        1.0  0.58600  0.41400  0.46700  1.0000
  P   P3        1.0  0.41400  0.58600  0.53300  1.0000
  P   P4        1.0  0.91400  0.08560  0.96700  1.0000
  Se  Se1       1.0  0.81200  0.18800  0.11900  1.0000
  Se  Se2       1.0  0.25700  0.05330  0.13600  1.0000
  Se  Se3       1.0  0.94700  0.74300  0.13600  1.0000
  Se  Se4       1.0  0.44700  0.24300  0.36400  1.0000
  Se  Se5       1.0  0.75700  0.55300  0.36400  1.0000
  Se  Se6       1.0  0.31200  0.68800  0.38100  1.0000
  Se  Se7       1.0  0.68800  0.31200  0.61900  1.0000
  Se  Se8       1.0  0.24300  0.44700  0.63600  1.0000
  Se  Se9       1.0  0.55300  0.75700  0.63600  1.0000
  Se  Se10      1.0  0.05330  0.25700  0.86400  1.0000
  Se  Se11      1.0  0.74300  0.94700  0.86400  1.0000
  Se  Se12      1.0  0.18800  0.81200  0.88100  1.0000
