data_image0
_chemical_formula_structural       La2Na10O32W8
_chemical_formula_sum              "La2 Na10 O32 W8"
_cell_length_a       9.96648
_cell_length_b       9.96648
_cell_length_c       9.96648
_cell_angle_alpha    109.889
_cell_angle_beta     109.263
_cell_angle_gamma    109.263

_space_group_name_H-M_alt    "P 1"
_space_group_IT_number       1

loop_
  _space_group_symop_operation_xyz
  'x, y, z'

loop_
  _atom_site_type_symbol
  _atom_site_label
  _atom_site_symmetry_multiplicity
  _atom_site_fract_x
  _atom_site_fract_y
  _atom_site_fract_z
  _atom_site_occupancy
  La  La1       1.0  0.25000  0.87500  0.12500  1.0000
  La  La2       1.0  0.75000  0.12500  0.87500  1.0000
  Na  Na1       1.0  0.33400  0.53700  0.11500  1.0000
  Na  Na2       1.0  0.92200  0.88500  0.21900  1.0000
  Na  Na3       1.0  0.83400  0.21900  0.29700  1.0000
  Na  Na4       1.0  0.75000  0.62500  0.37500  1.0000
  Na  Na5       1.0  0.57800  0.29700  0.46300  1.0000
  Na  Na6       1.0  0.42200  0.70300  0.53700  1.0000
  Na  Na7       1.0  0.25000  0.37500  0.62500  1.0000
  Na  Na8       1.0  0.16600  0.78100  0.70300  1.0000
  Na  Na9       1.0  0.07810  0.11500  0.78100  1.0000
  Na  Na10      1.0  0.66600  0.46300  0.88500  1.0000
  O   O1        1.0  0.97900  0.85200  0.00377  1.0000
  O   O2        1.0  0.35400  0.30900  0.02160  1.0000
  O   O3        1.0  0.65200  0.00377  0.02510  1.0000
  O   O4        1.0  0.42700  0.76300  0.07400  1.0000
  O   O5        1.0  0.15200  0.62700  0.14800  1.0000
  O   O6        1.0  0.92700  0.35300  0.16400  1.0000
  O   O7        1.0  0.86600  0.62300  0.19700  1.0000
  O   O8        1.0  0.31100  0.16400  0.23700  1.0000
  O   O9        1.0  0.63400  0.33100  0.25800  1.0000
  O   O10       1.0  0.28800  0.45600  0.30900  1.0000
  O   O11       1.0  0.07360  0.19700  0.33100  1.0000
  O   O12       1.0  0.78800  0.97800  0.33200  1.0000
  O   O13       1.0  0.18900  0.92600  0.35300  1.0000
  O   O14       1.0  0.52100  0.02510  0.37300  1.0000
  O   O15       1.0  0.57400  0.74200  0.37700  1.0000
  O   O16       1.0  0.14600  0.66800  0.45600  1.0000
  O   O17       1.0  0.85400  0.33200  0.54400  1.0000
  O   O18       1.0  0.42600  0.25800  0.62300  1.0000
  O   O19       1.0  0.47900  0.97500  0.62700  1.0000
  O   O20       1.0  0.81100  0.07400  0.64700  1.0000
  O   O21       1.0  0.21200  0.02160  0.66800  1.0000
  O   O22       1.0  0.92600  0.80300  0.66900  1.0000
  O   O23       1.0  0.71200  0.54400  0.69100  1.0000
  O   O24       1.0  0.36600  0.66900  0.74200  1.0000
  O   O25       1.0  0.68900  0.83600  0.76300  1.0000
  O   O26       1.0  0.13400  0.37700  0.80300  1.0000
  O   O27       1.0  0.07250  0.64700  0.83600  1.0000
  O   O28       1.0  0.84800  0.37300  0.85200  1.0000
  O   O29       1.0  0.57300  0.23700  0.92600  1.0000
  O   O30       1.0  0.34800  0.99600  0.97500  1.0000
  O   O31       1.0  0.64600  0.69100  0.97800  1.0000
  O   O32       1.0  0.02140  0.14800  0.99600  1.0000
  W   W1        1.0  0.47400  0.21300  0.04650  1.0000
  W   W2        1.0  0.16700  0.23900  0.21300  1.0000
  W   W3        1.0  0.02580  0.57200  0.23900  1.0000
  W   W4        1.0  0.66700  0.95400  0.42800  1.0000
  W   W5        1.0  0.33300  0.04650  0.57200  1.0000
  W   W6        1.0  0.97400  0.42800  0.76100  1.0000
  W   W7        1.0  0.83300  0.76100  0.78700  1.0000
  W   W8        1.0  0.52600  0.78700  0.95400  1.0000
