data_image0
_chemical_formula_structural       H34N10S6Si2
_chemical_formula_sum              "H34 N10 S6 Si2"
_cell_length_a       6.19626
_cell_length_b       6.43668
_cell_length_c       12.6878
_cell_angle_alpha    96.9923
_cell_angle_beta     91.6233
_cell_angle_gamma    94.1264

_space_group_name_H-M_alt    "P 1"
_space_group_IT_number       1

loop_
  _space_group_symop_operation_xyz
  'x, y, z'

loop_
  _atom_site_type_symbol
  _atom_site_label
  _atom_site_symmetry_multiplicity
  _atom_site_fract_x
  _atom_site_fract_y
  _atom_site_fract_z
  _atom_site_occupancy
  H   H1        1.0  0.75700  0.08370  0.01910  1.0000
  H   H2        1.0  0.23600  0.45300  0.03740  1.0000
  H   H3        1.0  0.77000  0.27200  0.12700  1.0000
  H   H4        1.0  0.90100  0.04620  0.13000  1.0000
  H   H5        1.0  0.62200  0.03520  0.13000  1.0000
  H   H6        1.0  0.43600  0.51800  0.13200  1.0000
  H   H7        1.0  0.24200  0.33000  0.14800  1.0000
  H   H8        1.0  0.71500  0.82700  0.30200  1.0000
  H   H9        1.0  0.78500  0.42400  0.34500  1.0000
  H   H10       1.0  0.51800  0.41100  0.35100  1.0000
  H   H11       1.0  0.47600  0.83300  0.35900  1.0000
  H   H12       1.0  0.63800  0.06620  0.36200  1.0000
  H   H13       1.0  0.14900  0.02830  0.39100  1.0000
  H   H14       1.0  0.18500  0.28900  0.40300  1.0000
  H   H15       1.0  0.70800  0.87000  0.43900  1.0000
  H   H16       1.0  0.66800  0.38400  0.45600  1.0000
  H   H17       1.0  0.00576  0.17800  0.47400  1.0000
  H   H18       1.0  0.99400  0.82200  0.52600  1.0000
  H   H19       1.0  0.33200  0.61600  0.54400  1.0000
  H   H20       1.0  0.29200  0.13000  0.56100  1.0000
  H   H21       1.0  0.81500  0.71100  0.59700  1.0000
  H   H22       1.0  0.85100  0.97200  0.60900  1.0000
  H   H23       1.0  0.36200  0.93400  0.63800  1.0000
  H   H24       1.0  0.52400  0.16700  0.64100  1.0000
  H   H25       1.0  0.48200  0.58900  0.64900  1.0000
  H   H26       1.0  0.21500  0.57600  0.65500  1.0000
  H   H27       1.0  0.28500  0.17300  0.69800  1.0000
  H   H28       1.0  0.75800  0.67000  0.85200  1.0000
  H   H29       1.0  0.56400  0.48200  0.86800  1.0000
  H   H30       1.0  0.37800  0.96500  0.87000  1.0000
  H   H31       1.0  0.09890  0.95400  0.87000  1.0000
  H   H32       1.0  0.23000  0.72800  0.87300  1.0000
  H   H33       1.0  0.76400  0.54700  0.96300  1.0000
  H   H34       1.0  0.24300  0.91600  0.98100  1.0000
  N   N1        1.0  0.76100  0.10900  0.10300  1.0000
  N   N2        1.0  0.27100  0.47500  0.12000  1.0000
  N   N3        1.0  0.63500  0.90100  0.36500  1.0000
  N   N4        1.0  0.65400  0.34500  0.37500  1.0000
  N   N5        1.0  0.15600  0.16300  0.44400  1.0000
  N   N6        1.0  0.84400  0.83700  0.55600  1.0000
  N   N7        1.0  0.34600  0.65500  0.62500  1.0000
  N   N8        1.0  0.36500  0.09930  0.63500  1.0000
  N   N9        1.0  0.72900  0.52500  0.88000  1.0000
  N   N10       1.0  0.23900  0.89100  0.89700  1.0000
  S   S1        1.0  0.79400  0.61000  0.13700  1.0000
  S   S2        1.0  0.25200  0.96600  0.15200  1.0000
  S   S3        1.0  0.16800  0.63300  0.35200  1.0000
  S   S4        1.0  0.83200  0.36700  0.64800  1.0000
  S   S5        1.0  0.74800  0.03410  0.84800  1.0000
  S   S6        1.0  0.20600  0.39000  0.86300  1.0000
  Si  Si1       1.0  0.11500  0.68100  0.19600  1.0000
  Si  Si2       1.0  0.88500  0.31900  0.80400  1.0000
