data_image0
_chemical_formula_structural       Cl16N16S16Ti4
_chemical_formula_sum              "Cl16 N16 S16 Ti4"
_cell_length_a       11.6735
_cell_length_b       8.35579
_cell_length_c       11.0011
_cell_angle_alpha    90
_cell_angle_beta     101.048
_cell_angle_gamma    90

_space_group_name_H-M_alt    "P 1"
_space_group_IT_number       1

loop_
  _space_group_symop_operation_xyz
  'x, y, z'

loop_
  _atom_site_type_symbol
  _atom_site_label
  _atom_site_symmetry_multiplicity
  _atom_site_fract_x
  _atom_site_fract_y
  _atom_site_fract_z
  _atom_site_occupancy
  Cl  Cl1       1.0  0.77400  0.03760  0.00678  1.0000
  Cl  Cl2       1.0  0.69000  0.42200  0.01070  1.0000
  Cl  Cl3       1.0  0.03360  0.16300  0.15400  1.0000
  Cl  Cl4       1.0  0.70100  0.73400  0.22000  1.0000
  Cl  Cl5       1.0  0.79900  0.23400  0.28000  1.0000
  Cl  Cl6       1.0  0.46600  0.66300  0.34600  1.0000
  Cl  Cl7       1.0  0.81000  0.92200  0.48900  1.0000
  Cl  Cl8       1.0  0.72600  0.53800  0.49300  1.0000
  Cl  Cl9       1.0  0.27400  0.46200  0.50700  1.0000
  Cl  Cl10      1.0  0.19000  0.07830  0.51100  1.0000
  Cl  Cl11      1.0  0.53400  0.33700  0.65400  1.0000
  Cl  Cl12      1.0  0.20100  0.76600  0.72000  1.0000
  Cl  Cl13      1.0  0.29900  0.26600  0.78000  1.0000
  Cl  Cl14      1.0  0.96600  0.83700  0.84600  1.0000
  Cl  Cl15      1.0  0.31000  0.57800  0.98900  1.0000
  Cl  Cl16      1.0  0.22600  0.96200  0.99300  1.0000
  N   N1        1.0  0.08500  0.65400  0.07850  1.0000
  N   N2        1.0  0.50000  0.14400  0.12000  1.0000
  N   N3        1.0  0.93500  0.49800  0.17300  1.0000
  N   N4        1.0  0.34900  0.29900  0.21400  1.0000
  N   N5        1.0  0.15100  0.79900  0.28600  1.0000
  N   N6        1.0  0.56500  0.99800  0.32700  1.0000
  N   N7        1.0  0.00000  0.64400  0.38000  1.0000
  N   N8        1.0  0.41500  0.15400  0.42200  1.0000
  N   N9        1.0  0.58500  0.84600  0.57800  1.0000
  N   N10       1.0  0.00022  0.35600  0.62000  1.0000
  N   N11       1.0  0.43500  0.00172  0.67300  1.0000
  N   N12       1.0  0.84900  0.20100  0.71400  1.0000
  N   N13       1.0  0.65100  0.70100  0.78600  1.0000
  N   N14       1.0  0.06520  0.50200  0.82700  1.0000
  N   N15       1.0  0.50000  0.85600  0.88000  1.0000
  N   N16       1.0  0.91500  0.34600  0.92200  1.0000
  S   S1        1.0  0.94800  0.66300  0.09670  1.0000
  S   S2        1.0  0.48100  0.31100  0.19000  1.0000
  S   S3        1.0  0.47400  0.98500  0.19100  1.0000
  S   S4        1.0  0.18000  0.64100  0.21200  1.0000
  S   S5        1.0  0.32000  0.14100  0.28800  1.0000
  S   S6        1.0  0.02600  0.48500  0.30900  1.0000
  S   S7        1.0  0.01890  0.81100  0.31000  1.0000
  S   S8        1.0  0.55200  0.16300  0.40300  1.0000
  S   S9        1.0  0.44800  0.83700  0.59700  1.0000
  S   S10       1.0  0.98100  0.18900  0.69000  1.0000
  S   S11       1.0  0.97400  0.51500  0.69100  1.0000
  S   S12       1.0  0.68000  0.85900  0.71200  1.0000
  S   S13       1.0  0.82000  0.35900  0.78800  1.0000
  S   S14       1.0  0.52600  0.01540  0.80900  1.0000
  S   S15       1.0  0.51900  0.68900  0.81000  1.0000
  S   S16       1.0  0.05210  0.33700  0.90300  1.0000
  Ti  Ti1       1.0  0.84700  0.26800  0.09450  1.0000
  Ti  Ti2       1.0  0.65300  0.76800  0.40500  1.0000
  Ti  Ti3       1.0  0.34700  0.23200  0.59500  1.0000
  Ti  Ti4       1.0  0.15300  0.73200  0.90500  1.0000
