data_image0
_chemical_formula_structural       B12Cs4Ge4O28
_chemical_formula_sum              "B12 Cs4 Ge4 O28"
_cell_length_a       9.47713
_cell_length_b       9.63002
_cell_length_c       6.98452
_cell_angle_alpha    90
_cell_angle_beta     90
_cell_angle_gamma    90

_space_group_name_H-M_alt    "P 1"
_space_group_IT_number       1

loop_
  _space_group_symop_operation_xyz
  'x, y, z'

loop_
  _atom_site_type_symbol
  _atom_site_label
  _atom_site_symmetry_multiplicity
  _atom_site_fract_x
  _atom_site_fract_y
  _atom_site_fract_z
  _atom_site_occupancy
  B   B1        1.0  0.84900  0.06950  0.20000  1.0000
  B   B2        1.0  0.34900  0.43000  0.20000  1.0000
  B   B3        1.0  0.67500  0.50900  0.36900  1.0000
  B   B4        1.0  0.17500  0.99100  0.36900  1.0000
  B   B5        1.0  0.53500  0.72200  0.45600  1.0000
  B   B6        1.0  0.03490  0.77800  0.45600  1.0000
  B   B7        1.0  0.65100  0.57000  0.70000  1.0000
  B   B8        1.0  0.15100  0.93000  0.70000  1.0000
  B   B9        1.0  0.82500  0.00945  0.86900  1.0000
  B   B10       1.0  0.32500  0.49100  0.86900  1.0000
  B   B11       1.0  0.96500  0.22200  0.95600  1.0000
  B   B12       1.0  0.46500  0.27800  0.95600  1.0000
  Cs  Cs1       1.0  0.99500  0.67200  0.00534  1.0000
  Cs  Cs2       1.0  0.49500  0.82800  0.00534  1.0000
  Cs  Cs3       1.0  0.50500  0.17200  0.50500  1.0000
  Cs  Cs4       1.0  0.00519  0.32800  0.50500  1.0000
  Ge  Ge1       1.0  0.26700  0.60700  0.49300  1.0000
  Ge  Ge2       1.0  0.76700  0.89300  0.49300  1.0000
  Ge  Ge3       1.0  0.23300  0.10700  0.99300  1.0000
  Ge  Ge4       1.0  0.73300  0.39300  0.99300  1.0000
  O   O1        1.0  0.29800  0.52200  0.06260  1.0000
  O   O2        1.0  0.79800  0.97800  0.06260  1.0000
  O   O3        1.0  0.93100  0.17900  0.15300  1.0000
  O   O4        1.0  0.43100  0.32100  0.15300  1.0000
  O   O5        1.0  0.24200  0.07910  0.24400  1.0000
  O   O6        1.0  0.74200  0.42100  0.24400  1.0000
  O   O7        1.0  0.59000  0.61600  0.31700  1.0000
  O   O8        1.0  0.08990  0.88400  0.31700  1.0000
  O   O9        1.0  0.81500  0.05560  0.39100  1.0000
  O   O10       1.0  0.31500  0.44400  0.39100  1.0000
  O   O11       1.0  0.09630  0.64100  0.41400  1.0000
  O   O12       1.0  0.59600  0.85900  0.41400  1.0000
  O   O13       1.0  0.38300  0.74100  0.43100  1.0000
  O   O14       1.0  0.88300  0.75900  0.43100  1.0000
  O   O15       1.0  0.20200  0.02180  0.56300  1.0000
  O   O16       1.0  0.70200  0.47800  0.56300  1.0000
  O   O17       1.0  0.56900  0.67900  0.65300  1.0000
  O   O18       1.0  0.06890  0.82100  0.65300  1.0000
  O   O19       1.0  0.25800  0.57900  0.74400  1.0000
  O   O20       1.0  0.75800  0.92100  0.74400  1.0000
  O   O21       1.0  0.91000  0.11600  0.81700  1.0000
  O   O22       1.0  0.41000  0.38400  0.81700  1.0000
  O   O23       1.0  0.68500  0.55600  0.89100  1.0000
  O   O24       1.0  0.18500  0.94400  0.89100  1.0000
  O   O25       1.0  0.40400  0.14100  0.91400  1.0000
  O   O26       1.0  0.90400  0.35900  0.91400  1.0000
  O   O27       1.0  0.11700  0.24100  0.93100  1.0000
  O   O28       1.0  0.61700  0.25900  0.93100  1.0000
