data_image0
_chemical_formula_structural       Mg2Na12O32S8
_chemical_formula_sum              "Mg2 Na12 O32 S8"
_cell_length_a       9.66959
_cell_length_b       9.12227
_cell_length_c       8.06508
_cell_angle_alpha    90
_cell_angle_beta     113.394
_cell_angle_gamma    90

_space_group_name_H-M_alt    "P 1"
_space_group_IT_number       1

loop_
  _space_group_symop_operation_xyz
  'x, y, z'

loop_
  _atom_site_type_symbol
  _atom_site_label
  _atom_site_symmetry_multiplicity
  _atom_site_fract_x
  _atom_site_fract_y
  _atom_site_fract_z
  _atom_site_occupancy
  Mg  Mg1       1.0  0.00000  0.00000  0.00000  1.0000
  Mg  Mg2       1.0  0.00000  0.50000  0.50000  1.0000
  Na  Na1       1.0  0.68800  0.51500  0.03520  1.0000
  Na  Na2       1.0  0.44600  0.15100  0.09370  1.0000
  Na  Na3       1.0  0.11300  0.63800  0.18300  1.0000
  Na  Na4       1.0  0.88700  0.13800  0.31700  1.0000
  Na  Na5       1.0  0.55400  0.65100  0.40600  1.0000
  Na  Na6       1.0  0.31200  0.01460  0.46500  1.0000
  Na  Na7       1.0  0.68800  0.98500  0.53500  1.0000
  Na  Na8       1.0  0.44600  0.34900  0.59400  1.0000
  Na  Na9       1.0  0.11300  0.86200  0.68300  1.0000
  Na  Na10      1.0  0.88700  0.36200  0.81700  1.0000
  Na  Na11      1.0  0.55400  0.84900  0.90600  1.0000
  Na  Na12      1.0  0.31200  0.48500  0.96500  1.0000
  O   O1        1.0  0.64700  0.08350  0.00808  1.0000
  O   O2        1.0  0.13500  0.39900  0.06870  1.0000
  O   O3        1.0  0.33300  0.69000  0.13900  1.0000
  O   O4        1.0  0.90200  0.89700  0.15300  1.0000
  O   O5        1.0  0.02820  0.18500  0.15400  1.0000
  O   O6        1.0  0.19800  0.90600  0.17100  1.0000
  O   O7        1.0  0.53300  0.39800  0.18000  1.0000
  O   O8        1.0  0.70600  0.74300  0.18300  1.0000
  O   O9        1.0  0.29400  0.24300  0.31700  1.0000
  O   O10       1.0  0.46700  0.89800  0.32000  1.0000
  O   O11       1.0  0.80200  0.40600  0.32900  1.0000
  O   O12       1.0  0.97200  0.68500  0.34600  1.0000
  O   O13       1.0  0.09840  0.39700  0.34700  1.0000
  O   O14       1.0  0.66700  0.19000  0.36100  1.0000
  O   O15       1.0  0.86500  0.89900  0.43100  1.0000
  O   O16       1.0  0.35300  0.58400  0.49200  1.0000
  O   O17       1.0  0.64700  0.41600  0.50800  1.0000
  O   O18       1.0  0.13500  0.10100  0.56900  1.0000
  O   O19       1.0  0.33300  0.81000  0.63900  1.0000
  O   O20       1.0  0.90200  0.60300  0.65300  1.0000
  O   O21       1.0  0.02820  0.31500  0.65400  1.0000
  O   O22       1.0  0.19800  0.59400  0.67100  1.0000
  O   O23       1.0  0.53300  0.10200  0.68000  1.0000
  O   O24       1.0  0.70600  0.75700  0.68300  1.0000
  O   O25       1.0  0.29400  0.25700  0.81700  1.0000
  O   O26       1.0  0.46700  0.60200  0.82000  1.0000
  O   O27       1.0  0.80200  0.09450  0.82900  1.0000
  O   O28       1.0  0.97200  0.81500  0.84600  1.0000
  O   O29       1.0  0.09840  0.10300  0.84700  1.0000
  O   O30       1.0  0.66700  0.31000  0.86100  1.0000
  O   O31       1.0  0.86500  0.60100  0.93100  1.0000
  O   O32       1.0  0.35300  0.91600  0.99200  1.0000
  S   S1        1.0  0.33900  0.85200  0.15300  1.0000
  S   S2        1.0  0.14100  0.30600  0.22300  1.0000
  S   S3        1.0  0.85900  0.80600  0.27700  1.0000
  S   S4        1.0  0.66100  0.35200  0.34700  1.0000
  S   S5        1.0  0.33900  0.64800  0.65300  1.0000
  S   S6        1.0  0.14100  0.19400  0.72300  1.0000
  S   S7        1.0  0.85900  0.69400  0.77700  1.0000
  S   S8        1.0  0.66100  0.14800  0.84700  1.0000
