data_image0
_chemical_formula_structural       Ba8Mg4O32P8
_chemical_formula_sum              "Ba8 Mg4 O32 P8"
_cell_length_a       5.28122
_cell_length_b       8.79639
_cell_length_c       16.1498
_cell_angle_alpha    90
_cell_angle_beta     90.7269
_cell_angle_gamma    90

_space_group_name_H-M_alt    "P 1"
_space_group_IT_number       1

loop_
  _space_group_symop_operation_xyz
  'x, y, z'

loop_
  _atom_site_type_symbol
  _atom_site_label
  _atom_site_symmetry_multiplicity
  _atom_site_fract_x
  _atom_site_fract_y
  _atom_site_fract_z
  _atom_site_occupancy
  Ba  Ba1       1.0  0.70500  0.70200  0.02050  1.0000
  Ba  Ba2       1.0  0.75300  0.34400  0.22900  1.0000
  Ba  Ba3       1.0  0.74700  0.84400  0.27100  1.0000
  Ba  Ba4       1.0  0.79500  0.20200  0.48000  1.0000
  Ba  Ba5       1.0  0.20500  0.79800  0.52000  1.0000
  Ba  Ba6       1.0  0.25300  0.15600  0.72900  1.0000
  Ba  Ba7       1.0  0.24700  0.65600  0.77100  1.0000
  Ba  Ba8       1.0  0.29500  0.29800  0.98000  1.0000
  Mg  Mg1       1.0  0.22800  0.98600  0.13400  1.0000
  Mg  Mg2       1.0  0.27200  0.48600  0.36600  1.0000
  Mg  Mg3       1.0  0.72800  0.51400  0.63400  1.0000
  Mg  Mg4       1.0  0.77200  0.01380  0.86600  1.0000
  O   O1        1.0  0.28600  0.91200  0.01590  1.0000
  O   O2        1.0  0.35100  0.52400  0.08950  1.0000
  O   O3        1.0  0.98200  0.20200  0.09980  1.0000
  O   O4        1.0  0.84900  0.93400  0.11300  1.0000
  O   O5        1.0  0.51900  0.14000  0.12300  1.0000
  O   O6        1.0  0.95300  0.60900  0.16500  1.0000
  O   O7        1.0  0.35400  0.77400  0.16700  1.0000
  O   O8        1.0  0.34700  0.52800  0.24600  1.0000
  O   O9        1.0  0.15300  0.02760  0.25400  1.0000
  O   O10       1.0  0.14600  0.27400  0.33300  1.0000
  O   O11       1.0  0.54700  0.10900  0.33500  1.0000
  O   O12       1.0  0.98100  0.64000  0.37700  1.0000
  O   O13       1.0  0.65100  0.43400  0.38700  1.0000
  O   O14       1.0  0.51800  0.70200  0.40000  1.0000
  O   O15       1.0  0.14900  0.02420  0.41100  1.0000
  O   O16       1.0  0.21400  0.41200  0.48400  1.0000
  O   O17       1.0  0.78600  0.58800  0.51600  1.0000
  O   O18       1.0  0.85100  0.97600  0.58900  1.0000
  O   O19       1.0  0.48200  0.29800  0.60000  1.0000
  O   O20       1.0  0.34900  0.56600  0.61300  1.0000
  O   O21       1.0  0.01890  0.36000  0.62300  1.0000
  O   O22       1.0  0.45300  0.89100  0.66500  1.0000
  O   O23       1.0  0.85400  0.72600  0.66700  1.0000
  O   O24       1.0  0.84700  0.97200  0.74600  1.0000
  O   O25       1.0  0.65300  0.47200  0.75400  1.0000
  O   O26       1.0  0.64600  0.22600  0.83300  1.0000
  O   O27       1.0  0.04700  0.39100  0.83500  1.0000
  O   O28       1.0  0.48100  0.86000  0.87700  1.0000
  O   O29       1.0  0.15100  0.06600  0.88700  1.0000
  O   O30       1.0  0.01750  0.79800  0.90000  1.0000
  O   O31       1.0  0.64900  0.47600  0.91100  1.0000
  O   O32       1.0  0.71400  0.08810  0.98400  1.0000
  P   P1        1.0  0.76400  0.09050  0.07740  1.0000
  P   P2        1.0  0.24700  0.60900  0.16700  1.0000
  P   P3        1.0  0.25300  0.10900  0.33300  1.0000
  P   P4        1.0  0.73600  0.59000  0.42300  1.0000
  P   P5        1.0  0.26400  0.41000  0.57700  1.0000
  P   P6        1.0  0.74700  0.89100  0.66700  1.0000
  P   P7        1.0  0.75300  0.39100  0.83300  1.0000
  P   P8        1.0  0.23600  0.91000  0.92300  1.0000
