data_image0
_chemical_formula_structural       Be4Cu4O4Te4
_chemical_formula_sum              "Be4 Cu4 O4 Te4"
_cell_length_a       5.43702
_cell_length_b       5.90785
_cell_length_c       9.81366
_cell_angle_alpha    90
_cell_angle_beta     90
_cell_angle_gamma    90

_space_group_name_H-M_alt    "P 1"
_space_group_IT_number       1

loop_
  _space_group_symop_operation_xyz
  'x, y, z'

loop_
  _atom_site_type_symbol
  _atom_site_label
  _atom_site_symmetry_multiplicity
  _atom_site_fract_x
  _atom_site_fract_y
  _atom_site_fract_z
  _atom_site_occupancy
  Be  Be1       1.0  0.23800  0.24800  0.00209  1.0000
  Be  Be2       1.0  0.76200  0.74800  0.49800  1.0000
  Be  Be3       1.0  0.26200  0.75200  0.50200  1.0000
  Be  Be4       1.0  0.73800  0.25200  0.99800  1.0000
  Cu  Cu1       1.0  0.25500  0.75000  0.00179  1.0000
  Cu  Cu2       1.0  0.74500  0.25000  0.49800  1.0000
  Cu  Cu3       1.0  0.24500  0.25000  0.50200  1.0000
  Cu  Cu4       1.0  0.75500  0.75000  0.99800  1.0000
  O   O1        1.0  0.49000  0.24300  0.04770  1.0000
  O   O2        1.0  0.51000  0.74300  0.45200  1.0000
  O   O3        1.0  0.00998  0.75700  0.54800  1.0000
  O   O4        1.0  0.99000  0.25700  0.95200  1.0000
  Te  Te1       1.0  0.00000  0.76800  0.21100  1.0000
  Te  Te2       1.0  0.00030  0.26800  0.28900  1.0000
  Te  Te3       1.0  0.50000  0.23200  0.71100  1.0000
  Te  Te4       1.0  0.50000  0.73200  0.78900  1.0000
