data_image0
_chemical_formula_structural       Ba4Ga8Ge8O32
_chemical_formula_sum              "Ba4 Ga8 Ge8 O32"
_cell_length_a       9.2944
_cell_length_b       9.9149
_cell_length_c       8.77223
_cell_angle_alpha    90
_cell_angle_beta     90.3695
_cell_angle_gamma    90

_space_group_name_H-M_alt    "P 1"
_space_group_IT_number       1

loop_
  _space_group_symop_operation_xyz
  'x, y, z'

loop_
  _atom_site_type_symbol
  _atom_site_label
  _atom_site_symmetry_multiplicity
  _atom_site_fract_x
  _atom_site_fract_y
  _atom_site_fract_z
  _atom_site_occupancy
  Ba  Ba1       1.0  0.38800  0.08840  0.25100  1.0000
  Ba  Ba2       1.0  0.88800  0.41200  0.25100  1.0000
  Ba  Ba3       1.0  0.11200  0.58800  0.74900  1.0000
  Ba  Ba4       1.0  0.61200  0.91200  0.74900  1.0000
  Ga  Ga1       1.0  0.26800  0.42200  0.06670  1.0000
  Ga  Ga2       1.0  0.76800  0.07810  0.06670  1.0000
  Ga  Ga3       1.0  0.44100  0.69100  0.42700  1.0000
  Ga  Ga4       1.0  0.94100  0.80900  0.42700  1.0000
  Ga  Ga5       1.0  0.05850  0.19100  0.57300  1.0000
  Ga  Ga6       1.0  0.55900  0.30900  0.57300  1.0000
  Ga  Ga7       1.0  0.23200  0.92200  0.93300  1.0000
  Ga  Ga8       1.0  0.73200  0.57800  0.93300  1.0000
  Ge  Ge1       1.0  0.43800  0.69700  0.06300  1.0000
  Ge  Ge2       1.0  0.93800  0.80300  0.06300  1.0000
  Ge  Ge3       1.0  0.26200  0.41800  0.43700  1.0000
  Ge  Ge4       1.0  0.76200  0.08190  0.43700  1.0000
  Ge  Ge5       1.0  0.23800  0.91800  0.56300  1.0000
  Ge  Ge6       1.0  0.73800  0.58200  0.56300  1.0000
  Ge  Ge7       1.0  0.06200  0.19700  0.93700  1.0000
  Ge  Ge8       1.0  0.56200  0.30300  0.93700  1.0000
  O   O1        1.0  0.20300  0.09310  0.00780  1.0000
  O   O2        1.0  0.70300  0.40700  0.00780  1.0000
  O   O3        1.0  0.38000  0.86600  0.06350  1.0000
  O   O4        1.0  0.88000  0.63400  0.06350  1.0000
  O   O5        1.0  0.42400  0.31000  0.07410  1.0000
  O   O6        1.0  0.92400  0.19000  0.07410  1.0000
  O   O7        1.0  0.00148  0.86200  0.23900  1.0000
  O   O8        1.0  0.50100  0.63800  0.23900  1.0000
  O   O9        1.0  0.17900  0.41600  0.25500  1.0000
  O   O10       1.0  0.67900  0.08380  0.25500  1.0000
  O   O11       1.0  0.40900  0.30900  0.43300  1.0000
  O   O12       1.0  0.90900  0.19100  0.43300  1.0000
  O   O13       1.0  0.37800  0.86800  0.43800  1.0000
  O   O14       1.0  0.87800  0.63200  0.43800  1.0000
  O   O15       1.0  0.69900  0.42000  0.49200  1.0000
  O   O16       1.0  0.19900  0.07980  0.49200  1.0000
  O   O17       1.0  0.30100  0.58000  0.50800  1.0000
  O   O18       1.0  0.80100  0.92000  0.50800  1.0000
  O   O19       1.0  0.12200  0.36800  0.56200  1.0000
  O   O20       1.0  0.62200  0.13200  0.56200  1.0000
  O   O21       1.0  0.09100  0.80900  0.56700  1.0000
  O   O22       1.0  0.59100  0.69100  0.56700  1.0000
  O   O23       1.0  0.32100  0.91600  0.74500  1.0000
  O   O24       1.0  0.82100  0.58400  0.74500  1.0000
  O   O25       1.0  0.99900  0.13800  0.76100  1.0000
  O   O26       1.0  0.49900  0.36200  0.76100  1.0000
  O   O27       1.0  0.07570  0.81000  0.92600  1.0000
  O   O28       1.0  0.57600  0.69000  0.92600  1.0000
  O   O29       1.0  0.12000  0.36600  0.93700  1.0000
  O   O30       1.0  0.62000  0.13400  0.93700  1.0000
  O   O31       1.0  0.29700  0.59300  0.99200  1.0000
  O   O32       1.0  0.79700  0.90700  0.99200  1.0000
