data_image0
_chemical_formula_structural       Na12O28Sc4Si8
_chemical_formula_sum              "Na12 O28 Sc4 Si8"
_cell_length_a       5.32657
_cell_length_b       9.31584
_cell_length_c       13.0019
_cell_angle_alpha    90
_cell_angle_beta     90
_cell_angle_gamma    90

_space_group_name_H-M_alt    "P 1"
_space_group_IT_number       1

loop_
  _space_group_symop_operation_xyz
  'x, y, z'

loop_
  _atom_site_type_symbol
  _atom_site_label
  _atom_site_symmetry_multiplicity
  _atom_site_fract_x
  _atom_site_fract_y
  _atom_site_fract_z
  _atom_site_occupancy
  Na  Na1       1.0  0.01920  0.34800  0.09710  1.0000
  Na  Na2       1.0  0.48100  0.84800  0.09710  1.0000
  Na  Na3       1.0  0.01690  0.02100  0.25000  1.0000
  Na  Na4       1.0  0.48300  0.52100  0.25000  1.0000
  Na  Na5       1.0  0.01920  0.34800  0.40300  1.0000
  Na  Na6       1.0  0.48100  0.84800  0.40300  1.0000
  Na  Na7       1.0  0.51900  0.15200  0.59700  1.0000
  Na  Na8       1.0  0.98100  0.65200  0.59700  1.0000
  Na  Na9       1.0  0.51700  0.47900  0.75000  1.0000
  Na  Na10      1.0  0.98300  0.97900  0.75000  1.0000
  Na  Na11      1.0  0.51900  0.15200  0.90300  1.0000
  Na  Na12      1.0  0.98100  0.65200  0.90300  1.0000
  O   O1        1.0  0.32300  0.09060  0.05630  1.0000
  O   O2        1.0  0.17700  0.59100  0.05630  1.0000
  O   O3        1.0  0.80500  0.13100  0.10900  1.0000
  O   O4        1.0  0.69500  0.63100  0.10900  1.0000
  O   O5        1.0  0.47000  0.34800  0.12200  1.0000
  O   O6        1.0  0.03040  0.84800  0.12200  1.0000
  O   O7        1.0  0.43700  0.11900  0.25000  1.0000
  O   O8        1.0  0.06340  0.61900  0.25000  1.0000
  O   O9        1.0  0.47000  0.34800  0.37800  1.0000
  O   O10       1.0  0.03040  0.84800  0.37800  1.0000
  O   O11       1.0  0.80500  0.13100  0.39100  1.0000
  O   O12       1.0  0.69500  0.63100  0.39100  1.0000
  O   O13       1.0  0.32300  0.09060  0.44400  1.0000
  O   O14       1.0  0.17700  0.59100  0.44400  1.0000
  O   O15       1.0  0.82300  0.40900  0.55600  1.0000
  O   O16       1.0  0.67700  0.90900  0.55600  1.0000
  O   O17       1.0  0.30500  0.36900  0.60900  1.0000
  O   O18       1.0  0.19500  0.86900  0.60900  1.0000
  O   O19       1.0  0.97000  0.15200  0.62200  1.0000
  O   O20       1.0  0.53000  0.65200  0.62200  1.0000
  O   O21       1.0  0.93700  0.38100  0.75000  1.0000
  O   O22       1.0  0.56300  0.88100  0.75000  1.0000
  O   O23       1.0  0.97000  0.15200  0.87800  1.0000
  O   O24       1.0  0.53000  0.65200  0.87800  1.0000
  O   O25       1.0  0.30500  0.36900  0.89100  1.0000
  O   O26       1.0  0.19500  0.86900  0.89100  1.0000
  O   O27       1.0  0.82300  0.40900  0.94400  1.0000
  O   O28       1.0  0.67700  0.90900  0.94400  1.0000
  Sc  Sc1       1.0  0.00000  0.00000  0.00000  1.0000
  Sc  Sc2       1.0  0.50000  0.50000  0.00000  1.0000
  Sc  Sc3       1.0  0.00000  0.00000  0.50000  1.0000
  Sc  Sc4       1.0  0.50000  0.50000  0.50000  1.0000
  Si  Si1       1.0  0.51400  0.17600  0.13200  1.0000
  Si  Si2       1.0  0.98600  0.67600  0.13200  1.0000
  Si  Si3       1.0  0.51400  0.17600  0.36800  1.0000
  Si  Si4       1.0  0.98600  0.67600  0.36800  1.0000
  Si  Si5       1.0  0.01390  0.32400  0.63200  1.0000
  Si  Si6       1.0  0.48600  0.82400  0.63200  1.0000
  Si  Si7       1.0  0.01390  0.32400  0.86800  1.0000
  Si  Si8       1.0  0.48600  0.82400  0.86800  1.0000
