data_image0
_chemical_formula_structural       As8Hg12O32
_chemical_formula_sum              "As8 Hg12 O32"
_cell_length_a       9.98855
_cell_length_b       11.7936
_cell_length_c       6.55659
_cell_angle_alpha    90
_cell_angle_beta     99.9275
_cell_angle_gamma    90

_space_group_name_H-M_alt    "P 1"
_space_group_IT_number       1

loop_
  _space_group_symop_operation_xyz
  'x, y, z'

loop_
  _atom_site_type_symbol
  _atom_site_label
  _atom_site_symmetry_multiplicity
  _atom_site_fract_x
  _atom_site_fract_y
  _atom_site_fract_z
  _atom_site_occupancy
  As  As1       1.0  0.90500  0.63100  0.08880  1.0000
  As  As2       1.0  0.39800  0.90200  0.20900  1.0000
  As  As3       1.0  0.60200  0.40200  0.29100  1.0000
  As  As4       1.0  0.09540  0.13100  0.41100  1.0000
  As  As5       1.0  0.90500  0.86900  0.58900  1.0000
  As  As6       1.0  0.39800  0.59800  0.70900  1.0000
  As  As7       1.0  0.60200  0.09840  0.79100  1.0000
  As  As8       1.0  0.09540  0.36900  0.91100  1.0000
  Hg  Hg1       1.0  0.33700  0.16400  0.09440  1.0000
  Hg  Hg2       1.0  0.04650  0.87800  0.16700  1.0000
  Hg  Hg3       1.0  0.30000  0.61200  0.18200  1.0000
  Hg  Hg4       1.0  0.70000  0.11200  0.31800  1.0000
  Hg  Hg5       1.0  0.95300  0.37800  0.33300  1.0000
  Hg  Hg6       1.0  0.66300  0.66400  0.40600  1.0000
  Hg  Hg7       1.0  0.33700  0.33600  0.59400  1.0000
  Hg  Hg8       1.0  0.04650  0.62200  0.66700  1.0000
  Hg  Hg9       1.0  0.30000  0.88800  0.68200  1.0000
  Hg  Hg10      1.0  0.70000  0.38800  0.81800  1.0000
  Hg  Hg11      1.0  0.95300  0.12200  0.83300  1.0000
  Hg  Hg12      1.0  0.66300  0.83600  0.90600  1.0000
  O   O1        1.0  0.72200  0.07530  0.01200  1.0000
  O   O2        1.0  0.05490  0.70400  0.07400  1.0000
  O   O3        1.0  0.13400  0.45000  0.12600  1.0000
  O   O4        1.0  0.70300  0.34000  0.12900  1.0000
  O   O5        1.0  0.78900  0.73400  0.13200  1.0000
  O   O6        1.0  0.52400  0.81100  0.17800  1.0000
  O   O7        1.0  0.08710  0.05770  0.18000  1.0000
  O   O8        1.0  0.54600  0.53700  0.21000  1.0000
  O   O9        1.0  0.45400  0.03660  0.29000  1.0000
  O   O10       1.0  0.91300  0.55800  0.32000  1.0000
  O   O11       1.0  0.47600  0.31100  0.32200  1.0000
  O   O12       1.0  0.21100  0.23400  0.36800  1.0000
  O   O13       1.0  0.29700  0.84000  0.37100  1.0000
  O   O14       1.0  0.86600  0.95000  0.37400  1.0000
  O   O15       1.0  0.94500  0.20400  0.42600  1.0000
  O   O16       1.0  0.27800  0.57500  0.48800  1.0000
  O   O17       1.0  0.72200  0.42500  0.51200  1.0000
  O   O18       1.0  0.05490  0.79600  0.57400  1.0000
  O   O19       1.0  0.13400  0.05030  0.62600  1.0000
  O   O20       1.0  0.70300  0.16000  0.62900  1.0000
  O   O21       1.0  0.78900  0.76600  0.63200  1.0000
  O   O22       1.0  0.52400  0.68900  0.67800  1.0000
  O   O23       1.0  0.08710  0.44200  0.68000  1.0000
  O   O24       1.0  0.54600  0.96300  0.71000  1.0000
  O   O25       1.0  0.45400  0.46300  0.79000  1.0000
  O   O26       1.0  0.91300  0.94200  0.82000  1.0000
  O   O27       1.0  0.47600  0.18900  0.82200  1.0000
  O   O28       1.0  0.21100  0.26600  0.86800  1.0000
  O   O29       1.0  0.29700  0.66000  0.87100  1.0000
  O   O30       1.0  0.86600  0.55000  0.87400  1.0000
  O   O31       1.0  0.94500  0.29600  0.92600  1.0000
  O   O32       1.0  0.27800  0.92500  0.98800  1.0000
