data_image0
_chemical_formula_structural       Li40Pb12
_chemical_formula_sum              "Li40 Pb12"
_cell_length_a       9.88709
_cell_length_b       9.88709
_cell_length_c       9.88709
_cell_angle_alpha    90
_cell_angle_beta     90
_cell_angle_gamma    90

_space_group_name_H-M_alt    "P 1"
_space_group_IT_number       1

loop_
  _space_group_symop_operation_xyz
  'x, y, z'

loop_
  _atom_site_type_symbol
  _atom_site_label
  _atom_site_symmetry_multiplicity
  _atom_site_fract_x
  _atom_site_fract_y
  _atom_site_fract_z
  _atom_site_occupancy
  Li  Li1       1.0  0.35100  0.00000  0.00000  1.0000
  Li  Li2       1.0  0.64900  0.00000  0.00000  1.0000
  Li  Li3       1.0  0.00000  0.35100  0.00000  1.0000
  Li  Li4       1.0  0.00000  0.64900  0.00000  1.0000
  Li  Li5       1.0  0.11100  0.11100  0.11100  1.0000
  Li  Li6       1.0  0.88900  0.88900  0.11100  1.0000
  Li  Li7       1.0  0.50000  0.50000  0.14400  1.0000
  Li  Li8       1.0  0.81700  0.18300  0.18300  1.0000
  Li  Li9       1.0  0.18300  0.81700  0.18300  1.0000
  Li  Li10      1.0  0.53000  0.19100  0.19100  1.0000
  Li  Li11      1.0  0.80900  0.47000  0.19100  1.0000
  Li  Li12      1.0  0.19100  0.53000  0.19100  1.0000
  Li  Li13      1.0  0.47000  0.80900  0.19100  1.0000
  Li  Li14      1.0  0.31900  0.31900  0.31900  1.0000
  Li  Li15      1.0  0.68100  0.68100  0.31900  1.0000
  Li  Li16      1.0  0.00000  0.00000  0.35100  1.0000
  Li  Li17      1.0  0.60500  0.39500  0.39500  1.0000
  Li  Li18      1.0  0.39500  0.60500  0.39500  1.0000
  Li  Li19      1.0  0.80900  0.19100  0.47000  1.0000
  Li  Li20      1.0  0.19100  0.80900  0.47000  1.0000
  Li  Li21      1.0  0.50000  0.14400  0.50000  1.0000
  Li  Li22      1.0  0.14400  0.50000  0.50000  1.0000
  Li  Li23      1.0  0.85600  0.50000  0.50000  1.0000
  Li  Li24      1.0  0.50000  0.85600  0.50000  1.0000
  Li  Li25      1.0  0.19100  0.19100  0.53000  1.0000
  Li  Li26      1.0  0.80900  0.80900  0.53000  1.0000
  Li  Li27      1.0  0.39500  0.39500  0.60500  1.0000
  Li  Li28      1.0  0.60500  0.60500  0.60500  1.0000
  Li  Li29      1.0  0.00000  0.00000  0.64900  1.0000
  Li  Li30      1.0  0.68100  0.31900  0.68100  1.0000
  Li  Li31      1.0  0.31900  0.68100  0.68100  1.0000
  Li  Li32      1.0  0.47000  0.19100  0.80900  1.0000
  Li  Li33      1.0  0.19100  0.47000  0.80900  1.0000
  Li  Li34      1.0  0.80900  0.53000  0.80900  1.0000
  Li  Li35      1.0  0.53000  0.80900  0.80900  1.0000
  Li  Li36      1.0  0.18300  0.18300  0.81700  1.0000
  Li  Li37      1.0  0.81700  0.81700  0.81700  1.0000
  Li  Li38      1.0  0.50000  0.50000  0.85600  1.0000
  Li  Li39      1.0  0.88900  0.11100  0.88900  1.0000
  Li  Li40      1.0  0.11100  0.88900  0.88900  1.0000
  Pb  Pb1       1.0  0.31400  0.31400  0.03160  1.0000
  Pb  Pb2       1.0  0.68600  0.68600  0.03160  1.0000
  Pb  Pb3       1.0  0.31400  0.03160  0.31400  1.0000
  Pb  Pb4       1.0  0.03160  0.31400  0.31400  1.0000
  Pb  Pb5       1.0  0.96800  0.68600  0.31400  1.0000
  Pb  Pb6       1.0  0.68600  0.96800  0.31400  1.0000
  Pb  Pb7       1.0  0.68600  0.03160  0.68600  1.0000
  Pb  Pb8       1.0  0.96800  0.31400  0.68600  1.0000
  Pb  Pb9       1.0  0.03160  0.68600  0.68600  1.0000
  Pb  Pb10      1.0  0.31400  0.96800  0.68600  1.0000
  Pb  Pb11      1.0  0.68600  0.31400  0.96800  1.0000
  Pb  Pb12      1.0  0.31400  0.68600  0.96800  1.0000
