data_image0
_chemical_formula_structural       Be8Ca4O32P8
_chemical_formula_sum              "Be8 Ca4 O32 P8"
_cell_length_a       8.22547
_cell_length_b       8.76502
_cell_length_c       7.75726
_cell_angle_alpha    90
_cell_angle_beta     89.5968
_cell_angle_gamma    90

_space_group_name_H-M_alt    "P 1"
_space_group_IT_number       1

loop_
  _space_group_symop_operation_xyz
  'x, y, z'

loop_
  _atom_site_type_symbol
  _atom_site_label
  _atom_site_symmetry_multiplicity
  _atom_site_fract_x
  _atom_site_fract_y
  _atom_site_fract_z
  _atom_site_occupancy
  Be  Be1       1.0  0.73700  0.57700  0.06850  1.0000
  Be  Be2       1.0  0.23700  0.92300  0.06850  1.0000
  Be  Be3       1.0  0.55400  0.30600  0.43100  1.0000
  Be  Be4       1.0  0.05360  0.19400  0.43100  1.0000
  Be  Be5       1.0  0.44600  0.69400  0.56900  1.0000
  Be  Be6       1.0  0.94600  0.80600  0.56900  1.0000
  Be  Be7       1.0  0.76300  0.07700  0.93100  1.0000
  Be  Be8       1.0  0.26300  0.42300  0.93100  1.0000
  Ca  Ca1       1.0  0.61600  0.91400  0.24500  1.0000
  Ca  Ca2       1.0  0.11600  0.58600  0.24500  1.0000
  Ca  Ca3       1.0  0.88400  0.41400  0.75500  1.0000
  Ca  Ca4       1.0  0.38400  0.08640  0.75500  1.0000
  O   O1        1.0  0.80700  0.91100  0.00511  1.0000
  O   O2        1.0  0.30700  0.58900  0.00511  1.0000
  O   O3        1.0  0.61900  0.13600  0.06080  1.0000
  O   O4        1.0  0.11900  0.36400  0.06080  1.0000
  O   O5        1.0  0.08280  0.81000  0.07030  1.0000
  O   O6        1.0  0.58300  0.69000  0.07030  1.0000
  O   O7        1.0  0.99800  0.15000  0.24100  1.0000
  O   O8        1.0  0.49800  0.35000  0.24100  1.0000
  O   O9        1.0  0.82200  0.57500  0.25700  1.0000
  O   O10       1.0  0.32200  0.92500  0.25700  1.0000
  O   O11       1.0  0.59700  0.69100  0.43200  1.0000
  O   O12       1.0  0.09720  0.80900  0.43200  1.0000
  O   O13       1.0  0.62400  0.13200  0.43600  1.0000
  O   O14       1.0  0.12400  0.36800  0.43600  1.0000
  O   O15       1.0  0.81000  0.92300  0.49200  1.0000
  O   O16       1.0  0.31000  0.57700  0.49200  1.0000
  O   O17       1.0  0.69000  0.42300  0.50800  1.0000
  O   O18       1.0  0.19000  0.07670  0.50800  1.0000
  O   O19       1.0  0.37600  0.86800  0.56400  1.0000
  O   O20       1.0  0.87600  0.63200  0.56400  1.0000
  O   O21       1.0  0.40300  0.30900  0.56800  1.0000
  O   O22       1.0  0.90300  0.19100  0.56800  1.0000
  O   O23       1.0  0.17800  0.42500  0.74300  1.0000
  O   O24       1.0  0.67800  0.07460  0.74300  1.0000
  O   O25       1.0  0.00217  0.85000  0.75900  1.0000
  O   O26       1.0  0.50200  0.65000  0.75900  1.0000
  O   O27       1.0  0.91700  0.19000  0.93000  1.0000
  O   O28       1.0  0.41700  0.31000  0.93000  1.0000
  O   O29       1.0  0.38100  0.86400  0.93900  1.0000
  O   O30       1.0  0.88100  0.63600  0.93900  1.0000
  O   O31       1.0  0.19300  0.08940  0.99500  1.0000
  O   O32       1.0  0.69300  0.41100  0.99500  1.0000
  P   P1        1.0  0.55700  0.30300  0.06200  1.0000
  P   P2        1.0  0.05660  0.19700  0.06200  1.0000
  P   P3        1.0  0.24100  0.92000  0.43900  1.0000
  P   P4        1.0  0.74100  0.58000  0.43900  1.0000
  P   P5        1.0  0.75900  0.08030  0.56100  1.0000
  P   P6        1.0  0.25900  0.42000  0.56100  1.0000
  P   P7        1.0  0.44300  0.69700  0.93800  1.0000
  P   P8        1.0  0.94300  0.80300  0.93800  1.0000
