data_image0
_chemical_formula_structural       Al8Cl32Hg12
_chemical_formula_sum              "Al8 Cl32 Hg12"
_cell_length_a       7.21898
_cell_length_b       15.283
_cell_length_c       14.3558
_cell_angle_alpha    90
_cell_angle_beta     99.459
_cell_angle_gamma    90

_space_group_name_H-M_alt    "P 1"
_space_group_IT_number       1

loop_
  _space_group_symop_operation_xyz
  'x, y, z'

loop_
  _atom_site_type_symbol
  _atom_site_label
  _atom_site_symmetry_multiplicity
  _atom_site_fract_x
  _atom_site_fract_y
  _atom_site_fract_z
  _atom_site_occupancy
  Al  Al1       1.0  0.60100  0.68200  0.09470  1.0000
  Al  Al2       1.0  0.19400  0.89700  0.22400  1.0000
  Al  Al3       1.0  0.80600  0.39700  0.27600  1.0000
  Al  Al4       1.0  0.39900  0.18200  0.40500  1.0000
  Al  Al5       1.0  0.60100  0.81800  0.59500  1.0000
  Al  Al6       1.0  0.19400  0.60300  0.72400  1.0000
  Al  Al7       1.0  0.80600  0.10300  0.77600  1.0000
  Al  Al8       1.0  0.39900  0.31800  0.90500  1.0000
  Cl  Cl1       1.0  0.81900  0.61400  0.02920  1.0000
  Cl  Cl2       1.0  0.59500  0.81500  0.04440  1.0000
  Cl  Cl3       1.0  0.34900  0.61000  0.04560  1.0000
  Cl  Cl4       1.0  0.17500  0.97800  0.09940  1.0000
  Cl  Cl5       1.0  0.99600  0.43600  0.18500  1.0000
  Cl  Cl6       1.0  0.15200  0.76100  0.19000  1.0000
  Cl  Cl7       1.0  0.51700  0.41000  0.19900  1.0000
  Cl  Cl8       1.0  0.67700  0.67200  0.24500  1.0000
  Cl  Cl9       1.0  0.32300  0.17200  0.25500  1.0000
  Cl  Cl10      1.0  0.48300  0.91000  0.30100  1.0000
  Cl  Cl11      1.0  0.84800  0.26100  0.31000  1.0000
  Cl  Cl12      1.0  0.00371  0.93600  0.31500  1.0000
  Cl  Cl13      1.0  0.82500  0.47800  0.40100  1.0000
  Cl  Cl14      1.0  0.65100  0.11000  0.45400  1.0000
  Cl  Cl15      1.0  0.40500  0.31500  0.45600  1.0000
  Cl  Cl16      1.0  0.18100  0.11400  0.47100  1.0000
  Cl  Cl17      1.0  0.81900  0.88600  0.52900  1.0000
  Cl  Cl18      1.0  0.59500  0.68500  0.54400  1.0000
  Cl  Cl19      1.0  0.34900  0.89000  0.54600  1.0000
  Cl  Cl20      1.0  0.17500  0.52200  0.59900  1.0000
  Cl  Cl21      1.0  0.99600  0.06350  0.68500  1.0000
  Cl  Cl22      1.0  0.15200  0.73900  0.69000  1.0000
  Cl  Cl23      1.0  0.51700  0.08990  0.69900  1.0000
  Cl  Cl24      1.0  0.67700  0.82800  0.74500  1.0000
  Cl  Cl25      1.0  0.32300  0.32800  0.75500  1.0000
  Cl  Cl26      1.0  0.48300  0.59000  0.80100  1.0000
  Cl  Cl27      1.0  0.84800  0.23900  0.81000  1.0000
  Cl  Cl28      1.0  0.00371  0.56400  0.81500  1.0000
  Cl  Cl29      1.0  0.82500  0.02250  0.90100  1.0000
  Cl  Cl30      1.0  0.65100  0.39000  0.95400  1.0000
  Cl  Cl31      1.0  0.40500  0.18500  0.95600  1.0000
  Cl  Cl32      1.0  0.18100  0.38600  0.97100  1.0000
  Hg  Hg1       1.0  0.99200  0.26200  0.03310  1.0000
  Hg  Hg2       1.0  0.81200  0.13800  0.10900  1.0000
  Hg  Hg3       1.0  0.62800  0.02390  0.19800  1.0000
  Hg  Hg4       1.0  0.37200  0.52400  0.30200  1.0000
  Hg  Hg5       1.0  0.18800  0.63800  0.39100  1.0000
  Hg  Hg6       1.0  0.00765  0.76200  0.46700  1.0000
  Hg  Hg7       1.0  0.99200  0.23800  0.53300  1.0000
  Hg  Hg8       1.0  0.81200  0.36200  0.60900  1.0000
  Hg  Hg9       1.0  0.62800  0.47600  0.69800  1.0000
  Hg  Hg10      1.0  0.37200  0.97600  0.80200  1.0000
  Hg  Hg11      1.0  0.18800  0.86200  0.89100  1.0000
  Hg  Hg12      1.0  0.00765  0.73800  0.96700  1.0000
