data_image0
_chemical_formula_structural       Be4F16H20Li4N8
_chemical_formula_sum              "Be4 F16 H20 Li4 N8"
_cell_length_a       9.543
_cell_length_b       8.46872
_cell_length_c       4.92092
_cell_angle_alpha    90
_cell_angle_beta     90.0001
_cell_angle_gamma    90.0012

_space_group_name_H-M_alt    "P 1"
_space_group_IT_number       1

loop_
  _space_group_symop_operation_xyz
  'x, y, z'

loop_
  _atom_site_type_symbol
  _atom_site_label
  _atom_site_symmetry_multiplicity
  _atom_site_fract_x
  _atom_site_fract_y
  _atom_site_fract_z
  _atom_site_occupancy
  Be  Be1       1.0  0.15700  0.13100  0.25500  1.0000
  Be  Be2       1.0  0.65700  0.36900  0.25500  1.0000
  Be  Be3       1.0  0.34300  0.63100  0.75500  1.0000
  Be  Be4       1.0  0.84300  0.86900  0.75500  1.0000
  F   F1        1.0  0.80700  0.87500  0.06540  1.0000
  F   F2        1.0  0.30700  0.62500  0.06540  1.0000
  F   F3        1.0  0.20700  0.97900  0.11800  1.0000
  F   F4        1.0  0.70700  0.52100  0.11800  1.0000
  F   F5        1.0  0.21700  0.27800  0.12000  1.0000
  F   F6        1.0  0.71700  0.22200  0.12000  1.0000
  F   F7        1.0  0.99200  0.13900  0.23800  1.0000
  F   F8        1.0  0.49200  0.36100  0.23800  1.0000
  F   F9        1.0  0.19300  0.12500  0.56500  1.0000
  F   F10       1.0  0.69300  0.37500  0.56500  1.0000
  F   F11       1.0  0.79300  0.02060  0.61800  1.0000
  F   F12       1.0  0.29300  0.47900  0.61800  1.0000
  F   F13       1.0  0.28300  0.77800  0.62000  1.0000
  F   F14       1.0  0.78300  0.72200  0.62000  1.0000
  F   F15       1.0  0.00755  0.86100  0.73800  1.0000
  F   F16       1.0  0.50800  0.63900  0.73800  1.0000
  H   H1        1.0  0.49000  0.97400  0.06210  1.0000
  H   H2        1.0  0.99000  0.52600  0.06210  1.0000
  H   H3        1.0  0.02100  0.80000  0.10200  1.0000
  H   H4        1.0  0.52100  0.70000  0.10200  1.0000
  H   H5        1.0  0.16100  0.69900  0.20800  1.0000
  H   H6        1.0  0.66100  0.80100  0.20800  1.0000
  H   H7        1.0  0.87500  0.60900  0.27500  1.0000
  H   H8        1.0  0.37500  0.89100  0.27500  1.0000
  H   H9        1.0  0.04890  0.77600  0.43900  1.0000
  H   H10       1.0  0.54900  0.72400  0.43900  1.0000
  H   H11       1.0  0.51000  0.02560  0.56200  1.0000
  H   H12       1.0  0.00990  0.47400  0.56200  1.0000
  H   H13       1.0  0.97900  0.20000  0.60200  1.0000
  H   H14       1.0  0.47900  0.30000  0.60200  1.0000
  H   H15       1.0  0.83900  0.30100  0.70800  1.0000
  H   H16       1.0  0.33900  0.19900  0.70800  1.0000
  H   H17       1.0  0.12500  0.39100  0.77500  1.0000
  H   H18       1.0  0.62500  0.10900  0.77500  1.0000
  H   H19       1.0  0.95100  0.22400  0.93900  1.0000
  H   H20       1.0  0.45100  0.27600  0.93900  1.0000
  Li  Li1       1.0  0.81300  0.05920  0.26000  1.0000
  Li  Li2       1.0  0.31300  0.44100  0.26000  1.0000
  Li  Li3       1.0  0.18700  0.94100  0.76000  1.0000
  Li  Li4       1.0  0.68700  0.55900  0.76000  1.0000
  N   N1        1.0  0.05640  0.72300  0.24900  1.0000
  N   N2        1.0  0.55600  0.77700  0.24900  1.0000
  N   N3        1.0  0.97900  0.57800  0.25400  1.0000
  N   N4        1.0  0.47900  0.92200  0.25400  1.0000
  N   N5        1.0  0.94400  0.27700  0.74900  1.0000
  N   N6        1.0  0.44400  0.22300  0.74900  1.0000
  N   N7        1.0  0.02130  0.42200  0.75400  1.0000
  N   N8        1.0  0.52100  0.07820  0.75400  1.0000
