data_image0
_chemical_formula_structural       Bi4K8O32P4W4
_chemical_formula_sum              "Bi4 K8 O32 P4 W4"
_cell_length_a       7.01236
_cell_length_b       12.1163
_cell_length_c       12.1163
_cell_angle_alpha    107.881
_cell_angle_beta     106.821
_cell_angle_gamma    106.821

_space_group_name_H-M_alt    "P 1"
_space_group_IT_number       1

loop_
  _space_group_symop_operation_xyz
  'x, y, z'

loop_
  _atom_site_type_symbol
  _atom_site_label
  _atom_site_symmetry_multiplicity
  _atom_site_fract_x
  _atom_site_fract_y
  _atom_site_fract_z
  _atom_site_occupancy
  Bi  Bi1       1.0  0.92100  0.67100  0.17100  1.0000
  Bi  Bi2       1.0  0.57900  0.82900  0.32900  1.0000
  Bi  Bi3       1.0  0.42100  0.17100  0.67100  1.0000
  Bi  Bi4       1.0  0.07870  0.32900  0.82900  1.0000
  K   K1        1.0  0.88700  0.26500  0.07880  1.0000
  K   K2        1.0  0.54300  0.42100  0.23500  1.0000
  K   K3        1.0  0.38700  0.07880  0.26500  1.0000
  K   K4        1.0  0.04290  0.23500  0.42100  1.0000
  K   K5        1.0  0.95700  0.76500  0.57900  1.0000
  K   K6        1.0  0.61300  0.92100  0.73500  1.0000
  K   K7        1.0  0.45700  0.57900  0.76500  1.0000
  K   K8        1.0  0.11300  0.73500  0.92100  1.0000
  O   O1        1.0  0.22000  0.43600  0.06220  1.0000
  O   O2        1.0  0.72100  0.43800  0.06370  1.0000
  O   O3        1.0  0.42900  0.14300  0.08510  1.0000
  O   O4        1.0  0.92400  0.83600  0.09730  1.0000
  O   O5        1.0  0.23200  0.66300  0.13900  1.0000
  O   O6        1.0  0.92900  0.08510  0.14300  1.0000
  O   O7        1.0  0.57000  0.63900  0.16300  1.0000
  O   O8        1.0  0.57600  0.90300  0.16400  1.0000
  O   O9        1.0  0.00908  0.59700  0.33600  1.0000
  O   O10       1.0  0.26800  0.86100  0.33700  1.0000
  O   O11       1.0  0.20100  0.41500  0.35700  1.0000
  O   O12       1.0  0.93000  0.83700  0.36100  1.0000
  O   O13       1.0  0.49100  0.66400  0.40300  1.0000
  O   O14       1.0  0.70100  0.35700  0.41500  1.0000
  O   O15       1.0  0.72000  0.06220  0.43600  1.0000
  O   O16       1.0  0.22100  0.06370  0.43800  1.0000
  O   O17       1.0  0.77900  0.93600  0.56200  1.0000
  O   O18       1.0  0.28000  0.93800  0.56400  1.0000
  O   O19       1.0  0.29900  0.64300  0.58500  1.0000
  O   O20       1.0  0.50900  0.33600  0.59700  1.0000
  O   O21       1.0  0.07040  0.16300  0.63900  1.0000
  O   O22       1.0  0.79900  0.58500  0.64300  1.0000
  O   O23       1.0  0.73200  0.13900  0.66300  1.0000
  O   O24       1.0  0.99100  0.40300  0.66400  1.0000
  O   O25       1.0  0.42400  0.09730  0.83600  1.0000
  O   O26       1.0  0.43000  0.36100  0.83700  1.0000
  O   O27       1.0  0.07130  0.91500  0.85700  1.0000
  O   O28       1.0  0.76800  0.33700  0.86100  1.0000
  O   O29       1.0  0.07600  0.16400  0.90300  1.0000
  O   O30       1.0  0.57100  0.85700  0.91500  1.0000
  O   O31       1.0  0.27900  0.56200  0.93600  1.0000
  O   O32       1.0  0.78000  0.56400  0.93800  1.0000
  P   P1        1.0  0.32200  0.57200  0.07210  1.0000
  P   P2        1.0  0.17800  0.92800  0.42800  1.0000
  P   P3        1.0  0.82200  0.07210  0.57200  1.0000
  P   P4        1.0  0.67800  0.42800  0.92800  1.0000
  W   W1        1.0  0.75000  0.92000  0.07950  1.0000
  W   W2        1.0  0.25000  0.58000  0.42000  1.0000
  W   W3        1.0  0.75000  0.42000  0.58000  1.0000
  W   W4        1.0  0.25000  0.07950  0.92000  1.0000
