data_image0
_chemical_formula_structural       B4K4O32P8Zn4
_chemical_formula_sum              "B4 K4 O32 P8 Zn4"
_cell_length_a       8.36246
_cell_length_b       8.86719
_cell_length_c       8.86719
_cell_angle_alpha    91.4227
_cell_angle_beta     90.8187
_cell_angle_gamma    90.8187

_space_group_name_H-M_alt    "P 1"
_space_group_IT_number       1

loop_
  _space_group_symop_operation_xyz
  'x, y, z'

loop_
  _atom_site_type_symbol
  _atom_site_label
  _atom_site_symmetry_multiplicity
  _atom_site_fract_x
  _atom_site_fract_y
  _atom_site_fract_z
  _atom_site_occupancy
  B   B1        1.0  0.57500  0.43300  0.21100  1.0000
  B   B2        1.0  0.07530  0.21100  0.43300  1.0000
  B   B3        1.0  0.92500  0.78900  0.56700  1.0000
  B   B4        1.0  0.42500  0.56700  0.78900  1.0000
  K   K1        1.0  0.25000  0.96500  0.03470  1.0000
  K   K2        1.0  0.25000  0.60400  0.39600  1.0000
  K   K3        1.0  0.75000  0.39600  0.60400  1.0000
  K   K4        1.0  0.75000  0.03470  0.96500  1.0000
  O   O1        1.0  0.27700  0.34100  0.01760  1.0000
  O   O2        1.0  0.57200  0.32900  0.08110  1.0000
  O   O3        1.0  0.91000  0.27700  0.10500  1.0000
  O   O4        1.0  0.53700  0.85200  0.10800  1.0000
  O   O5        1.0  0.96300  0.89200  0.14800  1.0000
  O   O6        1.0  0.51300  0.58400  0.17700  1.0000
  O   O7        1.0  0.01340  0.53400  0.19500  1.0000
  O   O8        1.0  0.73900  0.44800  0.27300  1.0000
  O   O9        1.0  0.41000  0.10500  0.27700  1.0000
  O   O10       1.0  0.07220  0.08110  0.32900  1.0000
  O   O11       1.0  0.47200  0.38500  0.33500  1.0000
  O   O12       1.0  0.77700  0.01760  0.34100  1.0000
  O   O13       1.0  0.97200  0.33500  0.38500  1.0000
  O   O14       1.0  0.98700  0.82300  0.41600  1.0000
  O   O15       1.0  0.23900  0.27300  0.44800  1.0000
  O   O16       1.0  0.48700  0.80500  0.46600  1.0000
  O   O17       1.0  0.51300  0.19500  0.53400  1.0000
  O   O18       1.0  0.76100  0.72700  0.55200  1.0000
  O   O19       1.0  0.01330  0.17700  0.58400  1.0000
  O   O20       1.0  0.02760  0.66500  0.61500  1.0000
  O   O21       1.0  0.22300  0.98200  0.65900  1.0000
  O   O22       1.0  0.52800  0.61500  0.66500  1.0000
  O   O23       1.0  0.92800  0.91900  0.67100  1.0000
  O   O24       1.0  0.59000  0.89500  0.72300  1.0000
  O   O25       1.0  0.26100  0.55200  0.72700  1.0000
  O   O26       1.0  0.98700  0.46600  0.80500  1.0000
  O   O27       1.0  0.48700  0.41600  0.82300  1.0000
  O   O28       1.0  0.03710  0.10800  0.85200  1.0000
  O   O29       1.0  0.46300  0.14800  0.89200  1.0000
  O   O30       1.0  0.09010  0.72300  0.89500  1.0000
  O   O31       1.0  0.42800  0.67100  0.91900  1.0000
  O   O32       1.0  0.72300  0.65900  0.98200  1.0000
  P   P1        1.0  0.55900  0.69200  0.04590  1.0000
  P   P2        1.0  0.91000  0.39600  0.23100  1.0000
  P   P3        1.0  0.94100  0.95400  0.30800  1.0000
  P   P4        1.0  0.41000  0.23100  0.39600  1.0000
  P   P5        1.0  0.59000  0.76900  0.60400  1.0000
  P   P6        1.0  0.05880  0.04590  0.69200  1.0000
  P   P7        1.0  0.09010  0.60400  0.76900  1.0000
  P   P8        1.0  0.44100  0.30800  0.95400  1.0000
  Zn  Zn1       1.0  0.93900  0.68800  0.05960  1.0000
  Zn  Zn2       1.0  0.56100  0.94000  0.31200  1.0000
  Zn  Zn3       1.0  0.43900  0.05960  0.68800  1.0000
  Zn  Zn4       1.0  0.06070  0.31200  0.94000  1.0000
