data_image0
_chemical_formula_structural       Ba4Mg8O32V8
_chemical_formula_sum              "Ba4 Mg8 O32 V8"
_cell_length_a       8.43716
_cell_length_b       9.71757
_cell_length_c       9.71757
_cell_angle_alpha    100.863
_cell_angle_beta     64.2708
_cell_angle_gamma    115.729

_space_group_name_H-M_alt    "P 1"
_space_group_IT_number       1

loop_
  _space_group_symop_operation_xyz
  'x, y, z'

loop_
  _atom_site_type_symbol
  _atom_site_label
  _atom_site_symmetry_multiplicity
  _atom_site_fract_x
  _atom_site_fract_y
  _atom_site_fract_z
  _atom_site_occupancy
  Ba  Ba1       1.0  0.37500  0.75000  0.25000  1.0000
  Ba  Ba2       1.0  0.87500  0.75000  0.25000  1.0000
  Ba  Ba3       1.0  0.12500  0.25000  0.75000  1.0000
  Ba  Ba4       1.0  0.62500  0.25000  0.75000  1.0000
  Mg  Mg1       1.0  0.70700  0.25000  0.08580  1.0000
  Mg  Mg2       1.0  0.79300  0.08580  0.25000  1.0000
  Mg  Mg3       1.0  0.45700  0.41400  0.25000  1.0000
  Mg  Mg4       1.0  0.04290  0.25000  0.41400  1.0000
  Mg  Mg5       1.0  0.95700  0.75000  0.58600  1.0000
  Mg  Mg6       1.0  0.20700  0.91400  0.75000  1.0000
  Mg  Mg7       1.0  0.54300  0.58600  0.75000  1.0000
  Mg  Mg8       1.0  0.29300  0.75000  0.91400  1.0000
  O   O1        1.0  0.45800  0.23500  0.08500  1.0000
  O   O2        1.0  0.95600  0.26500  0.08500  1.0000
  O   O3        1.0  0.15300  0.59000  0.08620  1.0000
  O   O4        1.0  0.26100  0.91000  0.08620  1.0000
  O   O5        1.0  0.76100  0.91400  0.08980  1.0000
  O   O6        1.0  0.64900  0.58600  0.08980  1.0000
  O   O7        1.0  0.04150  0.08500  0.23500  1.0000
  O   O8        1.0  0.22300  0.41500  0.23500  1.0000
  O   O9        1.0  0.54400  0.08500  0.26500  1.0000
  O   O10       1.0  0.69200  0.41500  0.26500  1.0000
  O   O11       1.0  0.43700  0.58600  0.41000  1.0000
  O   O12       1.0  0.65300  0.91400  0.41000  1.0000
  O   O13       1.0  0.93700  0.59000  0.41400  1.0000
  O   O14       1.0  0.14900  0.91000  0.41400  1.0000
  O   O15       1.0  0.80800  0.26500  0.41500  1.0000
  O   O16       1.0  0.27700  0.23500  0.41500  1.0000
  O   O17       1.0  0.72300  0.76500  0.58500  1.0000
  O   O18       1.0  0.19200  0.73500  0.58500  1.0000
  O   O19       1.0  0.85100  0.08980  0.58600  1.0000
  O   O20       1.0  0.06270  0.41000  0.58600  1.0000
  O   O21       1.0  0.34700  0.08620  0.59000  1.0000
  O   O22       1.0  0.56300  0.41400  0.59000  1.0000
  O   O23       1.0  0.30800  0.58500  0.73500  1.0000
  O   O24       1.0  0.45600  0.91500  0.73500  1.0000
  O   O25       1.0  0.77700  0.58500  0.76500  1.0000
  O   O26       1.0  0.95800  0.91500  0.76500  1.0000
  O   O27       1.0  0.23900  0.08620  0.91000  1.0000
  O   O28       1.0  0.35100  0.41400  0.91000  1.0000
  O   O29       1.0  0.73900  0.08980  0.91400  1.0000
  O   O30       1.0  0.84700  0.41000  0.91400  1.0000
  O   O31       1.0  0.04350  0.73500  0.91500  1.0000
  O   O32       1.0  0.54200  0.76500  0.91500  1.0000
  V   V1        1.0  0.16800  0.41800  0.08170  1.0000
  V   V2        1.0  0.25000  0.08170  0.08170  1.0000
  V   V3        1.0  0.75000  0.41800  0.41800  1.0000
  V   V4        1.0  0.33200  0.08170  0.41800  1.0000
  V   V5        1.0  0.66800  0.91800  0.58200  1.0000
  V   V6        1.0  0.25000  0.58200  0.58200  1.0000
  V   V7        1.0  0.75000  0.91800  0.91800  1.0000
  V   V8        1.0  0.83200  0.58200  0.91800  1.0000
