data_image0
_chemical_formula_structural       Br8Ge38P8
_chemical_formula_sum              "Br8 Ge38 P8"
_cell_length_a       10.5365
_cell_length_b       10.5365
_cell_length_c       10.5365
_cell_angle_alpha    90
_cell_angle_beta     90
_cell_angle_gamma    90

_space_group_name_H-M_alt    "P 1"
_space_group_IT_number       1

loop_
  _space_group_symop_operation_xyz
  'x, y, z'

loop_
  _atom_site_type_symbol
  _atom_site_label
  _atom_site_symmetry_multiplicity
  _atom_site_fract_x
  _atom_site_fract_y
  _atom_site_fract_z
  _atom_site_occupancy
  Br  Br1       1.0  0.00000  0.00000  0.00000  1.0000
  Br  Br2       1.0  0.50000  0.25000  0.00000  1.0000
  Br  Br3       1.0  0.50000  0.75000  0.00000  1.0000
  Br  Br4       1.0  0.00000  0.50000  0.25000  1.0000
  Br  Br5       1.0  0.25000  0.00000  0.50000  1.0000
  Br  Br6       1.0  0.75000  0.00000  0.50000  1.0000
  Br  Br7       1.0  0.50000  0.50000  0.50000  1.0000
  Br  Br8       1.0  0.00000  0.50000  0.75000  1.0000
  Ge  Ge1       1.0  0.25000  0.50000  0.00000  1.0000
  Ge  Ge2       1.0  0.75000  0.50000  0.00000  1.0000
  Ge  Ge3       1.0  0.88200  0.30700  0.00215  1.0000
  Ge  Ge4       1.0  0.11800  0.69300  0.00215  1.0000
  Ge  Ge5       1.0  0.69300  0.00215  0.11800  1.0000
  Ge  Ge6       1.0  0.30700  0.99800  0.11800  1.0000
  Ge  Ge7       1.0  0.18500  0.18500  0.18500  1.0000
  Ge  Ge8       1.0  0.81500  0.81500  0.18500  1.0000
  Ge  Ge9       1.0  0.38200  0.49800  0.19300  1.0000
  Ge  Ge10      1.0  0.61800  0.50200  0.19300  1.0000
  Ge  Ge11      1.0  0.50000  0.00000  0.25000  1.0000
  Ge  Ge12      1.0  0.99800  0.11800  0.30700  1.0000
  Ge  Ge13      1.0  0.00215  0.88200  0.30700  1.0000
  Ge  Ge14      1.0  0.68500  0.31500  0.31500  1.0000
  Ge  Ge15      1.0  0.31500  0.68500  0.31500  1.0000
  Ge  Ge16      1.0  0.49800  0.19300  0.38200  1.0000
  Ge  Ge17      1.0  0.50200  0.80700  0.38200  1.0000
  Ge  Ge18      1.0  0.19300  0.38200  0.49800  1.0000
  Ge  Ge19      1.0  0.80700  0.61800  0.49800  1.0000
  Ge  Ge20      1.0  0.00000  0.25000  0.50000  1.0000
  Ge  Ge21      1.0  0.00000  0.75000  0.50000  1.0000
  Ge  Ge22      1.0  0.80700  0.38200  0.50200  1.0000
  Ge  Ge23      1.0  0.19300  0.61800  0.50200  1.0000
  Ge  Ge24      1.0  0.50200  0.19300  0.61800  1.0000
  Ge  Ge25      1.0  0.49800  0.80700  0.61800  1.0000
  Ge  Ge26      1.0  0.31500  0.31500  0.68500  1.0000
  Ge  Ge27      1.0  0.68500  0.68500  0.68500  1.0000
  Ge  Ge28      1.0  0.00215  0.11800  0.69300  1.0000
  Ge  Ge29      1.0  0.99800  0.88200  0.69300  1.0000
  Ge  Ge30      1.0  0.50000  0.00000  0.75000  1.0000
  Ge  Ge31      1.0  0.61800  0.49800  0.80700  1.0000
  Ge  Ge32      1.0  0.38200  0.50200  0.80700  1.0000
  Ge  Ge33      1.0  0.81500  0.18500  0.81500  1.0000
  Ge  Ge34      1.0  0.18500  0.81500  0.81500  1.0000
  Ge  Ge35      1.0  0.30700  0.00215  0.88200  1.0000
  Ge  Ge36      1.0  0.69300  0.99800  0.88200  1.0000
  Ge  Ge37      1.0  0.11800  0.30700  0.99800  1.0000
  Ge  Ge38      1.0  0.88200  0.69300  0.99800  1.0000
  P   P1        1.0  0.81600  0.18400  0.18400  1.0000
  P   P2        1.0  0.18400  0.81600  0.18400  1.0000
  P   P3        1.0  0.31600  0.31600  0.31600  1.0000
  P   P4        1.0  0.68400  0.68400  0.31600  1.0000
  P   P5        1.0  0.68400  0.31600  0.68400  1.0000
  P   P6        1.0  0.31600  0.68400  0.68400  1.0000
  P   P7        1.0  0.18400  0.18400  0.81600  1.0000
  P   P8        1.0  0.81600  0.81600  0.81600  1.0000
