data_image0
_chemical_formula_structural       La10Li10N24Si8
_chemical_formula_sum              "La10 Li10 N24 Si8"
_cell_length_a       11.0094
_cell_length_b       11.0094
_cell_length_c       5.57829
_cell_angle_alpha    90
_cell_angle_beta     90
_cell_angle_gamma    90

_space_group_name_H-M_alt    "P 1"
_space_group_IT_number       1

loop_
  _space_group_symop_operation_xyz
  'x, y, z'

loop_
  _atom_site_type_symbol
  _atom_site_label
  _atom_site_symmetry_multiplicity
  _atom_site_fract_x
  _atom_site_fract_y
  _atom_site_fract_z
  _atom_site_occupancy
  La  La1       1.0  0.11800  0.12300  0.26800  1.0000
  La  La2       1.0  0.61800  0.37700  0.26800  1.0000
  La  La3       1.0  0.38200  0.62300  0.26800  1.0000
  La  La4       1.0  0.88200  0.87700  0.26800  1.0000
  La  La5       1.0  0.50000  0.00000  0.50000  1.0000
  La  La6       1.0  0.00000  0.50000  0.50000  1.0000
  La  La7       1.0  0.87700  0.11800  0.73200  1.0000
  La  La8       1.0  0.37700  0.38200  0.73200  1.0000
  La  La9       1.0  0.62300  0.61800  0.73200  1.0000
  La  La10      1.0  0.12300  0.88200  0.73200  1.0000
  Li  Li1       1.0  0.50000  0.00000  0.00000  1.0000
  Li  Li2       1.0  0.00000  0.50000  0.00000  1.0000
  Li  Li3       1.0  0.38500  0.20800  0.14600  1.0000
  Li  Li4       1.0  0.88500  0.29200  0.14600  1.0000
  Li  Li5       1.0  0.11500  0.70800  0.14600  1.0000
  Li  Li6       1.0  0.61500  0.79200  0.14600  1.0000
  Li  Li7       1.0  0.29200  0.11500  0.85400  1.0000
  Li  Li8       1.0  0.79200  0.38500  0.85400  1.0000
  Li  Li9       1.0  0.20800  0.61500  0.85400  1.0000
  Li  Li10      1.0  0.70800  0.88500  0.85400  1.0000
  N   N1        1.0  0.71300  0.21300  0.00000  1.0000
  N   N2        1.0  0.21300  0.28700  0.00000  1.0000
  N   N3        1.0  0.78700  0.71300  0.00000  1.0000
  N   N4        1.0  0.28700  0.78700  0.00000  1.0000
  N   N5        1.0  0.33300  0.03180  0.19600  1.0000
  N   N6        1.0  0.83300  0.46800  0.19600  1.0000
  N   N7        1.0  0.16700  0.53200  0.19600  1.0000
  N   N8        1.0  0.66700  0.96800  0.19600  1.0000
  N   N9        1.0  0.89200  0.10600  0.26600  1.0000
  N   N10       1.0  0.39200  0.39400  0.26600  1.0000
  N   N11       1.0  0.60800  0.60600  0.26600  1.0000
  N   N12       1.0  0.10800  0.89400  0.26600  1.0000
  N   N13       1.0  0.67200  0.17200  0.50000  1.0000
  N   N14       1.0  0.17200  0.32800  0.50000  1.0000
  N   N15       1.0  0.82800  0.67200  0.50000  1.0000
  N   N16       1.0  0.32800  0.82800  0.50000  1.0000
  N   N17       1.0  0.10600  0.10800  0.73400  1.0000
  N   N18       1.0  0.60600  0.39200  0.73400  1.0000
  N   N19       1.0  0.39400  0.60800  0.73400  1.0000
  N   N20       1.0  0.89400  0.89200  0.73400  1.0000
  N   N21       1.0  0.46800  0.16700  0.80400  1.0000
  N   N22       1.0  0.96800  0.33300  0.80400  1.0000
  N   N23       1.0  0.03180  0.66700  0.80400  1.0000
  N   N24       1.0  0.53200  0.83300  0.80400  1.0000
  Si  Si1       1.0  0.73200  0.11000  0.23700  1.0000
  Si  Si2       1.0  0.23200  0.39000  0.23700  1.0000
  Si  Si3       1.0  0.76800  0.61000  0.23700  1.0000
  Si  Si4       1.0  0.26800  0.89000  0.23700  1.0000
  Si  Si5       1.0  0.61000  0.23200  0.76300  1.0000
  Si  Si6       1.0  0.11000  0.26800  0.76300  1.0000
  Si  Si7       1.0  0.89000  0.73200  0.76300  1.0000
  Si  Si8       1.0  0.39000  0.76800  0.76300  1.0000
