data_image0
_chemical_formula_structural       C12Fe4H16O20
_chemical_formula_sum              "C12 Fe4 H16 O20"
_cell_length_a       9.21372
_cell_length_b       5.94388
_cell_length_c       9.49952
_cell_angle_alpha    90
_cell_angle_beta     103.322
_cell_angle_gamma    90

_space_group_name_H-M_alt    "P 1"
_space_group_IT_number       1

loop_
  _space_group_symop_operation_xyz
  'x, y, z'

loop_
  _atom_site_type_symbol
  _atom_site_label
  _atom_site_symmetry_multiplicity
  _atom_site_fract_x
  _atom_site_fract_y
  _atom_site_fract_z
  _atom_site_occupancy
  C   C1        1.0  0.41600  0.60300  0.07260  1.0000
  C   C2        1.0  0.72800  0.97400  0.09830  1.0000
  C   C3        1.0  0.58700  0.10400  0.11100  1.0000
  C   C4        1.0  0.08920  0.96400  0.25600  1.0000
  C   C5        1.0  0.91100  0.46800  0.44800  1.0000
  C   C6        1.0  0.27600  0.52800  0.49600  1.0000
  C   C7        1.0  0.41600  0.39700  0.57300  1.0000
  C   C8        1.0  0.72800  0.02590  0.59800  1.0000
  C   C9        1.0  0.58700  0.89600  0.61100  1.0000
  C   C10       1.0  0.08920  0.03620  0.75600  1.0000
  C   C11       1.0  0.91100  0.53200  0.94800  1.0000
  C   C12       1.0  0.27600  0.47200  0.99600  1.0000
  Fe  Fe1       1.0  0.36000  0.27000  0.27400  1.0000
  Fe  Fe2       1.0  0.64300  0.76900  0.33700  1.0000
  Fe  Fe3       1.0  0.36000  0.73000  0.77400  1.0000
  Fe  Fe4       1.0  0.64300  0.23100  0.83700  1.0000
  H   H1        1.0  0.95500  0.41300  0.03650  1.0000
  H   H2        1.0  0.06230  0.87800  0.15100  1.0000
  H   H3        1.0  0.04330  0.13500  0.24400  1.0000
  H   H4        1.0  0.04260  0.87000  0.33500  1.0000
  H   H5        1.0  0.94500  0.52300  0.35100  1.0000
  H   H6        1.0  0.28200  0.88500  0.39200  1.0000
  H   H7        1.0  0.95200  0.29800  0.47800  1.0000
  H   H8        1.0  0.71500  0.38800  0.48900  1.0000
  H   H9        1.0  0.95500  0.58700  0.53600  1.0000
  H   H10       1.0  0.06230  0.12200  0.65100  1.0000
  H   H11       1.0  0.04330  0.86500  0.74400  1.0000
  H   H12       1.0  0.04260  0.13000  0.83500  1.0000
  H   H13       1.0  0.94500  0.47700  0.85100  1.0000
  H   H14       1.0  0.28200  0.11500  0.89200  1.0000
  H   H15       1.0  0.95200  0.70200  0.97800  1.0000
  H   H16       1.0  0.71500  0.61200  0.98900  1.0000
  O   O1        1.0  0.52800  0.22700  0.00597  1.0000
  O   O2        1.0  0.23000  0.31300  0.06360  1.0000
  O   O3        1.0  0.77200  0.81200  0.18500  1.0000
  O   O4        1.0  0.46400  0.57700  0.20900  1.0000
  O   O5        1.0  0.53800  0.07540  0.22500  1.0000
  O   O6        1.0  0.24900  0.97900  0.30600  1.0000
  O   O7        1.0  0.22000  0.47400  0.36600  1.0000
  O   O8        1.0  0.75000  0.46700  0.41300  1.0000
  O   O9        1.0  0.47600  0.27400  0.49400  1.0000
  O   O10       1.0  0.78600  0.96600  0.49600  1.0000
  O   O11       1.0  0.52800  0.77300  0.50600  1.0000
  O   O12       1.0  0.23000  0.68700  0.56400  1.0000
  O   O13       1.0  0.77200  0.18800  0.68500  1.0000
  O   O14       1.0  0.46400  0.42300  0.70900  1.0000
  O   O15       1.0  0.53800  0.92500  0.72500  1.0000
  O   O16       1.0  0.24900  0.02140  0.80600  1.0000
  O   O17       1.0  0.22000  0.52600  0.86600  1.0000
  O   O18       1.0  0.75000  0.53300  0.91300  1.0000
  O   O19       1.0  0.47600  0.72600  0.99400  1.0000
  O   O20       1.0  0.78600  0.03360  0.99600  1.0000
