data_image0
_chemical_formula_structural       Ba12P8Se32
_chemical_formula_sum              "Ba12 P8 Se32"
_cell_length_a       12.3991
_cell_length_b       6.97738
_cell_length_c       18.3234
_cell_angle_alpha    90
_cell_angle_beta     90.2272
_cell_angle_gamma    90

_space_group_name_H-M_alt    "P 1"
_space_group_IT_number       1

loop_
  _space_group_symop_operation_xyz
  'x, y, z'

loop_
  _atom_site_type_symbol
  _atom_site_label
  _atom_site_symmetry_multiplicity
  _atom_site_fract_x
  _atom_site_fract_y
  _atom_site_fract_z
  _atom_site_occupancy
  Ba  Ba1       1.0  0.85100  0.50600  0.07830  1.0000
  Ba  Ba2       1.0  0.35100  0.99400  0.07830  1.0000
  Ba  Ba3       1.0  0.52700  0.57000  0.25500  1.0000
  Ba  Ba4       1.0  0.02710  0.93000  0.25500  1.0000
  Ba  Ba5       1.0  0.67200  0.02140  0.42300  1.0000
  Ba  Ba6       1.0  0.17200  0.47900  0.42300  1.0000
  Ba  Ba7       1.0  0.32800  0.97900  0.57700  1.0000
  Ba  Ba8       1.0  0.82800  0.52100  0.57700  1.0000
  Ba  Ba9       1.0  0.97300  0.06990  0.74500  1.0000
  Ba  Ba10      1.0  0.47300  0.43000  0.74500  1.0000
  Ba  Ba11      1.0  0.14900  0.49400  0.92200  1.0000
  Ba  Ba12      1.0  0.64900  0.00648  0.92200  1.0000
  P   P1        1.0  0.66600  0.04600  0.14000  1.0000
  P   P2        1.0  0.16600  0.45400  0.14000  1.0000
  P   P3        1.0  0.83300  0.52300  0.36100  1.0000
  P   P4        1.0  0.33300  0.97700  0.36100  1.0000
  P   P5        1.0  0.66700  0.02300  0.63900  1.0000
  P   P6        1.0  0.16700  0.47700  0.63900  1.0000
  P   P7        1.0  0.83400  0.54600  0.86000  1.0000
  P   P8        1.0  0.33400  0.95400  0.86000  1.0000
  Se  Se1       1.0  0.60100  0.28000  0.06920  1.0000
  Se  Se2       1.0  0.10100  0.22000  0.06920  1.0000
  Se  Se3       1.0  0.60600  0.76900  0.09240  1.0000
  Se  Se4       1.0  0.10600  0.73100  0.09240  1.0000
  Se  Se5       1.0  0.84500  0.04720  0.12500  1.0000
  Se  Se6       1.0  0.34500  0.45300  0.12500  1.0000
  Se  Se7       1.0  0.58900  0.08920  0.24900  1.0000
  Se  Se8       1.0  0.08920  0.41100  0.24900  1.0000
  Se  Se9       1.0  0.79800  0.64600  0.25200  1.0000
  Se  Se10      1.0  0.29800  0.85400  0.25200  1.0000
  Se  Se11      1.0  0.90900  0.23700  0.37700  1.0000
  Se  Se12      1.0  0.40900  0.26300  0.37700  1.0000
  Se  Se13      1.0  0.93600  0.73500  0.42000  1.0000
  Se  Se14      1.0  0.43600  0.76500  0.42000  1.0000
  Se  Se15      1.0  0.67600  0.51300  0.42000  1.0000
  Se  Se16      1.0  0.17600  0.98700  0.42000  1.0000
  Se  Se17      1.0  0.82400  0.01300  0.58000  1.0000
  Se  Se18      1.0  0.32400  0.48700  0.58000  1.0000
  Se  Se19      1.0  0.56400  0.23500  0.58000  1.0000
  Se  Se20      1.0  0.06360  0.26500  0.58000  1.0000
  Se  Se21      1.0  0.59100  0.73700  0.62300  1.0000
  Se  Se22      1.0  0.09110  0.76300  0.62300  1.0000
  Se  Se23      1.0  0.70200  0.14600  0.74800  1.0000
  Se  Se24      1.0  0.20200  0.35400  0.74800  1.0000
  Se  Se25      1.0  0.91100  0.58900  0.75100  1.0000
  Se  Se26      1.0  0.41100  0.91100  0.75100  1.0000
  Se  Se27      1.0  0.65500  0.54700  0.87500  1.0000
  Se  Se28      1.0  0.15500  0.95300  0.87500  1.0000
  Se  Se29      1.0  0.89400  0.26900  0.90800  1.0000
  Se  Se30      1.0  0.39400  0.23100  0.90800  1.0000
  Se  Se31      1.0  0.89900  0.78000  0.93100  1.0000
  Se  Se32      1.0  0.39900  0.72000  0.93100  1.0000
