data_image0
_chemical_formula_structural       Ba8Mn4O32P8
_chemical_formula_sum              "Ba8 Mn4 O32 P8"
_cell_length_a       5.28749
_cell_length_b       8.95745
_cell_length_c       16.2402
_cell_angle_alpha    90
_cell_angle_beta     90.2183
_cell_angle_gamma    90

_space_group_name_H-M_alt    "P 1"
_space_group_IT_number       1

loop_
  _space_group_symop_operation_xyz
  'x, y, z'

loop_
  _atom_site_type_symbol
  _atom_site_label
  _atom_site_symmetry_multiplicity
  _atom_site_fract_x
  _atom_site_fract_y
  _atom_site_fract_z
  _atom_site_occupancy
  Ba  Ba1       1.0  0.70800  0.70100  0.02170  1.0000
  Ba  Ba2       1.0  0.76500  0.34400  0.22900  1.0000
  Ba  Ba3       1.0  0.73500  0.84400  0.27100  1.0000
  Ba  Ba4       1.0  0.79200  0.20100  0.47800  1.0000
  Ba  Ba5       1.0  0.20800  0.79900  0.52200  1.0000
  Ba  Ba6       1.0  0.26500  0.15600  0.72900  1.0000
  Ba  Ba7       1.0  0.23500  0.65600  0.77100  1.0000
  Ba  Ba8       1.0  0.29200  0.29900  0.97800  1.0000
  Mn  Mn1       1.0  0.23300  0.98500  0.13600  1.0000
  Mn  Mn2       1.0  0.26700  0.48500  0.36400  1.0000
  Mn  Mn3       1.0  0.73300  0.51500  0.63600  1.0000
  Mn  Mn4       1.0  0.76700  0.01490  0.86400  1.0000
  O   O1        1.0  0.28700  0.90000  0.01510  1.0000
  O   O2        1.0  0.31500  0.53400  0.07920  1.0000
  O   O3        1.0  0.98700  0.20000  0.10100  1.0000
  O   O4        1.0  0.82700  0.94100  0.11300  1.0000
  O   O5        1.0  0.51900  0.15600  0.12300  1.0000
  O   O6        1.0  0.94100  0.61400  0.16700  1.0000
  O   O7        1.0  0.35600  0.76200  0.16900  1.0000
  O   O8        1.0  0.33300  0.50700  0.23500  1.0000
  O   O9        1.0  0.16700  0.00694  0.26500  1.0000
  O   O10       1.0  0.14400  0.26200  0.33100  1.0000
  O   O11       1.0  0.55900  0.11400  0.33300  1.0000
  O   O12       1.0  0.98100  0.65600  0.37700  1.0000
  O   O13       1.0  0.67300  0.44100  0.38700  1.0000
  O   O14       1.0  0.51300  0.70000  0.39900  1.0000
  O   O15       1.0  0.18500  0.03370  0.42100  1.0000
  O   O16       1.0  0.21300  0.40000  0.48500  1.0000
  O   O17       1.0  0.78700  0.60000  0.51500  1.0000
  O   O18       1.0  0.81500  0.96600  0.57900  1.0000
  O   O19       1.0  0.48700  0.30000  0.60100  1.0000
  O   O20       1.0  0.32700  0.55900  0.61300  1.0000
  O   O21       1.0  0.01940  0.34400  0.62300  1.0000
  O   O22       1.0  0.44100  0.88600  0.66700  1.0000
  O   O23       1.0  0.85600  0.73800  0.66900  1.0000
  O   O24       1.0  0.83300  0.99300  0.73500  1.0000
  O   O25       1.0  0.66700  0.49300  0.76500  1.0000
  O   O26       1.0  0.64400  0.23800  0.83100  1.0000
  O   O27       1.0  0.05940  0.38600  0.83300  1.0000
  O   O28       1.0  0.48100  0.84400  0.87700  1.0000
  O   O29       1.0  0.17300  0.05940  0.88700  1.0000
  O   O30       1.0  0.01300  0.80000  0.89900  1.0000
  O   O31       1.0  0.68500  0.46600  0.92100  1.0000
  O   O32       1.0  0.71300  0.09950  0.98500  1.0000
  P   P1        1.0  0.76100  0.09800  0.07790  1.0000
  P   P2        1.0  0.23400  0.60500  0.16200  1.0000
  P   P3        1.0  0.26600  0.10500  0.33800  1.0000
  P   P4        1.0  0.73900  0.59800  0.42200  1.0000
  P   P5        1.0  0.26100  0.40200  0.57800  1.0000
  P   P6        1.0  0.73400  0.89500  0.66200  1.0000
  P   P7        1.0  0.76600  0.39500  0.83800  1.0000
  P   P8        1.0  0.23900  0.90200  0.92200  1.0000
