data_image0
_chemical_formula_structural       Cs6Ga2Li4Mo8O32
_chemical_formula_sum              "Cs6 Ga2 Li4 Mo8 O32"
_cell_length_a       10.4314
_cell_length_b       10.4314
_cell_length_c       10.4314
_cell_angle_alpha    109.62
_cell_angle_beta     109.175
_cell_angle_gamma    109.62

_space_group_name_H-M_alt    "P 1"
_space_group_IT_number       1

loop_
  _space_group_symop_operation_xyz
  'x, y, z'

loop_
  _atom_site_type_symbol
  _atom_site_label
  _atom_site_symmetry_multiplicity
  _atom_site_fract_x
  _atom_site_fract_y
  _atom_site_fract_z
  _atom_site_occupancy
  Cs  Cs1       1.0  0.00000  0.00000  0.00000  1.0000
  Cs  Cs2       1.0  0.51000  0.88500  0.12500  1.0000
  Cs  Cs3       1.0  0.75000  0.50000  0.25000  1.0000
  Cs  Cs4       1.0  0.37500  0.61500  0.49000  1.0000
  Cs  Cs5       1.0  0.24000  0.11500  0.62500  1.0000
  Cs  Cs6       1.0  0.87500  0.38500  0.76000  1.0000
  Ga  Ga1       1.0  0.50000  0.00000  0.50000  1.0000
  Ga  Ga2       1.0  0.25000  0.50000  0.75000  1.0000
  Li  Li1       1.0  0.37500  0.12500  0.00035  1.0000
  Li  Li2       1.0  0.00000  0.37500  0.12500  1.0000
  Li  Li3       1.0  0.87500  0.87500  0.25000  1.0000
  Li  Li4       1.0  0.75000  0.62500  0.62500  1.0000
  Mo  Mo1       1.0  0.32700  0.45100  0.07400  1.0000
  Mo  Mo2       1.0  0.12700  0.75300  0.17600  1.0000
  Mo  Mo3       1.0  0.42300  0.24700  0.37400  1.0000
  Mo  Mo4       1.0  0.92600  0.25300  0.37700  1.0000
  Mo  Mo5       1.0  0.82400  0.95100  0.57700  1.0000
  Mo  Mo6       1.0  0.12400  0.74700  0.67300  1.0000
  Mo  Mo7       1.0  0.62600  0.04860  0.87300  1.0000
  Mo  Mo8       1.0  0.62300  0.54900  0.87600  1.0000
  O   O1        1.0  0.56000  0.12300  0.00108  1.0000
  O   O2        1.0  0.38300  0.31300  0.00129  1.0000
  O   O3        1.0  0.12400  0.74800  0.00562  1.0000
  O   O4        1.0  0.68800  0.68700  0.07040  1.0000
  O   O5        1.0  0.99900  0.55900  0.12200  1.0000
  O   O6        1.0  0.18600  0.37700  0.12800  1.0000
  O   O7        1.0  0.36700  0.11800  0.18000  1.0000
  O   O8        1.0  0.49300  0.61800  0.24400  1.0000
  O   O9        1.0  0.06170  0.88200  0.24900  1.0000
  O   O10       1.0  0.87200  0.05870  0.24900  1.0000
  O   O11       1.0  0.99900  0.38200  0.31200  1.0000
  O   O12       1.0  0.33300  0.82200  0.31900  1.0000
  O   O13       1.0  0.75600  0.24800  0.37400  1.0000
  O   O14       1.0  0.25700  0.25200  0.37600  1.0000
  O   O15       1.0  0.87800  0.87700  0.43600  1.0000
  O   O16       1.0  0.56400  0.44100  0.44000  1.0000
  O   O17       1.0  0.68100  0.01400  0.50300  1.0000
  O   O18       1.0  0.12600  0.75200  0.50700  1.0000
  O   O19       1.0  0.49700  0.17800  0.51100  1.0000
  O   O20       1.0  0.06920  0.32200  0.58300  1.0000
  O   O21       1.0  0.93000  0.61800  0.61700  1.0000
  O   O22       1.0  0.75100  0.81300  0.63300  1.0000
  O   O23       1.0  0.48900  0.98600  0.66700  1.0000
  O   O24       1.0  0.41700  0.48600  0.73900  1.0000
  O   O25       1.0  0.99400  0.11800  0.74300  1.0000
  O   O26       1.0  0.26100  0.67800  0.74700  1.0000
  O   O27       1.0  0.75100  0.62300  0.81000  1.0000
  O   O28       1.0  0.19000  0.94100  0.81400  1.0000
  O   O29       1.0  0.62600  0.38200  0.87400  1.0000
  O   O30       1.0  0.62400  0.88200  0.87600  1.0000
  O   O31       1.0  0.25300  0.51400  0.93100  1.0000
  O   O32       1.0  0.82000  0.18700  0.93800  1.0000
