data_image0
_chemical_formula_structural       Nb8P4S40
_chemical_formula_sum              "Nb8 P4 S40"
_cell_length_a       13.9792
_cell_length_b       13.0572
_cell_length_c       7.29085
_cell_angle_alpha    90
_cell_angle_beta     90
_cell_angle_gamma    90

_space_group_name_H-M_alt    "P 1"
_space_group_IT_number       1

loop_
  _space_group_symop_operation_xyz
  'x, y, z'

loop_
  _atom_site_type_symbol
  _atom_site_label
  _atom_site_symmetry_multiplicity
  _atom_site_fract_x
  _atom_site_fract_y
  _atom_site_fract_z
  _atom_site_occupancy
  Nb  Nb1       1.0  0.74600  0.08270  0.06190  1.0000
  Nb  Nb2       1.0  0.25400  0.91700  0.06190  1.0000
  Nb  Nb3       1.0  0.24800  0.20800  0.06880  1.0000
  Nb  Nb4       1.0  0.75200  0.79200  0.06880  1.0000
  Nb  Nb5       1.0  0.74800  0.29200  0.93100  1.0000
  Nb  Nb6       1.0  0.25200  0.70800  0.93100  1.0000
  Nb  Nb7       1.0  0.24600  0.41700  0.93800  1.0000
  Nb  Nb8       1.0  0.75400  0.58300  0.93800  1.0000
  P   P1        1.0  0.15400  0.05710  0.37400  1.0000
  P   P2        1.0  0.84600  0.94300  0.37400  1.0000
  P   P3        1.0  0.65400  0.44300  0.62600  1.0000
  P   P4        1.0  0.34600  0.55700  0.62600  1.0000
  S   S1        1.0  0.88700  0.20100  0.07730  1.0000
  S   S2        1.0  0.11300  0.79900  0.07730  1.0000
  S   S3        1.0  0.10800  0.32900  0.09040  1.0000
  S   S4        1.0  0.89200  0.67100  0.09040  1.0000
  S   S5        1.0  0.12000  0.05970  0.09890  1.0000
  S   S6        1.0  0.88000  0.94000  0.09890  1.0000
  S   S7        1.0  0.37600  0.06480  0.11200  1.0000
  S   S8        1.0  0.62400  0.93500  0.11200  1.0000
  S   S9        1.0  0.81400  0.43500  0.14300  1.0000
  S   S10       1.0  0.18600  0.56500  0.14300  1.0000
  S   S11       1.0  0.63500  0.22200  0.16900  1.0000
  S   S12       1.0  0.36500  0.77800  0.16900  1.0000
  S   S13       1.0  0.35600  0.34900  0.18100  1.0000
  S   S14       1.0  0.64400  0.65100  0.18100  1.0000
  S   S15       1.0  0.77300  0.07370  0.41700  1.0000
  S   S16       1.0  0.22700  0.92600  0.41700  1.0000
  S   S17       1.0  0.22300  0.19100  0.42500  1.0000
  S   S18       1.0  0.77700  0.80900  0.42500  1.0000
  S   S19       1.0  0.53200  0.42900  0.45100  1.0000
  S   S20       1.0  0.46800  0.57100  0.45100  1.0000
  S   S21       1.0  0.03220  0.07140  0.54900  1.0000
  S   S22       1.0  0.96800  0.92900  0.54900  1.0000
  S   S23       1.0  0.72300  0.30900  0.57500  1.0000
  S   S24       1.0  0.27700  0.69100  0.57500  1.0000
  S   S25       1.0  0.27300  0.42600  0.58300  1.0000
  S   S26       1.0  0.72700  0.57400  0.58300  1.0000
  S   S27       1.0  0.85600  0.15100  0.81900  1.0000
  S   S28       1.0  0.14400  0.84900  0.81900  1.0000
  S   S29       1.0  0.13500  0.27800  0.83100  1.0000
  S   S30       1.0  0.86500  0.72200  0.83100  1.0000
  S   S31       1.0  0.31400  0.06540  0.85700  1.0000
  S   S32       1.0  0.68600  0.93500  0.85700  1.0000
  S   S33       1.0  0.87600  0.43500  0.88800  1.0000
  S   S34       1.0  0.12400  0.56500  0.88800  1.0000
  S   S35       1.0  0.62000  0.44000  0.90100  1.0000
  S   S36       1.0  0.38000  0.56000  0.90100  1.0000
  S   S37       1.0  0.60800  0.17100  0.91000  1.0000
  S   S38       1.0  0.39200  0.82900  0.91000  1.0000
  S   S39       1.0  0.38700  0.29900  0.92300  1.0000
  S   S40       1.0  0.61300  0.70100  0.92300  1.0000
