data_image0
_chemical_formula_structural       Ag4Ge4O4Te4
_chemical_formula_sum              "Ag4 Ge4 O4 Te4"
_cell_length_a       6.42342
_cell_length_b       8.5427
_cell_length_c       6.72728
_cell_angle_alpha    90
_cell_angle_beta     90
_cell_angle_gamma    90

_space_group_name_H-M_alt    "P 1"
_space_group_IT_number       1

loop_
  _space_group_symop_operation_xyz
  'x, y, z'

loop_
  _atom_site_type_symbol
  _atom_site_label
  _atom_site_symmetry_multiplicity
  _atom_site_fract_x
  _atom_site_fract_y
  _atom_site_fract_z
  _atom_site_occupancy
  Ag  Ag1       1.0  0.23000  0.15200  0.07110  1.0000
  Ag  Ag2       1.0  0.77000  0.65200  0.42900  1.0000
  Ag  Ag3       1.0  0.27000  0.84800  0.57100  1.0000
  Ag  Ag4       1.0  0.73000  0.34800  0.92900  1.0000
  Ge  Ge1       1.0  0.27100  0.66300  0.13700  1.0000
  Ge  Ge2       1.0  0.72900  0.16300  0.36300  1.0000
  Ge  Ge3       1.0  0.22900  0.33700  0.63700  1.0000
  Ge  Ge4       1.0  0.77100  0.83700  0.86300  1.0000
  O   O1        1.0  0.54100  0.22900  0.19900  1.0000
  O   O2        1.0  0.45900  0.72900  0.30100  1.0000
  O   O3        1.0  0.95900  0.77100  0.69900  1.0000
  O   O4        1.0  0.04090  0.27100  0.80100  1.0000
  Te  Te1       1.0  0.98400  0.91500  0.21100  1.0000
  Te  Te2       1.0  0.01630  0.41500  0.28900  1.0000
  Te  Te3       1.0  0.51600  0.08480  0.71100  1.0000
  Te  Te4       1.0  0.48400  0.58500  0.78900  1.0000
