data_image0
_chemical_formula_structural       Ag2Mg2O2Te2
_chemical_formula_sum              "Ag2 Mg2 O2 Te2"
_cell_length_a       2.9439
_cell_length_b       5.62632
_cell_length_c       9.13553
_cell_angle_alpha    90
_cell_angle_beta     80.7279
_cell_angle_gamma    90

_space_group_name_H-M_alt    "P 1"
_space_group_IT_number       1

loop_
  _space_group_symop_operation_xyz
  'x, y, z'

loop_
  _atom_site_type_symbol
  _atom_site_label
  _atom_site_symmetry_multiplicity
  _atom_site_fract_x
  _atom_site_fract_y
  _atom_site_fract_z
  _atom_site_occupancy
  Ag  Ag1       1.0  0.83400  0.25000  0.33200  1.0000
  Ag  Ag2       1.0  0.16600  0.75000  0.66800  1.0000
  Mg  Mg1       1.0  0.49500  0.75000  0.00965  1.0000
  Mg  Mg2       1.0  0.50500  0.25000  0.99000  1.0000
  O   O1        1.0  0.00000  0.00000  0.00000  1.0000
  O   O2        1.0  0.00000  0.50000  0.00000  1.0000
  Te  Te1       1.0  0.81600  0.75000  0.36900  1.0000
  Te  Te2       1.0  0.18400  0.25000  0.63100  1.0000
