data_image0
_chemical_formula_structural       Ba14Cu6H34
_chemical_formula_sum              "Ba14 Cu6 H34"
_cell_length_a       11.6737
_cell_length_b       11.6737
_cell_length_c       7.43881
_cell_angle_alpha    90
_cell_angle_beta     90
_cell_angle_gamma    120

_space_group_name_H-M_alt    "P 1"
_space_group_IT_number       1

loop_
  _space_group_symop_operation_xyz
  'x, y, z'

loop_
  _atom_site_type_symbol
  _atom_site_label
  _atom_site_symmetry_multiplicity
  _atom_site_fract_x
  _atom_site_fract_y
  _atom_site_fract_z
  _atom_site_occupancy
  Ba  Ba1       1.0  0.33300  0.66700  0.00932  1.0000
  Ba  Ba2       1.0  0.89700  0.44100  0.02840  1.0000
  Ba  Ba3       1.0  0.54400  0.10300  0.02840  1.0000
  Ba  Ba4       1.0  0.55900  0.45600  0.02840  1.0000
  Ba  Ba5       1.0  0.72900  0.85200  0.17500  1.0000
  Ba  Ba6       1.0  0.14800  0.87700  0.17500  1.0000
  Ba  Ba7       1.0  0.12300  0.27100  0.17500  1.0000
  Ba  Ba8       1.0  0.66700  0.33300  0.50900  1.0000
  Ba  Ba9       1.0  0.44100  0.89700  0.52800  1.0000
  Ba  Ba10      1.0  0.45600  0.55900  0.52800  1.0000
  Ba  Ba11      1.0  0.10300  0.54400  0.52800  1.0000
  Ba  Ba12      1.0  0.85200  0.72900  0.67500  1.0000
  Ba  Ba13      1.0  0.87700  0.14800  0.67500  1.0000
  Ba  Ba14      1.0  0.27100  0.12300  0.67500  1.0000
  Cu  Cu1       1.0  0.84000  0.65800  0.26200  1.0000
  Cu  Cu2       1.0  0.34200  0.18200  0.26200  1.0000
  Cu  Cu3       1.0  0.81800  0.16000  0.26200  1.0000
  Cu  Cu4       1.0  0.65800  0.84000  0.76200  1.0000
  Cu  Cu5       1.0  0.16000  0.81800  0.76200  1.0000
  Cu  Cu6       1.0  0.18200  0.34200  0.76200  1.0000
  H   H1        1.0  0.35000  0.18100  0.04130  1.0000
  H   H2        1.0  0.83200  0.65000  0.04130  1.0000
  H   H3        1.0  0.81900  0.16800  0.04130  1.0000
  H   H4        1.0  0.66700  0.33300  0.17400  1.0000
  H   H5        1.0  0.37300  0.87500  0.18800  1.0000
  H   H6        1.0  0.50200  0.62700  0.18800  1.0000
  H   H7        1.0  0.12500  0.49800  0.18800  1.0000
  H   H8        1.0  0.18300  0.09960  0.32800  1.0000
  H   H9        1.0  0.91600  0.81700  0.32800  1.0000
  H   H10       1.0  0.90000  0.08380  0.32800  1.0000
  H   H11       1.0  0.91000  0.30800  0.34900  1.0000
  H   H12       1.0  0.39900  0.09040  0.34900  1.0000
  H   H13       1.0  0.69200  0.60100  0.34900  1.0000
  H   H14       1.0  0.91900  0.59000  0.35400  1.0000
  H   H15       1.0  0.41000  0.32900  0.35400  1.0000
  H   H16       1.0  0.67100  0.08060  0.35400  1.0000
  H   H17       1.0  0.33300  0.66700  0.36500  1.0000
  H   H18       1.0  0.65000  0.83200  0.54100  1.0000
  H   H19       1.0  0.16800  0.81900  0.54100  1.0000
  H   H20       1.0  0.18100  0.35000  0.54100  1.0000
  H   H21       1.0  0.33300  0.66700  0.67400  1.0000
  H   H22       1.0  0.87500  0.37300  0.68800  1.0000
  H   H23       1.0  0.62700  0.50200  0.68800  1.0000
  H   H24       1.0  0.49800  0.12500  0.68800  1.0000
  H   H25       1.0  0.09960  0.18300  0.82800  1.0000
  H   H26       1.0  0.81700  0.91600  0.82800  1.0000
  H   H27       1.0  0.08380  0.90000  0.82800  1.0000
  H   H28       1.0  0.30800  0.91000  0.84900  1.0000
  H   H29       1.0  0.09040  0.39900  0.84900  1.0000
  H   H30       1.0  0.60100  0.69200  0.84900  1.0000
  H   H31       1.0  0.32900  0.41000  0.85400  1.0000
  H   H32       1.0  0.59000  0.91900  0.85400  1.0000
  H   H33       1.0  0.08060  0.67100  0.85400  1.0000
  H   H34       1.0  0.66700  0.33300  0.86500  1.0000
