data_image0
_chemical_formula_structural       Cu4Fe4K4O32P8
_chemical_formula_sum              "Cu4 Fe4 K4 O32 P8"
_cell_length_a       7.89688
_cell_length_b       9.90472
_cell_length_c       9.00874
_cell_angle_alpha    90
_cell_angle_beta     115.68
_cell_angle_gamma    90

_space_group_name_H-M_alt    "P 1"
_space_group_IT_number       1

loop_
  _space_group_symop_operation_xyz
  'x, y, z'

loop_
  _atom_site_type_symbol
  _atom_site_label
  _atom_site_symmetry_multiplicity
  _atom_site_fract_x
  _atom_site_fract_y
  _atom_site_fract_z
  _atom_site_occupancy
  Cu  Cu1       1.0  0.13100  0.62100  0.05050  1.0000
  Cu  Cu2       1.0  0.36900  0.12100  0.44900  1.0000
  Cu  Cu3       1.0  0.63100  0.87900  0.55100  1.0000
  Cu  Cu4       1.0  0.86900  0.37900  0.94900  1.0000
  Fe  Fe1       1.0  0.51300  0.37400  0.24200  1.0000
  Fe  Fe2       1.0  0.98700  0.87400  0.25800  1.0000
  Fe  Fe3       1.0  0.01290  0.12600  0.74200  1.0000
  Fe  Fe4       1.0  0.48700  0.62600  0.75800  1.0000
  K   K1        1.0  0.41900  0.86600  0.07530  1.0000
  K   K2        1.0  0.08130  0.36600  0.42500  1.0000
  K   K3        1.0  0.91900  0.63400  0.57500  1.0000
  K   K4        1.0  0.58100  0.13400  0.92500  1.0000
  O   O1        1.0  0.40600  0.36900  0.00119  1.0000
  O   O2        1.0  0.85400  0.88600  0.01050  1.0000
  O   O3        1.0  0.91900  0.52300  0.10400  1.0000
  O   O4        1.0  0.94400  0.23400  0.10800  1.0000
  O   O5        1.0  0.63900  0.20800  0.23500  1.0000
  O   O6        1.0  0.35000  0.53600  0.23900  1.0000
  O   O7        1.0  0.20100  0.74900  0.24000  1.0000
  O   O8        1.0  0.77400  0.98400  0.24100  1.0000
  O   O9        1.0  0.72600  0.48400  0.25900  1.0000
  O   O10       1.0  0.29900  0.24900  0.26000  1.0000
  O   O11       1.0  0.15000  0.03630  0.26100  1.0000
  O   O12       1.0  0.86100  0.70800  0.26500  1.0000
  O   O13       1.0  0.55600  0.73400  0.39200  1.0000
  O   O14       1.0  0.58100  0.02290  0.39600  1.0000
  O   O15       1.0  0.64600  0.38600  0.48900  1.0000
  O   O16       1.0  0.09370  0.86900  0.49900  1.0000
  O   O17       1.0  0.90600  0.13100  0.50100  1.0000
  O   O18       1.0  0.35400  0.61400  0.51100  1.0000
  O   O19       1.0  0.41900  0.97700  0.60400  1.0000
  O   O20       1.0  0.44400  0.26600  0.60800  1.0000
  O   O21       1.0  0.13900  0.29200  0.73500  1.0000
  O   O22       1.0  0.85000  0.96400  0.73900  1.0000
  O   O23       1.0  0.70100  0.75100  0.74000  1.0000
  O   O24       1.0  0.27400  0.51600  0.74100  1.0000
  O   O25       1.0  0.22600  0.01570  0.75900  1.0000
  O   O26       1.0  0.79900  0.25100  0.76000  1.0000
  O   O27       1.0  0.65000  0.46400  0.76100  1.0000
  O   O28       1.0  0.36100  0.79200  0.76500  1.0000
  O   O29       1.0  0.05580  0.76600  0.89200  1.0000
  O   O30       1.0  0.08090  0.47700  0.89600  1.0000
  O   O31       1.0  0.14600  0.11400  0.98900  1.0000
  O   O32       1.0  0.59400  0.63100  0.99900  1.0000
  P   P1        1.0  0.12800  0.15900  0.14300  1.0000
  P   P2        1.0  0.76900  0.58700  0.15200  1.0000
  P   P3        1.0  0.73100  0.08720  0.34800  1.0000
  P   P4        1.0  0.37200  0.65900  0.35700  1.0000
  P   P5        1.0  0.62800  0.34100  0.64300  1.0000
  P   P6        1.0  0.26900  0.91300  0.65200  1.0000
  P   P7        1.0  0.23100  0.41300  0.84800  1.0000
  P   P8        1.0  0.87200  0.84100  0.85700  1.0000
