data_image0
_chemical_formula_structural       Cs12Cu20O16
_chemical_formula_sum              "Cs12 Cu20 O16"
_cell_length_a       10.2705
_cell_length_b       7.5124
_cell_length_c       14.6561
_cell_angle_alpha    90
_cell_angle_beta     106.51
_cell_angle_gamma    90

_space_group_name_H-M_alt    "P 1"
_space_group_IT_number       1

loop_
  _space_group_symop_operation_xyz
  'x, y, z'

loop_
  _atom_site_type_symbol
  _atom_site_label
  _atom_site_symmetry_multiplicity
  _atom_site_fract_x
  _atom_site_fract_y
  _atom_site_fract_z
  _atom_site_occupancy
  Cs  Cs1       1.0  0.27500  0.29600  0.08310  1.0000
  Cs  Cs2       1.0  0.10500  0.82500  0.09470  1.0000
  Cs  Cs3       1.0  0.68000  0.08510  0.11100  1.0000
  Cs  Cs4       1.0  0.32000  0.58500  0.38900  1.0000
  Cs  Cs5       1.0  0.89500  0.32500  0.40500  1.0000
  Cs  Cs6       1.0  0.72500  0.79600  0.41700  1.0000
  Cs  Cs7       1.0  0.27500  0.20400  0.58300  1.0000
  Cs  Cs8       1.0  0.10500  0.67500  0.59500  1.0000
  Cs  Cs9       1.0  0.68000  0.41500  0.61100  1.0000
  Cs  Cs10      1.0  0.32000  0.91500  0.88900  1.0000
  Cs  Cs11      1.0  0.89500  0.17500  0.90500  1.0000
  Cs  Cs12      1.0  0.72500  0.70400  0.91700  1.0000
  Cu  Cu1       1.0  0.46900  0.70100  0.12400  1.0000
  Cu  Cu2       1.0  0.93300  0.42000  0.12700  1.0000
  Cu  Cu3       1.0  0.70300  0.56000  0.14100  1.0000
  Cu  Cu4       1.0  0.43000  0.95100  0.23200  1.0000
  Cu  Cu5       1.0  0.06530  0.17500  0.24100  1.0000
  Cu  Cu6       1.0  0.93500  0.67500  0.25900  1.0000
  Cu  Cu7       1.0  0.57000  0.45100  0.26800  1.0000
  Cu  Cu8       1.0  0.29700  0.06030  0.35900  1.0000
  Cu  Cu9       1.0  0.06720  0.92000  0.37300  1.0000
  Cu  Cu10      1.0  0.53100  0.20100  0.37600  1.0000
  Cu  Cu11      1.0  0.46900  0.79900  0.62400  1.0000
  Cu  Cu12      1.0  0.93300  0.07950  0.62700  1.0000
  Cu  Cu13      1.0  0.70300  0.94000  0.64100  1.0000
  Cu  Cu14      1.0  0.43000  0.54900  0.73200  1.0000
  Cu  Cu15      1.0  0.06530  0.32500  0.74100  1.0000
  Cu  Cu16      1.0  0.93500  0.82500  0.75900  1.0000
  Cu  Cu17      1.0  0.57000  0.04850  0.76800  1.0000
  Cu  Cu18      1.0  0.29700  0.44000  0.85900  1.0000
  Cu  Cu19      1.0  0.06720  0.58000  0.87300  1.0000
  Cu  Cu20      1.0  0.53100  0.29900  0.87600  1.0000
  O   O1        1.0  0.39800  0.92400  0.10400  1.0000
  O   O2        1.0  0.99500  0.19900  0.11300  1.0000
  O   O3        1.0  0.86400  0.64900  0.12900  1.0000
  O   O4        1.0  0.53700  0.47100  0.13900  1.0000
  O   O5        1.0  0.46300  0.97100  0.36100  1.0000
  O   O6        1.0  0.13600  0.14900  0.37100  1.0000
  O   O7        1.0  0.00490  0.69900  0.38700  1.0000
  O   O8        1.0  0.60200  0.42400  0.39600  1.0000
  O   O9        1.0  0.39800  0.57600  0.60400  1.0000
  O   O10       1.0  0.99500  0.30100  0.61300  1.0000
  O   O11       1.0  0.86400  0.85100  0.62900  1.0000
  O   O12       1.0  0.53700  0.02880  0.63900  1.0000
  O   O13       1.0  0.46300  0.52900  0.86100  1.0000
  O   O14       1.0  0.13600  0.35100  0.87100  1.0000
  O   O15       1.0  0.00490  0.80100  0.88700  1.0000
  O   O16       1.0  0.60200  0.07570  0.89600  1.0000
