data_image0
_chemical_formula_structural       Cl34Yb16
_chemical_formula_sum              "Cl34 Yb16"
_cell_length_a       6.56186
_cell_length_b       6.83355
_cell_length_c       27.4363
_cell_angle_alpha    96.1657
_cell_angle_beta     96.8681
_cell_angle_gamma    90

_space_group_name_H-M_alt    "P 1"
_space_group_IT_number       1

loop_
  _space_group_symop_operation_xyz
  'x, y, z'

loop_
  _atom_site_type_symbol
  _atom_site_label
  _atom_site_symmetry_multiplicity
  _atom_site_fract_x
  _atom_site_fract_y
  _atom_site_fract_z
  _atom_site_occupancy
  Cl  Cl1       1.0  0.27200  0.11200  0.00972  1.0000
  Cl  Cl2       1.0  0.23800  0.61200  0.00972  1.0000
  Cl  Cl3       1.0  0.74400  0.19600  0.10800  1.0000
  Cl  Cl4       1.0  0.86400  0.69600  0.10800  1.0000
  Cl  Cl5       1.0  0.26500  0.07970  0.13200  1.0000
  Cl  Cl6       1.0  0.36700  0.58000  0.13200  1.0000
  Cl  Cl7       1.0  0.78700  0.00063  0.22600  1.0000
  Cl  Cl8       1.0  0.93900  0.50100  0.22600  1.0000
  Cl  Cl9       1.0  0.32500  0.14300  0.25600  1.0000
  Cl  Cl10      1.0  0.43100  0.64300  0.25600  1.0000
  Cl  Cl11      1.0  0.83700  0.31300  0.34400  1.0000
  Cl  Cl12      1.0  0.00707  0.81300  0.34400  1.0000
  Cl  Cl13      1.0  0.38400  0.19500  0.37800  1.0000
  Cl  Cl14      1.0  0.49500  0.69500  0.37800  1.0000
  Cl  Cl15      1.0  0.87600  0.08230  0.45100  1.0000
  Cl  Cl16      1.0  0.07440  0.58200  0.45100  1.0000
  Cl  Cl17      1.0  0.44200  0.25000  0.50000  1.0000
  Cl  Cl18      1.0  0.55800  0.75000  0.50000  1.0000
  Cl  Cl19      1.0  0.12400  0.91800  0.54900  1.0000
  Cl  Cl20      1.0  0.92600  0.41800  0.54900  1.0000
  Cl  Cl21      1.0  0.50500  0.30500  0.62200  1.0000
  Cl  Cl22      1.0  0.61600  0.80500  0.62200  1.0000
  Cl  Cl23      1.0  0.99300  0.18700  0.65600  1.0000
  Cl  Cl24      1.0  0.16300  0.68700  0.65600  1.0000
  Cl  Cl25      1.0  0.56900  0.35700  0.74400  1.0000
  Cl  Cl26      1.0  0.67500  0.85700  0.74400  1.0000
  Cl  Cl27      1.0  0.21300  0.99900  0.77400  1.0000
  Cl  Cl28      1.0  0.06070  0.49900  0.77400  1.0000
  Cl  Cl29      1.0  0.63300  0.42000  0.86800  1.0000
  Cl  Cl30      1.0  0.73500  0.92000  0.86800  1.0000
  Cl  Cl31      1.0  0.13600  0.30400  0.89200  1.0000
  Cl  Cl32      1.0  0.25600  0.80400  0.89200  1.0000
  Cl  Cl33      1.0  0.76200  0.38800  0.99000  1.0000
  Cl  Cl34      1.0  0.72800  0.88800  0.99000  1.0000
  Yb  Yb1       1.0  0.06140  0.36600  0.06950  1.0000
  Yb  Yb2       1.0  0.50800  0.86600  0.06950  1.0000
  Yb  Yb3       1.0  0.57000  0.31800  0.19300  1.0000
  Yb  Yb4       1.0  0.12300  0.81800  0.19300  1.0000
  Yb  Yb5       1.0  0.18600  0.46100  0.31600  1.0000
  Yb  Yb6       1.0  0.63000  0.96100  0.31600  1.0000
  Yb  Yb7       1.0  0.68700  0.43000  0.43900  1.0000
  Yb  Yb8       1.0  0.25100  0.93000  0.43900  1.0000
  Yb  Yb9       1.0  0.74900  0.06980  0.56100  1.0000
  Yb  Yb10      1.0  0.31300  0.57000  0.56100  1.0000
  Yb  Yb11      1.0  0.37000  0.03860  0.68400  1.0000
  Yb  Yb12      1.0  0.81400  0.53900  0.68400  1.0000
  Yb  Yb13      1.0  0.87700  0.18200  0.80700  1.0000
  Yb  Yb14      1.0  0.43000  0.68200  0.80700  1.0000
  Yb  Yb15      1.0  0.49200  0.13400  0.93100  1.0000
  Yb  Yb16      1.0  0.93900  0.63400  0.93100  1.0000
