data_image0
_chemical_formula_structural       Al8O32Pb4Si8
_chemical_formula_sum              "Al8 O32 Pb4 Si8"
_cell_length_a       8.37447
_cell_length_b       9.26071
_cell_length_c       9.26071
_cell_angle_alpha    90.2228
_cell_angle_beta     97.0321
_cell_angle_gamma    82.9679

_space_group_name_H-M_alt    "P 1"
_space_group_IT_number       1

loop_
  _space_group_symop_operation_xyz
  'x, y, z'

loop_
  _atom_site_type_symbol
  _atom_site_label
  _atom_site_symmetry_multiplicity
  _atom_site_fract_x
  _atom_site_fract_y
  _atom_site_fract_z
  _atom_site_occupancy
  Al  Al1       1.0  0.88400  0.29600  0.06200  1.0000
  Al  Al2       1.0  0.38400  0.43800  0.20400  1.0000
  Al  Al3       1.0  0.48000  0.95100  0.29100  1.0000
  Al  Al4       1.0  0.02030  0.79100  0.45100  1.0000
  Al  Al5       1.0  0.98000  0.20900  0.54900  1.0000
  Al  Al6       1.0  0.52000  0.04920  0.70900  1.0000
  Al  Al7       1.0  0.61600  0.56200  0.79600  1.0000
  Al  Al8       1.0  0.11600  0.70400  0.93800  1.0000
  O   O1        1.0  0.69400  0.24400  0.01100  1.0000
  O   O2        1.0  0.38000  0.32100  0.05790  1.0000
  O   O3        1.0  0.99800  0.67900  0.08030  1.0000
  O   O4        1.0  0.99400  0.13200  0.13300  1.0000
  O   O5        1.0  0.55700  0.85500  0.14500  1.0000
  O   O6        1.0  0.50200  0.58000  0.17900  1.0000
  O   O7        1.0  0.88000  0.44200  0.17900  1.0000
  O   O8        1.0  0.28000  0.02120  0.23000  1.0000
  O   O9        1.0  0.19400  0.48900  0.25600  1.0000
  O   O10       1.0  0.01000  0.92700  0.31900  1.0000
  O   O11       1.0  0.61100  0.08260  0.32300  1.0000
  O   O12       1.0  0.94300  0.64500  0.35500  1.0000
  O   O13       1.0  0.49400  0.36700  0.36800  1.0000
  O   O14       1.0  0.11100  0.17700  0.41700  1.0000
  O   O15       1.0  0.49000  0.81900  0.42700  1.0000
  O   O16       1.0  0.78000  0.27000  0.47900  1.0000
  O   O17       1.0  0.22000  0.73000  0.52100  1.0000
  O   O18       1.0  0.51000  0.18100  0.57300  1.0000
  O   O19       1.0  0.88900  0.82300  0.58300  1.0000
  O   O20       1.0  0.50600  0.63300  0.63200  1.0000
  O   O21       1.0  0.05690  0.35500  0.64500  1.0000
  O   O22       1.0  0.38900  0.91700  0.67700  1.0000
  O   O23       1.0  0.99000  0.07260  0.68100  1.0000
  O   O24       1.0  0.80600  0.51100  0.74400  1.0000
  O   O25       1.0  0.72000  0.97900  0.77000  1.0000
  O   O26       1.0  0.12000  0.55800  0.82100  1.0000
  O   O27       1.0  0.49800  0.42000  0.82100  1.0000
  O   O28       1.0  0.44300  0.14500  0.85500  1.0000
  O   O29       1.0  0.00649  0.86800  0.86700  1.0000
  O   O30       1.0  0.00157  0.32100  0.92000  1.0000
  O   O31       1.0  0.62000  0.67900  0.94200  1.0000
  O   O32       1.0  0.30600  0.75600  0.98900  1.0000
  Pb  Pb1       1.0  0.80300  0.92200  0.06260  1.0000
  Pb  Pb2       1.0  0.69700  0.56300  0.42200  1.0000
  Pb  Pb3       1.0  0.30300  0.43700  0.57800  1.0000
  Pb  Pb4       1.0  0.19700  0.07790  0.93700  1.0000
  Si  Si1       1.0  0.49200  0.71300  0.06020  1.0000
  Si  Si2       1.0  0.00767  0.56000  0.21300  1.0000
  Si  Si3       1.0  0.10300  0.06550  0.28300  1.0000
  Si  Si4       1.0  0.60300  0.21700  0.43400  1.0000
  Si  Si5       1.0  0.39700  0.78300  0.56600  1.0000
  Si  Si6       1.0  0.89700  0.93400  0.71700  1.0000
  Si  Si7       1.0  0.99200  0.44000  0.78700  1.0000
  Si  Si8       1.0  0.50800  0.28700  0.94000  1.0000
