data_image0
_chemical_formula_structural       Fe2H16O24P4Zn4
_chemical_formula_sum              "Fe2 H16 O24 P4 Zn4"
_cell_length_a       10.1656
_cell_length_b       5.02986
_cell_length_c       10.4594
_cell_angle_alpha    90
_cell_angle_beta     120.868
_cell_angle_gamma    90

_space_group_name_H-M_alt    "P 1"
_space_group_IT_number       1

loop_
  _space_group_symop_operation_xyz
  'x, y, z'

loop_
  _atom_site_type_symbol
  _atom_site_label
  _atom_site_symmetry_multiplicity
  _atom_site_fract_x
  _atom_site_fract_y
  _atom_site_fract_z
  _atom_site_occupancy
  Fe  Fe1       1.0  0.00000  0.00000  0.00000  1.0000
  Fe  Fe2       1.0  0.00000  0.50000  0.50000  1.0000
  H   H1        1.0  0.83400  0.59700  0.01830  1.0000
  H   H2        1.0  0.75700  0.87100  0.02660  1.0000
  H   H3        1.0  0.05740  0.45600  0.16200  1.0000
  H   H4        1.0  0.94900  0.28700  0.20300  1.0000
  H   H5        1.0  0.05050  0.78700  0.29700  1.0000
  H   H6        1.0  0.94300  0.95600  0.33800  1.0000
  H   H7        1.0  0.24300  0.37100  0.47300  1.0000
  H   H8        1.0  0.16600  0.09740  0.48200  1.0000
  H   H9        1.0  0.83400  0.90300  0.51800  1.0000
  H   H10       1.0  0.75700  0.62900  0.52700  1.0000
  H   H11       1.0  0.05740  0.04360  0.66200  1.0000
  H   H12       1.0  0.94900  0.21300  0.70300  1.0000
  H   H13       1.0  0.05050  0.71300  0.79700  1.0000
  H   H14       1.0  0.94300  0.54400  0.83800  1.0000
  H   H15       1.0  0.24300  0.12900  0.97300  1.0000
  H   H16       1.0  0.16600  0.40300  0.98200  1.0000
  O   O1        1.0  0.18800  0.21800  0.01790  1.0000
  O   O2        1.0  0.66200  0.11700  0.05280  1.0000
  O   O3        1.0  0.97900  0.31100  0.12700  1.0000
  O   O4        1.0  0.65500  0.57800  0.14800  1.0000
  O   O5        1.0  0.13600  0.75500  0.19100  1.0000
  O   O6        1.0  0.58900  0.16100  0.24500  1.0000
  O   O7        1.0  0.41100  0.66100  0.25500  1.0000
  O   O8        1.0  0.86400  0.25500  0.30900  1.0000
  O   O9        1.0  0.34500  0.07750  0.35200  1.0000
  O   O10       1.0  0.02120  0.81100  0.37300  1.0000
  O   O11       1.0  0.33800  0.61700  0.44700  1.0000
  O   O12       1.0  0.81200  0.71800  0.48200  1.0000
  O   O13       1.0  0.18800  0.28200  0.51800  1.0000
  O   O14       1.0  0.66200  0.38300  0.55300  1.0000
  O   O15       1.0  0.97900  0.18900  0.62700  1.0000
  O   O16       1.0  0.65500  0.92200  0.64800  1.0000
  O   O17       1.0  0.13600  0.74500  0.69100  1.0000
  O   O18       1.0  0.58900  0.33900  0.74500  1.0000
  O   O19       1.0  0.41100  0.83900  0.75500  1.0000
  O   O20       1.0  0.86400  0.24500  0.80900  1.0000
  O   O21       1.0  0.34500  0.42200  0.85200  1.0000
  O   O22       1.0  0.02120  0.68900  0.87300  1.0000
  O   O23       1.0  0.33800  0.88300  0.94700  1.0000
  O   O24       1.0  0.81200  0.78200  0.98200  1.0000
  P   P1        1.0  0.69300  0.28600  0.18900  1.0000
  P   P2        1.0  0.30700  0.78600  0.31100  1.0000
  P   P3        1.0  0.69300  0.21400  0.68900  1.0000
  P   P4        1.0  0.30700  0.71400  0.81100  1.0000
  Zn  Zn1       1.0  0.50700  0.80900  0.14800  1.0000
  Zn  Zn2       1.0  0.49300  0.30900  0.35200  1.0000
  Zn  Zn3       1.0  0.50700  0.69100  0.64800  1.0000
  Zn  Zn4       1.0  0.49300  0.19100  0.85200  1.0000
