data_image0
_chemical_formula_structural       F6Na14O24S6Sn2
_chemical_formula_sum              "F6 Na14 O24 S6 Sn2"
_cell_length_a       10.6193
_cell_length_b       10.6193
_cell_length_c       6.53147
_cell_angle_alpha    90
_cell_angle_beta     90
_cell_angle_gamma    120

_space_group_name_H-M_alt    "P 1"
_space_group_IT_number       1

loop_
  _space_group_symop_operation_xyz
  'x, y, z'

loop_
  _atom_site_type_symbol
  _atom_site_label
  _atom_site_symmetry_multiplicity
  _atom_site_fract_x
  _atom_site_fract_y
  _atom_site_fract_z
  _atom_site_occupancy
  F   F1        1.0  0.15800  0.57900  0.04790  1.0000
  F   F2        1.0  0.42100  0.57900  0.04790  1.0000
  F   F3        1.0  0.42100  0.84200  0.04790  1.0000
  F   F4        1.0  0.57900  0.42100  0.54800  1.0000
  F   F5        1.0  0.84200  0.42100  0.54800  1.0000
  F   F6        1.0  0.57900  0.15800  0.54800  1.0000
  Na  Na1       1.0  0.17400  0.34800  0.01450  1.0000
  Na  Na2       1.0  0.17400  0.82600  0.01450  1.0000
  Na  Na3       1.0  0.65200  0.82600  0.01450  1.0000
  Na  Na4       1.0  0.53100  0.06280  0.22300  1.0000
  Na  Na5       1.0  0.53100  0.46900  0.22300  1.0000
  Na  Na6       1.0  0.93700  0.46900  0.22300  1.0000
  Na  Na7       1.0  0.00000  0.00000  0.30600  1.0000
  Na  Na8       1.0  0.82600  0.65200  0.51400  1.0000
  Na  Na9       1.0  0.34800  0.17400  0.51400  1.0000
  Na  Na10      1.0  0.82600  0.17400  0.51400  1.0000
  Na  Na11      1.0  0.06280  0.53100  0.72300  1.0000
  Na  Na12      1.0  0.46900  0.53100  0.72300  1.0000
  Na  Na13      1.0  0.46900  0.93700  0.72300  1.0000
  Na  Na14      1.0  0.00000  0.00000  0.80600  1.0000
  O   O1        1.0  0.18400  0.09190  0.06280  1.0000
  O   O2        1.0  0.90800  0.09190  0.06280  1.0000
  O   O3        1.0  0.90800  0.81600  0.06280  1.0000
  O   O4        1.0  0.43700  0.21900  0.18000  1.0000
  O   O5        1.0  0.78100  0.21900  0.18000  1.0000
  O   O6        1.0  0.78100  0.56300  0.18000  1.0000
  O   O7        1.0  0.06980  0.70200  0.37300  1.0000
  O   O8        1.0  0.63200  0.70200  0.37300  1.0000
  O   O9        1.0  0.06980  0.36800  0.37300  1.0000
  O   O10       1.0  0.29800  0.36800  0.37300  1.0000
  O   O11       1.0  0.29800  0.93000  0.37300  1.0000
  O   O12       1.0  0.63200  0.93000  0.37300  1.0000
  O   O13       1.0  0.09180  0.90800  0.56300  1.0000
  O   O14       1.0  0.81600  0.90800  0.56300  1.0000
  O   O15       1.0  0.09180  0.18400  0.56300  1.0000
  O   O16       1.0  0.21900  0.78100  0.68000  1.0000
  O   O17       1.0  0.56300  0.78100  0.68000  1.0000
  O   O18       1.0  0.21900  0.43700  0.68000  1.0000
  O   O19       1.0  0.36800  0.29800  0.87300  1.0000
  O   O20       1.0  0.93000  0.29800  0.87300  1.0000
  O   O21       1.0  0.36800  0.06980  0.87300  1.0000
  O   O22       1.0  0.70200  0.06980  0.87300  1.0000
  O   O23       1.0  0.70200  0.63200  0.87300  1.0000
  O   O24       1.0  0.93000  0.63200  0.87300  1.0000
  S   S1        1.0  0.17000  0.33900  0.49900  1.0000
  S   S2        1.0  0.17000  0.83000  0.49900  1.0000
  S   S3        1.0  0.66100  0.83000  0.49900  1.0000
  S   S4        1.0  0.83000  0.66100  0.99900  1.0000
  S   S5        1.0  0.33900  0.17000  0.99900  1.0000
  S   S6        1.0  0.83000  0.17000  0.99900  1.0000
  Sn  Sn1       1.0  0.33300  0.66700  0.25900  1.0000
  Sn  Sn2       1.0  0.66700  0.33300  0.75900  1.0000
