data_image0
_chemical_formula_structural       K4Mo16O32
_chemical_formula_sum              "K4 Mo16 O32"
_cell_length_a       10.255
_cell_length_b       10.2967
_cell_length_c       5.76332
_cell_angle_alpha    90
_cell_angle_beta     90
_cell_angle_gamma    90.1806

_space_group_name_H-M_alt    "P 1"
_space_group_IT_number       1

loop_
  _space_group_symop_operation_xyz
  'x, y, z'

loop_
  _atom_site_type_symbol
  _atom_site_label
  _atom_site_symmetry_multiplicity
  _atom_site_fract_x
  _atom_site_fract_y
  _atom_site_fract_z
  _atom_site_occupancy
  K   K1        1.0  0.75000  0.75000  0.12800  1.0000
  K   K2        1.0  0.25000  0.25000  0.35700  1.0000
  K   K3        1.0  0.75000  0.75000  0.64300  1.0000
  K   K4        1.0  0.25000  0.25000  0.87200  1.0000
  Mo  Mo1       1.0  0.89600  0.07920  0.15400  1.0000
  Mo  Mo2       1.0  0.60400  0.42100  0.15400  1.0000
  Mo  Mo3       1.0  0.07430  0.59800  0.16700  1.0000
  Mo  Mo4       1.0  0.42600  0.90200  0.16700  1.0000
  Mo  Mo5       1.0  0.56700  0.07990  0.38300  1.0000
  Mo  Mo6       1.0  0.93300  0.42000  0.38300  1.0000
  Mo  Mo7       1.0  0.41600  0.57300  0.40400  1.0000
  Mo  Mo8       1.0  0.08380  0.92700  0.40400  1.0000
  Mo  Mo9       1.0  0.91600  0.07300  0.59600  1.0000
  Mo  Mo10      1.0  0.58400  0.42700  0.59600  1.0000
  Mo  Mo11      1.0  0.06750  0.58000  0.61700  1.0000
  Mo  Mo12      1.0  0.43300  0.92000  0.61700  1.0000
  Mo  Mo13      1.0  0.57400  0.09850  0.83300  1.0000
  Mo  Mo14      1.0  0.92600  0.40200  0.83300  1.0000
  Mo  Mo15      1.0  0.39600  0.57900  0.84600  1.0000
  Mo  Mo16      1.0  0.10400  0.92100  0.84600  1.0000
  O   O1        1.0  0.43800  0.09800  0.10900  1.0000
  O   O2        1.0  0.06180  0.40200  0.10900  1.0000
  O   O3        1.0  0.71100  0.08400  0.11700  1.0000
  O   O4        1.0  0.78900  0.41600  0.11700  1.0000
  O   O5        1.0  0.09440  0.05470  0.12300  1.0000
  O   O6        1.0  0.40600  0.44500  0.12300  1.0000
  O   O7        1.0  0.41700  0.70800  0.12400  1.0000
  O   O8        1.0  0.08300  0.79200  0.12400  1.0000
  O   O9        1.0  0.91800  0.22200  0.37200  1.0000
  O   O10       1.0  0.58200  0.27800  0.37200  1.0000
  O   O11       1.0  0.61700  0.58200  0.37500  1.0000
  O   O12       1.0  0.88300  0.91800  0.37500  1.0000
  O   O13       1.0  0.21900  0.58400  0.38400  1.0000
  O   O14       1.0  0.28100  0.91600  0.38400  1.0000
  O   O15       1.0  0.91700  0.62000  0.39400  1.0000
  O   O16       1.0  0.58300  0.88000  0.39400  1.0000
  O   O17       1.0  0.41700  0.12000  0.60600  1.0000
  O   O18       1.0  0.08330  0.38000  0.60600  1.0000
  O   O19       1.0  0.71900  0.08380  0.61600  1.0000
  O   O20       1.0  0.78100  0.41600  0.61600  1.0000
  O   O21       1.0  0.11700  0.08170  0.62500  1.0000
  O   O22       1.0  0.38300  0.41800  0.62500  1.0000
  O   O23       1.0  0.41800  0.72200  0.62800  1.0000
  O   O24       1.0  0.08220  0.77800  0.62800  1.0000
  O   O25       1.0  0.91700  0.20800  0.87600  1.0000
  O   O26       1.0  0.58300  0.29200  0.87600  1.0000
  O   O27       1.0  0.59400  0.55500  0.87700  1.0000
  O   O28       1.0  0.90600  0.94500  0.87700  1.0000
  O   O29       1.0  0.21100  0.58400  0.88300  1.0000
  O   O30       1.0  0.28900  0.91600  0.88300  1.0000
  O   O31       1.0  0.93800  0.59800  0.89100  1.0000
  O   O32       1.0  0.56200  0.90200  0.89100  1.0000
