data_image0
_chemical_formula_structural       H16Mn8O24Si4
_chemical_formula_sum              "H16 Mn8 O24 Si4"
_cell_length_a       12.6119
_cell_length_b       7.15296
_cell_length_c       5.32263
_cell_angle_alpha    90
_cell_angle_beta     90
_cell_angle_gamma    90

_space_group_name_H-M_alt    "P 1"
_space_group_IT_number       1

loop_
  _space_group_symop_operation_xyz
  'x, y, z'

loop_
  _atom_site_type_symbol
  _atom_site_label
  _atom_site_symmetry_multiplicity
  _atom_site_fract_x
  _atom_site_fract_y
  _atom_site_fract_z
  _atom_site_occupancy
  H   H1        1.0  0.12000  0.11400  0.24900  1.0000
  H   H2        1.0  0.62000  0.88600  0.24900  1.0000
  H   H3        1.0  0.93700  0.48300  0.29800  1.0000
  H   H4        1.0  0.43700  0.51700  0.29800  1.0000
  H   H5        1.0  0.68500  0.46400  0.35200  1.0000
  H   H6        1.0  0.18500  0.53600  0.35200  1.0000
  H   H7        1.0  0.00174  0.33400  0.47900  1.0000
  H   H8        1.0  0.50200  0.66600  0.47900  1.0000
  H   H9        1.0  0.38000  0.11400  0.74900  1.0000
  H   H10       1.0  0.88000  0.88600  0.74900  1.0000
  H   H11       1.0  0.56300  0.48300  0.79800  1.0000
  H   H12       1.0  0.06330  0.51700  0.79800  1.0000
  H   H13       1.0  0.81500  0.46400  0.85200  1.0000
  H   H14       1.0  0.31500  0.53600  0.85200  1.0000
  H   H15       1.0  0.49800  0.33400  0.97900  1.0000
  H   H16       1.0  0.99800  0.66600  0.97900  1.0000
  Mn  Mn1       1.0  0.54300  0.17100  0.48300  1.0000
  Mn  Mn2       1.0  0.04260  0.82900  0.48300  1.0000
  Mn  Mn3       1.0  0.81300  0.18300  0.50000  1.0000
  Mn  Mn4       1.0  0.31300  0.81700  0.50000  1.0000
  Mn  Mn5       1.0  0.95700  0.17100  0.98300  1.0000
  Mn  Mn6       1.0  0.45700  0.82900  0.98300  1.0000
  Mn  Mn7       1.0  0.68700  0.18300  0.00000  1.0000
  Mn  Mn8       1.0  0.18700  0.81700  0.00000  1.0000
  O   O1        1.0  0.81800  0.01080  0.17000  1.0000
  O   O2        1.0  0.31800  0.98900  0.17000  1.0000
  O   O3        1.0  0.07590  0.01710  0.17400  1.0000
  O   O4        1.0  0.57600  0.98300  0.17400  1.0000
  O   O5        1.0  0.42900  0.31300  0.23100  1.0000
  O   O6        1.0  0.92900  0.68700  0.23100  1.0000
  O   O7        1.0  0.94900  0.34300  0.33500  1.0000
  O   O8        1.0  0.44900  0.65700  0.33500  1.0000
  O   O9        1.0  0.67800  0.32700  0.34800  1.0000
  O   O10       1.0  0.17800  0.67300  0.34800  1.0000
  O   O11       1.0  0.22900  0.28900  0.40000  1.0000
  O   O12       1.0  0.72900  0.71100  0.40000  1.0000
  O   O13       1.0  0.68200  0.01080  0.67000  1.0000
  O   O14       1.0  0.18200  0.98900  0.67000  1.0000
  O   O15       1.0  0.42400  0.01710  0.67400  1.0000
  O   O16       1.0  0.92400  0.98300  0.67400  1.0000
  O   O17       1.0  0.07150  0.31300  0.73100  1.0000
  O   O18       1.0  0.57100  0.68700  0.73100  1.0000
  O   O19       1.0  0.55100  0.34300  0.83500  1.0000
  O   O20       1.0  0.05120  0.65700  0.83500  1.0000
  O   O21       1.0  0.82200  0.32700  0.84800  1.0000
  O   O22       1.0  0.32200  0.67300  0.84800  1.0000
  O   O23       1.0  0.27100  0.28900  0.90000  1.0000
  O   O24       1.0  0.77100  0.71100  0.90000  1.0000
  Si  Si1       1.0  0.31500  0.21500  0.18200  1.0000
  Si  Si2       1.0  0.81500  0.78500  0.18200  1.0000
  Si  Si3       1.0  0.18500  0.21500  0.68200  1.0000
  Si  Si4       1.0  0.68500  0.78500  0.68200  1.0000
