data_image0
_chemical_formula_structural       Mo8Na10O32Tb2
_chemical_formula_sum              "Mo8 Na10 O32 Tb2"
_cell_length_a       9.81207
_cell_length_b       9.81207
_cell_length_c       9.81207
_cell_angle_alpha    109.329
_cell_angle_beta     109.542
_cell_angle_gamma    109.542

_space_group_name_H-M_alt    "P 1"
_space_group_IT_number       1

loop_
  _space_group_symop_operation_xyz
  'x, y, z'

loop_
  _atom_site_type_symbol
  _atom_site_label
  _atom_site_symmetry_multiplicity
  _atom_site_fract_x
  _atom_site_fract_y
  _atom_site_fract_z
  _atom_site_occupancy
  Mo  Mo1       1.0  0.47700  0.20900  0.04550  1.0000
  Mo  Mo2       1.0  0.16400  0.23200  0.20900  1.0000
  Mo  Mo3       1.0  0.02330  0.56900  0.23200  1.0000
  Mo  Mo4       1.0  0.66400  0.95500  0.43100  1.0000
  Mo  Mo5       1.0  0.33600  0.04550  0.56900  1.0000
  Mo  Mo6       1.0  0.97700  0.43100  0.76800  1.0000
  Mo  Mo7       1.0  0.83600  0.76800  0.79100  1.0000
  Mo  Mo8       1.0  0.52300  0.79100  0.95500  1.0000
  Na  Na1       1.0  0.33400  0.53600  0.11200  1.0000
  Na  Na2       1.0  0.92400  0.88800  0.22300  1.0000
  Na  Na3       1.0  0.83400  0.22300  0.29900  1.0000
  Na  Na4       1.0  0.75000  0.62500  0.37500  1.0000
  Na  Na5       1.0  0.57600  0.29900  0.46400  1.0000
  Na  Na6       1.0  0.42400  0.70100  0.53600  1.0000
  Na  Na7       1.0  0.25000  0.37500  0.62500  1.0000
  Na  Na8       1.0  0.16600  0.77700  0.70100  1.0000
  Na  Na9       1.0  0.07580  0.11200  0.77700  1.0000
  Na  Na10      1.0  0.66600  0.46400  0.88800  1.0000
  O   O1        1.0  0.98700  0.85500  0.00886  1.0000
  O   O2        1.0  0.35600  0.30600  0.01530  1.0000
  O   O3        1.0  0.65400  0.00887  0.02230  1.0000
  O   O4        1.0  0.42300  0.77000  0.07590  1.0000
  O   O5        1.0  0.15400  0.63200  0.14500  1.0000
  O   O6        1.0  0.92300  0.34700  0.15400  1.0000
  O   O7        1.0  0.86200  0.62100  0.19400  1.0000
  O   O8        1.0  0.30600  0.15400  0.23000  1.0000
  O   O9        1.0  0.63800  0.33200  0.25900  1.0000
  O   O10       1.0  0.29100  0.45000  0.30600  1.0000
  O   O11       1.0  0.07280  0.19400  0.33200  1.0000
  O   O12       1.0  0.79100  0.98500  0.34100  1.0000
  O   O13       1.0  0.19400  0.92400  0.34700  1.0000
  O   O14       1.0  0.51300  0.02230  0.36800  1.0000
  O   O15       1.0  0.57300  0.74100  0.37900  1.0000
  O   O16       1.0  0.14400  0.65900  0.45000  1.0000
  O   O17       1.0  0.85600  0.34100  0.55000  1.0000
  O   O18       1.0  0.42700  0.25900  0.62100  1.0000
  O   O19       1.0  0.48700  0.97800  0.63200  1.0000
  O   O20       1.0  0.80600  0.07590  0.65300  1.0000
  O   O21       1.0  0.20900  0.01530  0.65900  1.0000
  O   O22       1.0  0.92700  0.80600  0.66800  1.0000
  O   O23       1.0  0.70900  0.55000  0.69400  1.0000
  O   O24       1.0  0.36200  0.66800  0.74100  1.0000
  O   O25       1.0  0.69400  0.84600  0.77000  1.0000
  O   O26       1.0  0.13800  0.37900  0.80600  1.0000
  O   O27       1.0  0.07680  0.65300  0.84600  1.0000
  O   O28       1.0  0.84600  0.36800  0.85500  1.0000
  O   O29       1.0  0.57700  0.23000  0.92400  1.0000
  O   O30       1.0  0.34600  0.99100  0.97800  1.0000
  O   O31       1.0  0.64400  0.69400  0.98500  1.0000
  O   O32       1.0  0.01340  0.14500  0.99100  1.0000
  Tb  Tb1       1.0  0.25000  0.87500  0.12500  1.0000
  Tb  Tb2       1.0  0.75000  0.12500  0.87500  1.0000
