data_image0
_chemical_formula_structural       Al8F18K6O16P4
_chemical_formula_sum              "Al8 F18 K6 O16 P4"
_cell_length_a       6.64643
_cell_length_b       13.7756
_cell_length_c       7.15653
_cell_angle_alpha    90
_cell_angle_beta     105.533
_cell_angle_gamma    90

_space_group_name_H-M_alt    "P 1"
_space_group_IT_number       1

loop_
  _space_group_symop_operation_xyz
  'x, y, z'

loop_
  _atom_site_type_symbol
  _atom_site_label
  _atom_site_symmetry_multiplicity
  _atom_site_fract_x
  _atom_site_fract_y
  _atom_site_fract_z
  _atom_site_occupancy
  Al  Al1       1.0  0.51800  0.25000  0.04330  1.0000
  Al  Al2       1.0  0.02590  0.25000  0.05470  1.0000
  Al  Al3       1.0  0.32600  0.62200  0.32100  1.0000
  Al  Al4       1.0  0.32600  0.87800  0.32100  1.0000
  Al  Al5       1.0  0.67400  0.12200  0.67900  1.0000
  Al  Al6       1.0  0.67400  0.37800  0.67900  1.0000
  Al  Al7       1.0  0.97400  0.75000  0.94500  1.0000
  Al  Al8       1.0  0.48200  0.75000  0.95700  1.0000
  F   F1        1.0  0.76400  0.75000  0.06400  1.0000
  F   F2        1.0  0.08680  0.65600  0.12500  1.0000
  F   F3        1.0  0.08680  0.84400  0.12500  1.0000
  F   F4        1.0  0.79600  0.25000  0.14000  1.0000
  F   F5        1.0  0.47400  0.66000  0.14500  1.0000
  F   F6        1.0  0.47400  0.84000  0.14500  1.0000
  F   F7        1.0  0.32800  0.75000  0.40100  1.0000
  F   F8        1.0  0.15200  0.59000  0.46100  1.0000
  F   F9        1.0  0.15200  0.91000  0.46100  1.0000
  F   F10       1.0  0.84800  0.09000  0.53900  1.0000
  F   F11       1.0  0.84800  0.41000  0.53900  1.0000
  F   F12       1.0  0.67200  0.25000  0.59900  1.0000
  F   F13       1.0  0.52600  0.16000  0.85500  1.0000
  F   F14       1.0  0.52600  0.34000  0.85500  1.0000
  F   F15       1.0  0.20400  0.75000  0.86000  1.0000
  F   F16       1.0  0.91300  0.15600  0.87500  1.0000
  F   F17       1.0  0.91300  0.34400  0.87500  1.0000
  F   F18       1.0  0.23600  0.25000  0.93600  1.0000
  K   K1        1.0  0.81000  0.00424  0.20800  1.0000
  K   K2        1.0  0.81000  0.49600  0.20800  1.0000
  K   K3        1.0  0.91700  0.75000  0.45200  1.0000
  K   K4        1.0  0.08310  0.25000  0.54800  1.0000
  K   K5        1.0  0.19000  0.50400  0.79200  1.0000
  K   K6        1.0  0.19000  0.99600  0.79200  1.0000
  O   O1        1.0  0.30700  0.50300  0.20100  1.0000
  O   O2        1.0  0.30700  0.99700  0.20100  1.0000
  O   O3        1.0  0.50500  0.15000  0.20300  1.0000
  O   O4        1.0  0.50500  0.35000  0.20300  1.0000
  O   O5        1.0  0.13100  0.15400  0.22900  1.0000
  O   O6        1.0  0.13100  0.34600  0.22900  1.0000
  O   O7        1.0  0.58400  0.59900  0.49000  1.0000
  O   O8        1.0  0.58400  0.90100  0.49000  1.0000
  O   O9        1.0  0.41600  0.09870  0.51000  1.0000
  O   O10       1.0  0.41600  0.40100  0.51000  1.0000
  O   O11       1.0  0.86900  0.65400  0.77100  1.0000
  O   O12       1.0  0.86900  0.84600  0.77100  1.0000
  O   O13       1.0  0.49500  0.65000  0.79700  1.0000
  O   O14       1.0  0.49500  0.85000  0.79700  1.0000
  O   O15       1.0  0.69300  0.00264  0.79900  1.0000
  O   O16       1.0  0.69300  0.49700  0.79900  1.0000
  P   P1        1.0  0.34200  0.10000  0.28700  1.0000
  P   P2        1.0  0.34200  0.40000  0.28700  1.0000
  P   P3        1.0  0.65800  0.60000  0.71300  1.0000
  P   P4        1.0  0.65800  0.90000  0.71300  1.0000
