data_image0
_chemical_formula_structural       Cd8H4Li4O28Se8
_chemical_formula_sum              "Cd8 H4 Li4 O28 Se8"
_cell_length_a       5.77687
_cell_length_b       10.1501
_cell_length_c       11.4169
_cell_angle_alpha    90
_cell_angle_beta     90.1963
_cell_angle_gamma    90

_space_group_name_H-M_alt    "P 1"
_space_group_IT_number       1

loop_
  _space_group_symop_operation_xyz
  'x, y, z'

loop_
  _atom_site_type_symbol
  _atom_site_label
  _atom_site_symmetry_multiplicity
  _atom_site_fract_x
  _atom_site_fract_y
  _atom_site_fract_z
  _atom_site_occupancy
  Cd  Cd1       1.0  0.63400  0.40400  0.10500  1.0000
  Cd  Cd2       1.0  0.14400  0.61200  0.21200  1.0000
  Cd  Cd3       1.0  0.85600  0.11200  0.28800  1.0000
  Cd  Cd4       1.0  0.36600  0.90400  0.39500  1.0000
  Cd  Cd5       1.0  0.63400  0.09640  0.60500  1.0000
  Cd  Cd6       1.0  0.14400  0.88800  0.71200  1.0000
  Cd  Cd7       1.0  0.85600  0.38800  0.78800  1.0000
  Cd  Cd8       1.0  0.36600  0.59600  0.89500  1.0000
  H   H1        1.0  0.17600  0.40300  0.05530  1.0000
  H   H2        1.0  0.82400  0.90300  0.44500  1.0000
  H   H3        1.0  0.17600  0.09720  0.55500  1.0000
  H   H4        1.0  0.82400  0.59700  0.94500  1.0000
  Li  Li1       1.0  0.62200  0.80700  0.13900  1.0000
  Li  Li2       1.0  0.37800  0.30700  0.36100  1.0000
  Li  Li3       1.0  0.62200  0.69300  0.63900  1.0000
  Li  Li4       1.0  0.37800  0.19300  0.86100  1.0000
  O   O1        1.0  0.36300  0.76700  0.03660  1.0000
  O   O2        1.0  0.27500  0.48100  0.06470  1.0000
  O   O3        1.0  0.92200  0.74300  0.09950  1.0000
  O   O4        1.0  0.96000  0.25000  0.12400  1.0000
  O   O5        1.0  0.63300  0.99700  0.15100  1.0000
  O   O6        1.0  0.49000  0.22300  0.22400  1.0000
  O   O7        1.0  0.20700  0.00771  0.24200  1.0000
  O   O8        1.0  0.79300  0.50800  0.25800  1.0000
  O   O9        1.0  0.51000  0.72300  0.27600  1.0000
  O   O10       1.0  0.36700  0.49700  0.34900  1.0000
  O   O11       1.0  0.03960  0.75000  0.37600  1.0000
  O   O12       1.0  0.07780  0.24300  0.40100  1.0000
  O   O13       1.0  0.72500  0.98100  0.43500  1.0000
  O   O14       1.0  0.63700  0.26700  0.46300  1.0000
  O   O15       1.0  0.36300  0.73300  0.53700  1.0000
  O   O16       1.0  0.27500  0.01930  0.56500  1.0000
  O   O17       1.0  0.92200  0.75700  0.59900  1.0000
  O   O18       1.0  0.96000  0.25000  0.62400  1.0000
  O   O19       1.0  0.63300  0.50300  0.65100  1.0000
  O   O20       1.0  0.49000  0.27700  0.72400  1.0000
  O   O21       1.0  0.20700  0.49200  0.74200  1.0000
  O   O22       1.0  0.79300  0.99200  0.75800  1.0000
  O   O23       1.0  0.51000  0.77700  0.77600  1.0000
  O   O24       1.0  0.36700  0.00344  0.84900  1.0000
  O   O25       1.0  0.03960  0.75000  0.87600  1.0000
  O   O26       1.0  0.07780  0.25700  0.90100  1.0000
  O   O27       1.0  0.72500  0.51900  0.93500  1.0000
  O   O28       1.0  0.63700  0.23300  0.96300  1.0000
  Se  Se1       1.0  0.09400  0.83300  0.00669  1.0000
  Se  Se2       1.0  0.38600  0.09150  0.14300  1.0000
  Se  Se3       1.0  0.61400  0.59200  0.35700  1.0000
  Se  Se4       1.0  0.90600  0.33300  0.49300  1.0000
  Se  Se5       1.0  0.09400  0.66700  0.50700  1.0000
  Se  Se6       1.0  0.38600  0.40800  0.64300  1.0000
  Se  Se7       1.0  0.61400  0.90800  0.85700  1.0000
  Se  Se8       1.0  0.90600  0.16700  0.99300  1.0000
