data_image0
_chemical_formula_structural       Ge16Se36
_chemical_formula_sum              "Ge16 Se36"
_cell_length_a       18.1185
_cell_length_b       7.1807
_cell_length_c       13.021
_cell_angle_alpha    90
_cell_angle_beta     90
_cell_angle_gamma    90

_space_group_name_H-M_alt    "P 1"
_space_group_IT_number       1

loop_
  _space_group_symop_operation_xyz
  'x, y, z'

loop_
  _atom_site_type_symbol
  _atom_site_label
  _atom_site_symmetry_multiplicity
  _atom_site_fract_x
  _atom_site_fract_y
  _atom_site_fract_z
  _atom_site_occupancy
  Ge  Ge1       1.0  0.95900  0.32000  0.13600  1.0000
  Ge  Ge2       1.0  0.45900  0.68000  0.13600  1.0000
  Ge  Ge3       1.0  0.14600  0.17900  0.13600  1.0000
  Ge  Ge4       1.0  0.64600  0.82100  0.13600  1.0000
  Ge  Ge5       1.0  0.77500  0.18700  0.20300  1.0000
  Ge  Ge6       1.0  0.27500  0.81300  0.20300  1.0000
  Ge  Ge7       1.0  0.33000  0.31500  0.20700  1.0000
  Ge  Ge8       1.0  0.83000  0.68500  0.20700  1.0000
  Ge  Ge9       1.0  0.54100  0.32000  0.63600  1.0000
  Ge  Ge10      1.0  0.04130  0.68000  0.63600  1.0000
  Ge  Ge11      1.0  0.35400  0.17900  0.63600  1.0000
  Ge  Ge12      1.0  0.85400  0.82100  0.63600  1.0000
  Ge  Ge13      1.0  0.72500  0.18700  0.70300  1.0000
  Ge  Ge14      1.0  0.22500  0.81300  0.70300  1.0000
  Ge  Ge15      1.0  0.17000  0.31500  0.70700  1.0000
  Ge  Ge16      1.0  0.67000  0.68500  0.70700  1.0000
  Se  Se1       1.0  0.05240  0.25100  0.01140  1.0000
  Se  Se2       1.0  0.55200  0.74900  0.01140  1.0000
  Se  Se3       1.0  0.85000  0.20400  0.05290  1.0000
  Se  Se4       1.0  0.35000  0.79600  0.05290  1.0000
  Se  Se5       1.0  0.25600  0.29100  0.05650  1.0000
  Se  Se6       1.0  0.75600  0.70900  0.05650  1.0000
  Se  Se7       1.0  0.64800  0.15500  0.15500  1.0000
  Se  Se8       1.0  0.14800  0.84500  0.15500  1.0000
  Se  Se9       1.0  0.45600  0.34600  0.15600  1.0000
  Se  Se10      1.0  0.95600  0.65400  0.15600  1.0000
  Se  Se11      1.0  0.99400  0.16800  0.29400  1.0000
  Se  Se12      1.0  0.49400  0.83200  0.29400  1.0000
  Se  Se13      1.0  0.10900  0.32800  0.29400  1.0000
  Se  Se14      1.0  0.60900  0.67200  0.29400  1.0000
  Se  Se15      1.0  0.32400  0.04560  0.31700  1.0000
  Se  Se16      1.0  0.82400  0.95400  0.31700  1.0000
  Se  Se17      1.0  0.78200  0.44800  0.31900  1.0000
  Se  Se18      1.0  0.28200  0.55200  0.31900  1.0000
  Se  Se19      1.0  0.44800  0.25100  0.51100  1.0000
  Se  Se20      1.0  0.94800  0.74900  0.51100  1.0000
  Se  Se21      1.0  0.65000  0.20400  0.55300  1.0000
  Se  Se22      1.0  0.15000  0.79600  0.55300  1.0000
  Se  Se23      1.0  0.24400  0.29100  0.55700  1.0000
  Se  Se24      1.0  0.74400  0.70900  0.55700  1.0000
  Se  Se25      1.0  0.85200  0.15500  0.65500  1.0000
  Se  Se26      1.0  0.35200  0.84500  0.65500  1.0000
  Se  Se27      1.0  0.04390  0.34600  0.65600  1.0000
  Se  Se28      1.0  0.54400  0.65400  0.65600  1.0000
  Se  Se29      1.0  0.50600  0.16800  0.79400  1.0000
  Se  Se30      1.0  0.00626  0.83200  0.79400  1.0000
  Se  Se31      1.0  0.39100  0.32800  0.79400  1.0000
  Se  Se32      1.0  0.89100  0.67200  0.79400  1.0000
  Se  Se33      1.0  0.17600  0.04560  0.81700  1.0000
  Se  Se34      1.0  0.67600  0.95400  0.81700  1.0000
  Se  Se35      1.0  0.71800  0.44800  0.81900  1.0000
  Se  Se36      1.0  0.21800  0.55200  0.81900  1.0000
