data_image0
_chemical_formula_structural       Ag8O32P8V4
_chemical_formula_sum              "Ag8 O32 P8 V4"
_cell_length_a       7.71242
_cell_length_b       13.4448
_cell_length_c       6.29677
_cell_angle_alpha    90
_cell_angle_beta     99.4284
_cell_angle_gamma    90

_space_group_name_H-M_alt    "P 1"
_space_group_IT_number       1

loop_
  _space_group_symop_operation_xyz
  'x, y, z'

loop_
  _atom_site_type_symbol
  _atom_site_label
  _atom_site_symmetry_multiplicity
  _atom_site_fract_x
  _atom_site_fract_y
  _atom_site_fract_z
  _atom_site_occupancy
  Ag  Ag1       1.0  0.48500  0.64900  0.09000  1.0000
  Ag  Ag2       1.0  0.04740  0.70700  0.14600  1.0000
  Ag  Ag3       1.0  0.95300  0.20700  0.35400  1.0000
  Ag  Ag4       1.0  0.51500  0.14900  0.41000  1.0000
  Ag  Ag5       1.0  0.48500  0.85100  0.59000  1.0000
  Ag  Ag6       1.0  0.04740  0.79300  0.64600  1.0000
  Ag  Ag7       1.0  0.95300  0.29300  0.85400  1.0000
  Ag  Ag8       1.0  0.51500  0.35100  0.91000  1.0000
  O   O1        1.0  0.71700  0.54000  0.02580  1.0000
  O   O2        1.0  0.71900  0.22900  0.04920  1.0000
  O   O3        1.0  0.22600  0.09510  0.08900  1.0000
  O   O4        1.0  0.63100  0.05300  0.14000  1.0000
  O   O5        1.0  0.22100  0.91100  0.18500  1.0000
  O   O6        1.0  0.10600  0.32200  0.18800  1.0000
  O   O7        1.0  0.53500  0.85400  0.18900  1.0000
  O   O8        1.0  0.02460  0.52100  0.24200  1.0000
  O   O9        1.0  0.97500  0.02140  0.25800  1.0000
  O   O10       1.0  0.46500  0.35400  0.31100  1.0000
  O   O11       1.0  0.89400  0.82200  0.31200  1.0000
  O   O12       1.0  0.77900  0.41100  0.31500  1.0000
  O   O13       1.0  0.36900  0.55300  0.36000  1.0000
  O   O14       1.0  0.77400  0.59500  0.41100  1.0000
  O   O15       1.0  0.28100  0.72900  0.45100  1.0000
  O   O16       1.0  0.28300  0.04030  0.47400  1.0000
  O   O17       1.0  0.71700  0.96000  0.52600  1.0000
  O   O18       1.0  0.71900  0.27100  0.54900  1.0000
  O   O19       1.0  0.22600  0.40500  0.58900  1.0000
  O   O20       1.0  0.63100  0.44700  0.64000  1.0000
  O   O21       1.0  0.22100  0.58900  0.68500  1.0000
  O   O22       1.0  0.10600  0.17800  0.68800  1.0000
  O   O23       1.0  0.53500  0.64600  0.68900  1.0000
  O   O24       1.0  0.02460  0.97900  0.74200  1.0000
  O   O25       1.0  0.97500  0.47900  0.75800  1.0000
  O   O26       1.0  0.46500  0.14600  0.81100  1.0000
  O   O27       1.0  0.89400  0.67800  0.81200  1.0000
  O   O28       1.0  0.77900  0.08890  0.81500  1.0000
  O   O29       1.0  0.36900  0.94700  0.86000  1.0000
  O   O30       1.0  0.77400  0.90500  0.91100  1.0000
  O   O31       1.0  0.28100  0.77100  0.95100  1.0000
  O   O32       1.0  0.28300  0.46000  0.97400  1.0000
  P   P1        1.0  0.36000  0.87000  0.03750  1.0000
  P   P2        1.0  0.82800  0.52200  0.24800  1.0000
  P   P3        1.0  0.17200  0.02160  0.25200  1.0000
  P   P4        1.0  0.64000  0.37000  0.46300  1.0000
  P   P5        1.0  0.36000  0.63000  0.53700  1.0000
  P   P6        1.0  0.82800  0.97800  0.74800  1.0000
  P   P7        1.0  0.17200  0.47800  0.75200  1.0000
  P   P8        1.0  0.64000  0.13000  0.96300  1.0000
  V   V1        1.0  0.77200  0.92200  0.22900  1.0000
  V   V2        1.0  0.22800  0.42200  0.27100  1.0000
  V   V3        1.0  0.77200  0.57800  0.72900  1.0000
  V   V4        1.0  0.22800  0.07760  0.77100  1.0000
