data_image0
_chemical_formula_structural       O4Sn4Te4Zn4
_chemical_formula_sum              "O4 Sn4 Te4 Zn4"
_cell_length_a       6.2945
_cell_length_b       4.07793
_cell_length_c       13.99
_cell_angle_alpha    90
_cell_angle_beta     90
_cell_angle_gamma    90

_space_group_name_H-M_alt    "P 1"
_space_group_IT_number       1

loop_
  _space_group_symop_operation_xyz
  'x, y, z'

loop_
  _atom_site_type_symbol
  _atom_site_label
  _atom_site_symmetry_multiplicity
  _atom_site_fract_x
  _atom_site_fract_y
  _atom_site_fract_z
  _atom_site_occupancy
  O   O1        1.0  0.29400  0.25000  0.18300  1.0000
  O   O2        1.0  0.79400  0.25000  0.31700  1.0000
  O   O3        1.0  0.20600  0.75000  0.68300  1.0000
  O   O4        1.0  0.70600  0.75000  0.81700  1.0000
  Sn  Sn1       1.0  0.25600  0.75000  0.09500  1.0000
  Sn  Sn2       1.0  0.75600  0.75000  0.40500  1.0000
  Sn  Sn3       1.0  0.24400  0.25000  0.59500  1.0000
  Sn  Sn4       1.0  0.74400  0.25000  0.90500  1.0000
  Te  Te1       1.0  0.75300  0.75000  0.09400  1.0000
  Te  Te2       1.0  0.25300  0.75000  0.40600  1.0000
  Te  Te3       1.0  0.74700  0.25000  0.59400  1.0000
  Te  Te4       1.0  0.24700  0.25000  0.90600  1.0000
  Zn  Zn1       1.0  0.61200  0.25000  0.20200  1.0000
  Zn  Zn2       1.0  0.11200  0.25000  0.29800  1.0000
  Zn  Zn3       1.0  0.88800  0.75000  0.70200  1.0000
  Zn  Zn4       1.0  0.38800  0.75000  0.79800  1.0000
