data_image0
_chemical_formula_structural       Bi4P8S28Tl8
_chemical_formula_sum              "Bi4 P8 S28 Tl8"
_cell_length_a       6.75417
_cell_length_b       12.1986
_cell_length_c       16.7454
_cell_angle_alpha    94.1224
_cell_angle_beta     101.635
_cell_angle_gamma    106.072

_space_group_name_H-M_alt    "P 1"
_space_group_IT_number       1

loop_
  _space_group_symop_operation_xyz
  'x, y, z'

loop_
  _atom_site_type_symbol
  _atom_site_label
  _atom_site_symmetry_multiplicity
  _atom_site_fract_x
  _atom_site_fract_y
  _atom_site_fract_z
  _atom_site_occupancy
  Bi  Bi1       1.0  0.03470  0.91900  0.24600  1.0000
  Bi  Bi2       1.0  0.36900  0.58100  0.25400  1.0000
  Bi  Bi3       1.0  0.63100  0.41900  0.74600  1.0000
  Bi  Bi4       1.0  0.96500  0.08050  0.75400  1.0000
  P   P1        1.0  0.47000  0.80900  0.13700  1.0000
  P   P2        1.0  0.21900  0.29000  0.19100  1.0000
  P   P3        1.0  0.23800  0.21000  0.30900  1.0000
  P   P4        1.0  0.02440  0.69100  0.36300  1.0000
  P   P5        1.0  0.97600  0.30900  0.63700  1.0000
  P   P6        1.0  0.76200  0.79000  0.69100  1.0000
  P   P7        1.0  0.78100  0.71000  0.80900  1.0000
  P   P8        1.0  0.53000  0.19100  0.86300  1.0000
  S   S1        1.0  0.71900  0.88600  0.08750  1.0000
  S   S2        1.0  0.35500  0.63500  0.09400  1.0000
  S   S3        1.0  0.10900  0.15800  0.10000  1.0000
  S   S4        1.0  0.24300  0.88900  0.10400  1.0000
  S   S5        1.0  0.01760  0.38800  0.19500  1.0000
  S   S6        1.0  0.51400  0.39600  0.19600  1.0000
  S   S7        1.0  0.99100  0.67100  0.23600  1.0000
  S   S8        1.0  0.58300  0.82900  0.26400  1.0000
  S   S9        1.0  0.42200  0.10400  0.30400  1.0000
  S   S10       1.0  0.93400  0.11200  0.30500  1.0000
  S   S11       1.0  0.75100  0.61100  0.39600  1.0000
  S   S12       1.0  0.35100  0.34200  0.40000  1.0000
  S   S13       1.0  0.12600  0.86500  0.40600  1.0000
  S   S14       1.0  0.24600  0.61400  0.41300  1.0000
  S   S15       1.0  0.75400  0.38600  0.58700  1.0000
  S   S16       1.0  0.87400  0.13500  0.59400  1.0000
  S   S17       1.0  0.64900  0.65800  0.60000  1.0000
  S   S18       1.0  0.24900  0.38900  0.60400  1.0000
  S   S19       1.0  0.06560  0.88800  0.69500  1.0000
  S   S20       1.0  0.57800  0.89600  0.69600  1.0000
  S   S21       1.0  0.41700  0.17100  0.73600  1.0000
  S   S22       1.0  0.00919  0.32900  0.76400  1.0000
  S   S23       1.0  0.48600  0.60400  0.80400  1.0000
  S   S24       1.0  0.98200  0.61200  0.80500  1.0000
  S   S25       1.0  0.75700  0.11100  0.89600  1.0000
  S   S26       1.0  0.89100  0.84200  0.90000  1.0000
  S   S27       1.0  0.64500  0.36500  0.90600  1.0000
  S   S28       1.0  0.28100  0.11400  0.91300  1.0000
  Tl  Tl1       1.0  0.85200  0.67100  0.02660  1.0000
  Tl  Tl2       1.0  0.59700  0.13300  0.12000  1.0000
  Tl  Tl3       1.0  0.84300  0.36700  0.38000  1.0000
  Tl  Tl4       1.0  0.65400  0.82900  0.47300  1.0000
  Tl  Tl5       1.0  0.34600  0.17100  0.52700  1.0000
  Tl  Tl6       1.0  0.15700  0.63300  0.62000  1.0000
  Tl  Tl7       1.0  0.40300  0.86700  0.88000  1.0000
  Tl  Tl8       1.0  0.14800  0.32900  0.97300  1.0000
