data_image0
_chemical_formula_structural       Al8Cs24P16
_chemical_formula_sum              "Al8 Cs24 P16"
_cell_length_a       11.3707
_cell_length_b       8.78334
_cell_length_c       19.2312
_cell_angle_alpha    90
_cell_angle_beta     100.264
_cell_angle_gamma    90

_space_group_name_H-M_alt    "P 1"
_space_group_IT_number       1

loop_
  _space_group_symop_operation_xyz
  'x, y, z'

loop_
  _atom_site_type_symbol
  _atom_site_label
  _atom_site_symmetry_multiplicity
  _atom_site_fract_x
  _atom_site_fract_y
  _atom_site_fract_z
  _atom_site_occupancy
  Al  Al1       1.0  0.04310  0.88800  0.05420  1.0000
  Al  Al2       1.0  0.53700  0.55300  0.07230  1.0000
  Al  Al3       1.0  0.46300  0.05320  0.42800  1.0000
  Al  Al4       1.0  0.95700  0.38800  0.44600  1.0000
  Al  Al5       1.0  0.04310  0.61200  0.55400  1.0000
  Al  Al6       1.0  0.53700  0.94700  0.57200  1.0000
  Al  Al7       1.0  0.46300  0.44700  0.92800  1.0000
  Al  Al8       1.0  0.95700  0.11200  0.94600  1.0000
  Cs  Cs1       1.0  0.85100  0.47100  0.03320  1.0000
  Cs  Cs2       1.0  0.73600  0.90700  0.07870  1.0000
  Cs  Cs3       1.0  0.37600  0.92500  0.10900  1.0000
  Cs  Cs4       1.0  0.29000  0.38300  0.16100  1.0000
  Cs  Cs5       1.0  0.63700  0.24600  0.21000  1.0000
  Cs  Cs6       1.0  0.08130  0.05950  0.24300  1.0000
  Cs  Cs7       1.0  0.91900  0.55900  0.25700  1.0000
  Cs  Cs8       1.0  0.36300  0.74600  0.29000  1.0000
  Cs  Cs9       1.0  0.71000  0.88300  0.33900  1.0000
  Cs  Cs10      1.0  0.62400  0.42500  0.39100  1.0000
  Cs  Cs11      1.0  0.26400  0.40700  0.42100  1.0000
  Cs  Cs12      1.0  0.14900  0.97100  0.46700  1.0000
  Cs  Cs13      1.0  0.85100  0.02920  0.53300  1.0000
  Cs  Cs14      1.0  0.73600  0.59300  0.57900  1.0000
  Cs  Cs15      1.0  0.37600  0.57500  0.60900  1.0000
  Cs  Cs16      1.0  0.29000  0.11700  0.66100  1.0000
  Cs  Cs17      1.0  0.63700  0.25400  0.71000  1.0000
  Cs  Cs18      1.0  0.08130  0.44100  0.74300  1.0000
  Cs  Cs19      1.0  0.91900  0.94100  0.75700  1.0000
  Cs  Cs20      1.0  0.36300  0.75400  0.79000  1.0000
  Cs  Cs21      1.0  0.71000  0.61700  0.83900  1.0000
  Cs  Cs22      1.0  0.62400  0.07520  0.89100  1.0000
  Cs  Cs23      1.0  0.26400  0.09340  0.92100  1.0000
  Cs  Cs24      1.0  0.14900  0.52900  0.96700  1.0000
  P   P1        1.0  0.50600  0.29900  0.03180  1.0000
  P   P2        1.0  0.05530  0.15600  0.06250  1.0000
  P   P3        1.0  0.10300  0.71300  0.14000  1.0000
  P   P4        1.0  0.59600  0.63900  0.18500  1.0000
  P   P5        1.0  0.40400  0.13900  0.31500  1.0000
  P   P6        1.0  0.89700  0.21300  0.36000  1.0000
  P   P7        1.0  0.94500  0.65600  0.43700  1.0000
  P   P8        1.0  0.49400  0.79900  0.46800  1.0000
  P   P9        1.0  0.50600  0.20100  0.53200  1.0000
  P   P10       1.0  0.05530  0.34400  0.56300  1.0000
  P   P11       1.0  0.10300  0.78700  0.64000  1.0000
  P   P12       1.0  0.59600  0.86100  0.68500  1.0000
  P   P13       1.0  0.40400  0.36100  0.81500  1.0000
  P   P14       1.0  0.89700  0.28700  0.86000  1.0000
  P   P15       1.0  0.94500  0.84400  0.93700  1.0000
  P   P16       1.0  0.49400  0.70100  0.96800  1.0000
