data_image0
_chemical_formula_structural       Mn8O32Sr4V8
_chemical_formula_sum              "Mn8 O32 Sr4 V8"
_cell_length_a       8.66437
_cell_length_b       9.77995
_cell_length_c       9.77995
_cell_angle_alpha    101.316
_cell_angle_beta     116.293
_cell_angle_gamma    63.7067

_space_group_name_H-M_alt    "P 1"
_space_group_IT_number       1

loop_
  _space_group_symop_operation_xyz
  'x, y, z'

loop_
  _atom_site_type_symbol
  _atom_site_label
  _atom_site_symmetry_multiplicity
  _atom_site_fract_x
  _atom_site_fract_y
  _atom_site_fract_z
  _atom_site_occupancy
  Mn  Mn1       1.0  0.12400  0.33400  0.00210  1.0000
  Mn  Mn2       1.0  0.37200  0.50200  0.16600  1.0000
  Mn  Mn3       1.0  0.95600  0.00210  0.33400  1.0000
  Mn  Mn4       1.0  0.87200  0.83400  0.49800  1.0000
  Mn  Mn5       1.0  0.20800  0.16600  0.50200  1.0000
  Mn  Mn6       1.0  0.62400  0.99800  0.66600  1.0000
  Mn  Mn7       1.0  0.70800  0.49800  0.83400  1.0000
  Mn  Mn8       1.0  0.45600  0.66600  0.99800  1.0000
  O   O1        1.0  0.70200  0.67700  0.00733  1.0000
  O   O2        1.0  0.89400  0.33900  0.02840  1.0000
  O   O3        1.0  0.39900  0.86000  0.13700  1.0000
  O   O4        1.0  0.89900  0.86300  0.14000  1.0000
  O   O5        1.0  0.11600  0.52800  0.16100  1.0000
  O   O6        1.0  0.82600  0.17500  0.17400  1.0000
  O   O7        1.0  0.32700  0.17400  0.17500  1.0000
  O   O8        1.0  0.62900  0.49300  0.17700  1.0000
  O   O9        1.0  0.20200  0.99300  0.32300  1.0000
  O   O10       1.0  0.90200  0.67400  0.32500  1.0000
  O   O11       1.0  0.40200  0.67500  0.32600  1.0000
  O   O12       1.0  0.70500  0.02840  0.33900  1.0000
  O   O13       1.0  0.50900  0.36300  0.36000  1.0000
  O   O14       1.0  0.01200  0.36000  0.36300  1.0000
  O   O15       1.0  0.61600  0.83900  0.47200  1.0000
  O   O16       1.0  0.44500  0.17700  0.49300  1.0000
  O   O17       1.0  0.12900  0.82300  0.50700  1.0000
  O   O18       1.0  0.98300  0.16100  0.52800  1.0000
  O   O19       1.0  0.00878  0.64000  0.63700  1.0000
  O   O20       1.0  0.51200  0.63700  0.64000  1.0000
  O   O21       1.0  0.39400  0.97200  0.66100  1.0000
  O   O22       1.0  0.75100  0.32500  0.67400  1.0000
  O   O23       1.0  0.25100  0.32600  0.67500  1.0000
  O   O24       1.0  0.87200  0.00733  0.67700  1.0000
  O   O25       1.0  0.94500  0.50700  0.82300  1.0000
  O   O26       1.0  0.32600  0.82600  0.82500  1.0000
  O   O27       1.0  0.82700  0.82500  0.82600  1.0000
  O   O28       1.0  0.48300  0.47200  0.83900  1.0000
  O   O29       1.0  0.62200  0.13700  0.86000  1.0000
  O   O30       1.0  0.12200  0.14000  0.86300  1.0000
  O   O31       1.0  0.20500  0.66100  0.97200  1.0000
  O   O32       1.0  0.37200  0.32300  0.99300  1.0000
  Sr  Sr1       1.0  0.49900  0.00000  0.00000  1.0000
  Sr  Sr2       1.0  0.99900  0.00000  0.00000  1.0000
  Sr  Sr3       1.0  0.24900  0.50000  0.50000  1.0000
  Sr  Sr4       1.0  0.74900  0.50000  0.50000  1.0000
  V   V1        1.0  0.90900  0.68400  0.15500  1.0000
  V   V2        1.0  0.84300  0.34500  0.18400  1.0000
  V   V3        1.0  0.40900  0.84500  0.31600  1.0000
  V   V4        1.0  0.50300  0.18400  0.34500  1.0000
  V   V5        1.0  0.34300  0.81600  0.65500  1.0000
  V   V6        1.0  0.93700  0.15500  0.68400  1.0000
  V   V7        1.0  0.00301  0.65500  0.81600  1.0000
  V   V8        1.0  0.43700  0.31600  0.84500  1.0000
