data_image0
_chemical_formula_structural       K2Na4O30Si12Y2
_chemical_formula_sum              "K2 Na4 O30 Si12 Y2"
_cell_length_a       8.52693
_cell_length_b       10.0848
_cell_length_c       10.0848
_cell_angle_alpha    95.6979
_cell_angle_beta     115.009
_cell_angle_gamma    115.009

_space_group_name_H-M_alt    "P 1"
_space_group_IT_number       1

loop_
  _space_group_symop_operation_xyz
  'x, y, z'

loop_
  _atom_site_type_symbol
  _atom_site_label
  _atom_site_symmetry_multiplicity
  _atom_site_fract_x
  _atom_site_fract_y
  _atom_site_fract_z
  _atom_site_occupancy
  K   K1        1.0  0.18200  0.43200  0.43200  1.0000
  K   K2        1.0  0.81800  0.56800  0.56800  1.0000
  Na  Na1       1.0  0.00000  0.75900  0.24100  1.0000
  Na  Na2       1.0  0.50000  0.75900  0.24100  1.0000
  Na  Na3       1.0  0.00000  0.24100  0.75900  1.0000
  Na  Na4       1.0  0.50000  0.24100  0.75900  1.0000
  O   O1        1.0  0.22400  0.23700  0.02000  1.0000
  O   O2        1.0  0.53400  0.23700  0.02000  1.0000
  O   O3        1.0  0.78200  0.03150  0.03150  1.0000
  O   O4        1.0  0.18500  0.75600  0.11400  1.0000
  O   O5        1.0  0.27600  0.50200  0.17500  1.0000
  O   O6        1.0  0.90000  0.50200  0.17500  1.0000
  O   O7        1.0  0.59600  0.47900  0.21300  1.0000
  O   O8        1.0  0.22400  0.02000  0.23700  1.0000
  O   O9        1.0  0.53400  0.02000  0.23700  1.0000
  O   O10       1.0  0.81500  0.88600  0.24400  1.0000
  O   O11       1.0  0.37700  0.32900  0.32900  1.0000
  O   O12       1.0  0.78200  0.32900  0.32900  1.0000
  O   O13       1.0  0.59600  0.21300  0.47900  1.0000
  O   O14       1.0  0.09960  0.82500  0.49800  1.0000
  O   O15       1.0  0.72400  0.82500  0.49800  1.0000
  O   O16       1.0  0.27600  0.17500  0.50200  1.0000
  O   O17       1.0  0.90000  0.17500  0.50200  1.0000
  O   O18       1.0  0.40400  0.78700  0.52100  1.0000
  O   O19       1.0  0.21800  0.67100  0.67100  1.0000
  O   O20       1.0  0.62300  0.67100  0.67100  1.0000
  O   O21       1.0  0.18500  0.11400  0.75600  1.0000
  O   O22       1.0  0.46600  0.98000  0.76300  1.0000
  O   O23       1.0  0.77600  0.98000  0.76300  1.0000
  O   O24       1.0  0.40400  0.52100  0.78700  1.0000
  O   O25       1.0  0.09960  0.49800  0.82500  1.0000
  O   O26       1.0  0.72400  0.49800  0.82500  1.0000
  O   O27       1.0  0.81500  0.24400  0.88600  1.0000
  O   O28       1.0  0.21800  0.96800  0.96800  1.0000
  O   O29       1.0  0.46600  0.76300  0.98000  1.0000
  O   O30       1.0  0.77600  0.76300  0.98000  1.0000
  Si  Si1       1.0  0.71600  0.86700  0.06540  1.0000
  Si  Si2       1.0  0.28400  0.93500  0.13300  1.0000
  Si  Si3       1.0  0.36200  0.38900  0.18000  1.0000
  Si  Si4       1.0  0.70700  0.38900  0.18000  1.0000
  Si  Si5       1.0  0.36200  0.18000  0.38900  1.0000
  Si  Si6       1.0  0.70700  0.18000  0.38900  1.0000
  Si  Si7       1.0  0.29300  0.82000  0.61100  1.0000
  Si  Si8       1.0  0.63800  0.82000  0.61100  1.0000
  Si  Si9       1.0  0.29300  0.61100  0.82000  1.0000
  Si  Si10      1.0  0.63800  0.61100  0.82000  1.0000
  Si  Si11      1.0  0.71600  0.06540  0.86700  1.0000
  Si  Si12      1.0  0.28400  0.13300  0.93500  1.0000
  Y   Y1        1.0  0.00000  0.50000  0.00000  1.0000
  Y   Y2        1.0  0.00000  0.00000  0.50000  1.0000
