data_image0
_chemical_formula_structural       H24K2Mg2O20P2
_chemical_formula_sum              "H24 K2 Mg2 O20 P2"
_cell_length_a       6.77529
_cell_length_b       6.05812
_cell_length_c       10.9118
_cell_angle_alpha    90
_cell_angle_beta     90
_cell_angle_gamma    90

_space_group_name_H-M_alt    "P 1"
_space_group_IT_number       1

loop_
  _space_group_symop_operation_xyz
  'x, y, z'

loop_
  _atom_site_type_symbol
  _atom_site_label
  _atom_site_symmetry_multiplicity
  _atom_site_fract_x
  _atom_site_fract_y
  _atom_site_fract_z
  _atom_site_occupancy
  H   H1        1.0  0.17300  0.82400  0.07430  1.0000
  H   H2        1.0  0.82700  0.82400  0.07430  1.0000
  H   H3        1.0  0.50000  0.15800  0.11200  1.0000
  H   H4        1.0  0.38000  0.99900  0.26600  1.0000
  H   H5        1.0  0.62000  0.99900  0.26600  1.0000
  H   H6        1.0  0.25100  0.36100  0.28000  1.0000
  H   H7        1.0  0.74900  0.36100  0.28000  1.0000
  H   H8        1.0  0.17600  0.61200  0.29000  1.0000
  H   H9        1.0  0.82400  0.61200  0.29000  1.0000
  H   H10       1.0  0.20400  0.21300  0.45200  1.0000
  H   H11       1.0  0.79600  0.21300  0.45200  1.0000
  H   H12       1.0  0.00000  0.73600  0.47600  1.0000
  H   H13       1.0  0.32700  0.17600  0.57400  1.0000
  H   H14       1.0  0.67300  0.17600  0.57400  1.0000
  H   H15       1.0  0.00000  0.84200  0.61200  1.0000
  H   H16       1.0  0.12000  0.00096  0.76600  1.0000
  H   H17       1.0  0.88000  0.00096  0.76600  1.0000
  H   H18       1.0  0.24900  0.63900  0.78000  1.0000
  H   H19       1.0  0.75100  0.63900  0.78000  1.0000
  H   H20       1.0  0.32400  0.38800  0.79000  1.0000
  H   H21       1.0  0.67600  0.38800  0.79000  1.0000
  H   H22       1.0  0.29600  0.78700  0.95200  1.0000
  H   H23       1.0  0.70400  0.78700  0.95200  1.0000
  H   H24       1.0  0.50000  0.26400  0.97600  1.0000
  K   K1        1.0  0.50000  0.63100  0.49100  1.0000
  K   K2        1.0  0.00000  0.36900  0.99100  1.0000
  Mg  Mg1       1.0  0.50000  0.61300  0.14400  1.0000
  Mg  Mg2       1.0  0.00000  0.38700  0.64400  1.0000
  O   O1        1.0  0.26900  0.71900  0.03450  1.0000
  O   O2        1.0  0.73100  0.71900  0.03450  1.0000
  O   O3        1.0  0.50000  0.29900  0.06600  1.0000
  O   O4        1.0  0.00000  0.98600  0.12900  1.0000
  O   O5        1.0  0.50000  0.93600  0.22300  1.0000
  O   O6        1.0  0.29500  0.51800  0.27100  1.0000
  O   O7        1.0  0.70500  0.51800  0.27100  1.0000
  O   O8        1.0  0.18800  0.11700  0.31700  1.0000
  O   O9        1.0  0.81200  0.11700  0.31700  1.0000
  O   O10       1.0  0.00000  0.76100  0.32800  1.0000
  O   O11       1.0  0.23100  0.28100  0.53500  1.0000
  O   O12       1.0  0.76900  0.28100  0.53500  1.0000
  O   O13       1.0  0.00000  0.70100  0.56600  1.0000
  O   O14       1.0  0.50000  0.01420  0.62900  1.0000
  O   O15       1.0  0.00000  0.06440  0.72300  1.0000
  O   O16       1.0  0.20500  0.48200  0.77100  1.0000
  O   O17       1.0  0.79500  0.48200  0.77100  1.0000
  O   O18       1.0  0.31200  0.88300  0.81700  1.0000
  O   O19       1.0  0.68800  0.88300  0.81700  1.0000
  O   O20       1.0  0.50000  0.23900  0.82800  1.0000
  P   P1        1.0  0.00000  0.99700  0.27100  1.0000
  P   P2        1.0  0.50000  0.00310  0.77100  1.0000
