data_image0
_chemical_formula_structural       Fe4O4Pd4Te4
_chemical_formula_sum              "Fe4 O4 Pd4 Te4"
_cell_length_a       5.90902
_cell_length_b       7.97082
_cell_length_c       5.8515
_cell_angle_alpha    90
_cell_angle_beta     90
_cell_angle_gamma    90

_space_group_name_H-M_alt    "P 1"
_space_group_IT_number       1

loop_
  _space_group_symop_operation_xyz
  'x, y, z'

loop_
  _atom_site_type_symbol
  _atom_site_label
  _atom_site_symmetry_multiplicity
  _atom_site_fract_x
  _atom_site_fract_y
  _atom_site_fract_z
  _atom_site_occupancy
  Fe  Fe1       1.0  0.25200  0.25200  0.00092  1.0000
  Fe  Fe2       1.0  0.74800  0.75200  0.49900  1.0000
  Fe  Fe3       1.0  0.24800  0.74800  0.50100  1.0000
  Fe  Fe4       1.0  0.75200  0.24800  0.99900  1.0000
  O   O1        1.0  0.50300  0.25000  0.22300  1.0000
  O   O2        1.0  0.49700  0.75000  0.27700  1.0000
  O   O3        1.0  0.99700  0.75000  0.72300  1.0000
  O   O4        1.0  0.00289  0.25000  0.77700  1.0000
  Pd  Pd1       1.0  0.74800  0.75000  0.00034  1.0000
  Pd  Pd2       1.0  0.25200  0.25000  0.50000  1.0000
  Pd  Pd3       1.0  0.75200  0.25000  0.50000  1.0000
  Pd  Pd4       1.0  0.24800  0.75000  0.00000  1.0000
  Te  Te1       1.0  0.99900  0.50000  0.25000  1.0000
  Te  Te2       1.0  0.00084  0.00000  0.25000  1.0000
  Te  Te3       1.0  0.50100  0.50000  0.75000  1.0000
  Te  Te4       1.0  0.49900  0.00000  0.75000  1.0000
