data_image0
_chemical_formula_structural       Be2Cl30K6Zr12
_chemical_formula_sum              "Be2 Cl30 K6 Zr12"
_cell_length_a       10.0255
_cell_length_b       10.0255
_cell_length_c       14.152
_cell_angle_alpha    92.13
_cell_angle_beta     92.13
_cell_angle_gamma    69.5849

_space_group_name_H-M_alt    "P 1"
_space_group_IT_number       1

loop_
  _space_group_symop_operation_xyz
  'x, y, z'

loop_
  _atom_site_type_symbol
  _atom_site_label
  _atom_site_symmetry_multiplicity
  _atom_site_fract_x
  _atom_site_fract_y
  _atom_site_fract_z
  _atom_site_occupancy
  Be  Be1       1.0  0.50000  0.00000  0.00000  1.0000
  Be  Be2       1.0  0.00000  0.50000  0.50000  1.0000
  Cl  Cl1       1.0  0.00000  0.00000  0.00000  1.0000
  Cl  Cl2       1.0  0.36500  0.38600  0.04120  1.0000
  Cl  Cl3       1.0  0.84400  0.77700  0.10100  1.0000
  Cl  Cl4       1.0  0.32300  0.77700  0.10400  1.0000
  Cl  Cl5       1.0  0.19100  0.15900  0.14700  1.0000
  Cl  Cl6       1.0  0.71200  0.15900  0.15200  1.0000
  Cl  Cl7       1.0  0.67000  0.57400  0.21000  1.0000
  Cl  Cl8       1.0  0.04930  0.48300  0.24600  1.0000
  Cl  Cl9       1.0  0.51700  0.95100  0.25400  1.0000
  Cl  Cl10      1.0  0.42600  0.33000  0.29000  1.0000
  Cl  Cl11      1.0  0.84100  0.28800  0.34800  1.0000
  Cl  Cl12      1.0  0.84100  0.80900  0.35300  1.0000
  Cl  Cl13      1.0  0.22300  0.67700  0.39600  1.0000
  Cl  Cl14      1.0  0.22300  0.15600  0.39900  1.0000
  Cl  Cl15      1.0  0.61400  0.63500  0.45900  1.0000
  Cl  Cl16      1.0  0.00000  0.00000  0.50000  1.0000
  Cl  Cl17      1.0  0.38600  0.36500  0.54100  1.0000
  Cl  Cl18      1.0  0.77700  0.84400  0.60100  1.0000
  Cl  Cl19      1.0  0.77700  0.32300  0.60400  1.0000
  Cl  Cl20      1.0  0.15900  0.19100  0.64700  1.0000
  Cl  Cl21      1.0  0.15900  0.71200  0.65200  1.0000
  Cl  Cl22      1.0  0.57400  0.67000  0.71000  1.0000
  Cl  Cl23      1.0  0.48300  0.04930  0.74600  1.0000
  Cl  Cl24      1.0  0.95100  0.51700  0.75400  1.0000
  Cl  Cl25      1.0  0.33000  0.42600  0.79000  1.0000
  Cl  Cl26      1.0  0.28800  0.84100  0.84800  1.0000
  Cl  Cl27      1.0  0.80900  0.84100  0.85300  1.0000
  Cl  Cl28      1.0  0.67700  0.22300  0.89600  1.0000
  Cl  Cl29      1.0  0.15600  0.22300  0.89900  1.0000
  Cl  Cl30      1.0  0.63500  0.61400  0.95900  1.0000
  K   K1        1.0  0.86800  0.35800  0.06740  1.0000
  K   K2        1.0  0.06230  0.93800  0.25000  1.0000
  K   K3        1.0  0.64200  0.13200  0.43300  1.0000
  K   K4        1.0  0.35800  0.86800  0.56700  1.0000
  K   K5        1.0  0.93800  0.06230  0.75000  1.0000
  K   K6        1.0  0.13200  0.64200  0.93300  1.0000
  Zr  Zr1       1.0  0.73100  0.00167  0.00110  1.0000
  Zr  Zr2       1.0  0.57500  0.80100  0.09790  1.0000
  Zr  Zr3       1.0  0.45300  0.15300  0.13500  1.0000
  Zr  Zr4       1.0  0.84700  0.54700  0.36500  1.0000
  Zr  Zr5       1.0  0.19900  0.42500  0.40200  1.0000
  Zr  Zr6       1.0  0.99800  0.26900  0.49900  1.0000
  Zr  Zr7       1.0  0.00167  0.73100  0.50100  1.0000
  Zr  Zr8       1.0  0.80100  0.57500  0.59800  1.0000
  Zr  Zr9       1.0  0.15300  0.45300  0.63500  1.0000
  Zr  Zr10      1.0  0.54700  0.84700  0.86500  1.0000
  Zr  Zr11      1.0  0.42500  0.19900  0.90200  1.0000
  Zr  Zr12      1.0  0.26900  0.99800  0.99900  1.0000
