data_image0
_chemical_formula_structural       Eu4H4Mo6O34Se4
_chemical_formula_sum              "Eu4 H4 Mo6 O34 Se4"
_cell_length_a       6.66061
_cell_length_b       7.23684
_cell_length_c       14.3849
_cell_angle_alpha    90
_cell_angle_beta     100.557
_cell_angle_gamma    90

_space_group_name_H-M_alt    "P 1"
_space_group_IT_number       1

loop_
  _space_group_symop_operation_xyz
  'x, y, z'

loop_
  _atom_site_type_symbol
  _atom_site_label
  _atom_site_symmetry_multiplicity
  _atom_site_fract_x
  _atom_site_fract_y
  _atom_site_fract_z
  _atom_site_occupancy
  Eu  Eu1       1.0  0.24400  0.75000  0.11000  1.0000
  Eu  Eu2       1.0  0.38400  0.25000  0.45900  1.0000
  Eu  Eu3       1.0  0.61600  0.75000  0.54100  1.0000
  Eu  Eu4       1.0  0.75600  0.25000  0.89000  1.0000
  H   H1        1.0  0.73600  0.64200  0.34900  1.0000
  H   H2        1.0  0.73600  0.85800  0.34900  1.0000
  H   H3        1.0  0.26400  0.14200  0.65100  1.0000
  H   H4        1.0  0.26400  0.35800  0.65100  1.0000
  Mo  Mo1       1.0  0.78200  0.50500  0.14200  1.0000
  Mo  Mo2       1.0  0.78200  0.99500  0.14200  1.0000
  Mo  Mo3       1.0  0.87900  0.25000  0.34100  1.0000
  Mo  Mo4       1.0  0.12100  0.75000  0.65900  1.0000
  Mo  Mo5       1.0  0.21800  0.00473  0.85800  1.0000
  Mo  Mo6       1.0  0.21800  0.49500  0.85800  1.0000
  O   O1        1.0  0.72600  0.04810  0.02180  1.0000
  O   O2        1.0  0.72600  0.45200  0.02180  1.0000
  O   O3        1.0  0.10600  0.06220  0.14000  1.0000
  O   O4        1.0  0.10600  0.43800  0.14000  1.0000
  O   O5        1.0  0.89600  0.75000  0.14000  1.0000
  O   O6        1.0  0.54400  0.56600  0.16600  1.0000
  O   O7        1.0  0.54400  0.93400  0.16600  1.0000
  O   O8        1.0  0.77700  0.25000  0.18400  1.0000
  O   O9        1.0  0.29500  0.75000  0.28000  1.0000
  O   O10       1.0  0.89400  0.50400  0.30000  1.0000
  O   O11       1.0  0.89400  0.99600  0.30000  1.0000
  O   O12       1.0  0.19100  0.25000  0.30100  1.0000
  O   O13       1.0  0.62200  0.25000  0.35400  1.0000
  O   O14       1.0  0.67800  0.75000  0.37800  1.0000
  O   O15       1.0  0.31000  0.57200  0.44700  1.0000
  O   O16       1.0  0.31000  0.92800  0.44700  1.0000
  O   O17       1.0  0.01690  0.25000  0.45700  1.0000
  O   O18       1.0  0.98300  0.75000  0.54300  1.0000
  O   O19       1.0  0.69000  0.07210  0.55300  1.0000
  O   O20       1.0  0.69000  0.42800  0.55300  1.0000
  O   O21       1.0  0.32200  0.25000  0.62200  1.0000
  O   O22       1.0  0.37800  0.75000  0.64600  1.0000
  O   O23       1.0  0.80900  0.75000  0.69900  1.0000
  O   O24       1.0  0.10600  0.00360  0.70000  1.0000
  O   O25       1.0  0.10600  0.49600  0.70000  1.0000
  O   O26       1.0  0.70500  0.25000  0.72000  1.0000
  O   O27       1.0  0.22300  0.75000  0.81600  1.0000
  O   O28       1.0  0.45600  0.06600  0.83400  1.0000
  O   O29       1.0  0.45600  0.43400  0.83400  1.0000
  O   O30       1.0  0.10400  0.25000  0.86000  1.0000
  O   O31       1.0  0.89400  0.56200  0.86000  1.0000
  O   O32       1.0  0.89400  0.93800  0.86000  1.0000
  O   O33       1.0  0.27400  0.54800  0.97800  1.0000
  O   O34       1.0  0.27400  0.95200  0.97800  1.0000
  Se  Se1       1.0  0.24700  0.25000  0.18900  1.0000
  Se  Se2       1.0  0.20700  0.75000  0.38000  1.0000
  Se  Se3       1.0  0.79300  0.25000  0.62000  1.0000
  Se  Se4       1.0  0.75300  0.75000  0.81100  1.0000
