data_image0
_chemical_formula_structural       Nb12O36Pr4
_chemical_formula_sum              "Nb12 O36 Pr4"
_cell_length_a       5.39321
_cell_length_b       7.63913
_cell_length_c       16.4627
_cell_angle_alpha    90.0002
_cell_angle_beta     92.018
_cell_angle_gamma    89.9993

_space_group_name_H-M_alt    "P 1"
_space_group_IT_number       1

loop_
  _space_group_symop_operation_xyz
  'x, y, z'

loop_
  _atom_site_type_symbol
  _atom_site_label
  _atom_site_symmetry_multiplicity
  _atom_site_fract_x
  _atom_site_fract_y
  _atom_site_fract_z
  _atom_site_occupancy
  Nb  Nb1       1.0  0.47300  0.98400  0.10100  1.0000
  Nb  Nb2       1.0  0.47900  0.50100  0.10100  1.0000
  Nb  Nb3       1.0  0.00890  0.52900  0.24900  1.0000
  Nb  Nb4       1.0  0.99100  0.02920  0.25100  1.0000
  Nb  Nb5       1.0  0.52100  0.00146  0.39900  1.0000
  Nb  Nb6       1.0  0.52700  0.48400  0.39900  1.0000
  Nb  Nb7       1.0  0.47300  0.51600  0.60100  1.0000
  Nb  Nb8       1.0  0.47900  0.99900  0.60100  1.0000
  Nb  Nb9       1.0  0.00891  0.97100  0.74900  1.0000
  Nb  Nb10      1.0  0.99100  0.47100  0.75100  1.0000
  Nb  Nb11      1.0  0.52100  0.49900  0.89900  1.0000
  Nb  Nb12      1.0  0.52700  0.01570  0.89900  1.0000
  O   O1        1.0  0.73600  0.96200  0.01800  1.0000
  O   O2        1.0  0.73600  0.54000  0.01820  1.0000
  O   O3        1.0  0.34500  0.74900  0.08060  1.0000
  O   O4        1.0  0.56100  0.25000  0.09660  1.0000
  O   O5        1.0  0.14400  0.44300  0.14200  1.0000
  O   O6        1.0  0.14900  0.06330  0.14300  1.0000
  O   O7        1.0  0.67900  0.94500  0.19100  1.0000
  O   O8        1.0  0.67500  0.55900  0.19200  1.0000
  O   O9        1.0  0.10600  0.75700  0.24000  1.0000
  O   O10       1.0  0.89400  0.25700  0.26000  1.0000
  O   O11       1.0  0.32500  0.05910  0.30800  1.0000
  O   O12       1.0  0.32100  0.44500  0.30900  1.0000
  O   O13       1.0  0.85100  0.56300  0.35700  1.0000
  O   O14       1.0  0.85600  0.94300  0.35800  1.0000
  O   O15       1.0  0.43900  0.75000  0.40300  1.0000
  O   O16       1.0  0.65500  0.24900  0.41900  1.0000
  O   O17       1.0  0.26400  0.03960  0.48200  1.0000
  O   O18       1.0  0.26400  0.46200  0.48200  1.0000
  O   O19       1.0  0.73600  0.53800  0.51800  1.0000
  O   O20       1.0  0.73600  0.96000  0.51800  1.0000
  O   O21       1.0  0.34500  0.75100  0.58100  1.0000
  O   O22       1.0  0.56100  0.25000  0.59700  1.0000
  O   O23       1.0  0.14400  0.05670  0.64200  1.0000
  O   O24       1.0  0.14900  0.43700  0.64300  1.0000
  O   O25       1.0  0.67900  0.55500  0.69100  1.0000
  O   O26       1.0  0.67500  0.94100  0.69200  1.0000
  O   O27       1.0  0.10600  0.74300  0.74000  1.0000
  O   O28       1.0  0.89400  0.24300  0.76000  1.0000
  O   O29       1.0  0.32500  0.44100  0.80800  1.0000
  O   O30       1.0  0.32100  0.05510  0.80900  1.0000
  O   O31       1.0  0.85100  0.93700  0.85700  1.0000
  O   O32       1.0  0.85600  0.55700  0.85800  1.0000
  O   O33       1.0  0.43900  0.75000  0.90300  1.0000
  O   O34       1.0  0.65500  0.25100  0.91900  1.0000
  O   O35       1.0  0.26400  0.46000  0.98200  1.0000
  O   O36       1.0  0.26400  0.03830  0.98200  1.0000
  Pr  Pr1       1.0  0.96700  0.25000  0.03180  1.0000
  Pr  Pr2       1.0  0.03250  0.75000  0.46800  1.0000
  Pr  Pr3       1.0  0.96700  0.25000  0.53200  1.0000
  Pr  Pr4       1.0  0.03250  0.75000  0.96800  1.0000
