data_image0
_chemical_formula_structural       Cl16H10N12O4P10
_chemical_formula_sum              "Cl16 H10 N12 O4 P10"
_cell_length_a       7.8294
_cell_length_b       11.0014
_cell_length_c       11.4793
_cell_angle_alpha    99.6904
_cell_angle_beta     100.547
_cell_angle_gamma    100.578

_space_group_name_H-M_alt    "P 1"
_space_group_IT_number       1

loop_
  _space_group_symop_operation_xyz
  'x, y, z'

loop_
  _atom_site_type_symbol
  _atom_site_label
  _atom_site_symmetry_multiplicity
  _atom_site_fract_x
  _atom_site_fract_y
  _atom_site_fract_z
  _atom_site_occupancy
  Cl  Cl1       1.0  0.21600  0.95900  0.00847  1.0000
  Cl  Cl2       1.0  0.92300  0.73200  0.02770  1.0000
  Cl  Cl3       1.0  0.53300  0.77700  0.13100  1.0000
  Cl  Cl4       1.0  0.24100  0.54200  0.20600  1.0000
  Cl  Cl5       1.0  0.49200  0.28000  0.22400  1.0000
  Cl  Cl6       1.0  0.76300  0.53500  0.25800  1.0000
  Cl  Cl7       1.0  0.14700  0.79100  0.33500  1.0000
  Cl  Cl8       1.0  0.53000  0.00731  0.33600  1.0000
  Cl  Cl9       1.0  0.47000  0.99300  0.66400  1.0000
  Cl  Cl10      1.0  0.85300  0.20900  0.66500  1.0000
  Cl  Cl11      1.0  0.23700  0.46500  0.74200  1.0000
  Cl  Cl12      1.0  0.50800  0.72000  0.77600  1.0000
  Cl  Cl13      1.0  0.75900  0.45800  0.79400  1.0000
  Cl  Cl14      1.0  0.46700  0.22300  0.86900  1.0000
  Cl  Cl15      1.0  0.07710  0.26800  0.97200  1.0000
  Cl  Cl16      1.0  0.78400  0.04150  0.99200  1.0000
  H   H1        1.0  0.94800  0.03010  0.35800  1.0000
  H   H2        1.0  0.83400  0.33900  0.42500  1.0000
  H   H3        1.0  0.23100  0.43500  0.44000  1.0000
  H   H4        1.0  0.31200  0.30900  0.48500  1.0000
  H   H5        1.0  0.06700  0.12800  0.49500  1.0000
  H   H6        1.0  0.93300  0.87200  0.50500  1.0000
  H   H7        1.0  0.68800  0.69100  0.51500  1.0000
  H   H8        1.0  0.76900  0.56500  0.56000  1.0000
  H   H9        1.0  0.16600  0.66100  0.57500  1.0000
  H   H10       1.0  0.05220  0.97000  0.64200  1.0000
  N   N1        1.0  0.79700  0.30500  0.10100  1.0000
  N   N2        1.0  0.05660  0.19700  0.20500  1.0000
  N   N3        1.0  0.87200  0.31400  0.34300  1.0000
  N   N4        1.0  0.51400  0.74700  0.38200  1.0000
  N   N5        1.0  0.02630  0.11700  0.40300  1.0000
  N   N6        1.0  0.21100  0.34000  0.43600  1.0000
  N   N7        1.0  0.78900  0.66000  0.56400  1.0000
  N   N8        1.0  0.97400  0.88300  0.59700  1.0000
  N   N9        1.0  0.48600  0.25300  0.61800  1.0000
  N   N10       1.0  0.12800  0.68600  0.65700  1.0000
  N   N11       1.0  0.94300  0.80300  0.79500  1.0000
  N   N12       1.0  0.20300  0.69500  0.89900  1.0000
  O   O1        1.0  0.81200  0.87000  0.34700  1.0000
  O   O2        1.0  0.27300  0.61000  0.46400  1.0000
  O   O3        1.0  0.72700  0.39000  0.53600  1.0000
  O   O4        1.0  0.18800  0.13000  0.65300  1.0000
  P   P1        1.0  0.93100  0.21100  0.08700  1.0000
  P   P2        1.0  0.74900  0.34900  0.22600  1.0000
  P   P3        1.0  0.61300  0.84200  0.31200  1.0000
  P   P4        1.0  0.04620  0.23900  0.34300  1.0000
  P   P5        1.0  0.31300  0.67400  0.36400  1.0000
  P   P6        1.0  0.68700  0.32600  0.63600  1.0000
  P   P7        1.0  0.95400  0.76100  0.65700  1.0000
  P   P8        1.0  0.38700  0.15800  0.68800  1.0000
  P   P9        1.0  0.25100  0.65100  0.77400  1.0000
  P   P10       1.0  0.06950  0.78900  0.91300  1.0000
