data_image0
_chemical_formula_structural       B6Be4K2O14
_chemical_formula_sum              "B6 Be4 K2 O14"
_cell_length_a       6.41321
_cell_length_b       6.86077
_cell_length_c       6.86077
_cell_angle_alpha    98.15
_cell_angle_beta     108.428
_cell_angle_gamma    71.5724

_space_group_name_H-M_alt    "P 1"
_space_group_IT_number       1

loop_
  _space_group_symop_operation_xyz
  'x, y, z'

loop_
  _atom_site_type_symbol
  _atom_site_label
  _atom_site_symmetry_multiplicity
  _atom_site_fract_x
  _atom_site_fract_y
  _atom_site_fract_z
  _atom_site_occupancy
  B   B1        1.0  0.68400  0.73400  0.22900  1.0000
  B   B2        1.0  0.18400  0.77100  0.26600  1.0000
  B   B3        1.0  0.75000  0.45100  0.45100  1.0000
  B   B4        1.0  0.25000  0.54900  0.54900  1.0000
  B   B5        1.0  0.81600  0.22900  0.73400  1.0000
  B   B6        1.0  0.31600  0.26600  0.77100  1.0000
  Be  Be1       1.0  0.65800  0.36400  0.05720  1.0000
  Be  Be2       1.0  0.84200  0.05720  0.36400  1.0000
  Be  Be3       1.0  0.15800  0.94300  0.63600  1.0000
  Be  Be4       1.0  0.34200  0.63600  0.94300  1.0000
  K   K1        1.0  0.25000  0.17900  0.17900  1.0000
  K   K2        1.0  0.75000  0.82100  0.82100  1.0000
  O   O1        1.0  0.62200  0.61200  0.05450  1.0000
  O   O2        1.0  0.19300  0.78200  0.07640  1.0000
  O   O3        1.0  0.69300  0.92400  0.21800  1.0000
  O   O4        1.0  0.75000  0.29900  0.29900  1.0000
  O   O5        1.0  0.23600  0.57900  0.34900  1.0000
  O   O6        1.0  0.12200  0.94500  0.38800  1.0000
  O   O7        1.0  0.73600  0.65100  0.42100  1.0000
  O   O8        1.0  0.26400  0.34900  0.57900  1.0000
  O   O9        1.0  0.87800  0.05450  0.61200  1.0000
  O   O10       1.0  0.76400  0.42100  0.65100  1.0000
  O   O11       1.0  0.25000  0.70100  0.70100  1.0000
  O   O12       1.0  0.30700  0.07640  0.78200  1.0000
  O   O13       1.0  0.80700  0.21800  0.92400  1.0000
  O   O14       1.0  0.37800  0.38800  0.94500  1.0000
