data_image0
_chemical_formula_structural       C12Cl4F24I4O8
_chemical_formula_sum              "C12 Cl4 F24 I4 O8"
_cell_length_a       10.3945
_cell_length_b       7.4472
_cell_length_c       8.99132
_cell_angle_alpha    90
_cell_angle_beta     100.969
_cell_angle_gamma    90

_space_group_name_H-M_alt    "P 1"
_space_group_IT_number       1

loop_
  _space_group_symop_operation_xyz
  'x, y, z'

loop_
  _atom_site_type_symbol
  _atom_site_label
  _atom_site_symmetry_multiplicity
  _atom_site_fract_x
  _atom_site_fract_y
  _atom_site_fract_z
  _atom_site_occupancy
  C   C1        1.0  0.13300  0.25400  0.06940  1.0000
  C   C2        1.0  0.70600  0.16100  0.06960  1.0000
  C   C3        1.0  0.77600  0.31800  0.16300  1.0000
  C   C4        1.0  0.22400  0.81800  0.33700  1.0000
  C   C5        1.0  0.29400  0.66100  0.43000  1.0000
  C   C6        1.0  0.86700  0.75400  0.43100  1.0000
  C   C7        1.0  0.13300  0.24600  0.56900  1.0000
  C   C8        1.0  0.70600  0.33900  0.57000  1.0000
  C   C9        1.0  0.77600  0.18200  0.66300  1.0000
  C   C10       1.0  0.22400  0.68200  0.83700  1.0000
  C   C11       1.0  0.29400  0.83900  0.93000  1.0000
  C   C12       1.0  0.86700  0.74600  0.93100  1.0000
  Cl  Cl1       1.0  0.41200  0.46900  0.18200  1.0000
  Cl  Cl2       1.0  0.58800  0.96900  0.31800  1.0000
  Cl  Cl3       1.0  0.41200  0.03100  0.68200  1.0000
  Cl  Cl4       1.0  0.58800  0.53100  0.81800  1.0000
  F   F1        1.0  0.93700  0.72600  0.07060  1.0000
  F   F2        1.0  0.87900  0.37500  0.10500  1.0000
  F   F3        1.0  0.08370  0.11800  0.13800  1.0000
  F   F4        1.0  0.13000  0.40500  0.14900  1.0000
  F   F5        1.0  0.69600  0.46000  0.16600  1.0000
  F   F6        1.0  0.18100  0.76400  0.19200  1.0000
  F   F7        1.0  0.81900  0.26400  0.30800  1.0000
  F   F8        1.0  0.30400  0.96000  0.33400  1.0000
  F   F9        1.0  0.87000  0.90500  0.35100  1.0000
  F   F10       1.0  0.91600  0.61800  0.36200  1.0000
  F   F11       1.0  0.12100  0.87500  0.39500  1.0000
  F   F12       1.0  0.06320  0.22600  0.42900  1.0000
  F   F13       1.0  0.93700  0.77400  0.57100  1.0000
  F   F14       1.0  0.87900  0.12500  0.60500  1.0000
  F   F15       1.0  0.08370  0.38200  0.63800  1.0000
  F   F16       1.0  0.13000  0.09520  0.64900  1.0000
  F   F17       1.0  0.69600  0.04030  0.66600  1.0000
  F   F18       1.0  0.18100  0.73600  0.69200  1.0000
  F   F19       1.0  0.81900  0.23600  0.80800  1.0000
  F   F20       1.0  0.30400  0.54000  0.83400  1.0000
  F   F21       1.0  0.87000  0.59500  0.85100  1.0000
  F   F22       1.0  0.91600  0.88200  0.86200  1.0000
  F   F23       1.0  0.12100  0.62500  0.89500  1.0000
  F   F24       1.0  0.06320  0.27400  0.92900  1.0000
  I   I1        1.0  0.33900  0.19500  0.05110  1.0000
  I   I2        1.0  0.66100  0.69500  0.44900  1.0000
  I   I3        1.0  0.33900  0.30500  0.55100  1.0000
  I   I4        1.0  0.66100  0.80500  0.94900  1.0000
  O   O1        1.0  0.58800  0.16900  0.01160  1.0000
  O   O2        1.0  0.78400  0.02930  0.06340  1.0000
  O   O3        1.0  0.21600  0.52900  0.43700  1.0000
  O   O4        1.0  0.41200  0.66900  0.48800  1.0000
  O   O5        1.0  0.58800  0.33100  0.51200  1.0000
  O   O6        1.0  0.78400  0.47100  0.56300  1.0000
  O   O7        1.0  0.21600  0.97100  0.93700  1.0000
  O   O8        1.0  0.41200  0.83100  0.98800  1.0000
