data_image0
_chemical_formula_structural       K8Mo8O32Th2
_chemical_formula_sum              "K8 Mo8 O32 Th2"
_cell_length_a       10.4329
_cell_length_b       10.4329
_cell_length_c       10.4329
_cell_angle_alpha    102.591
_cell_angle_beta     113.017
_cell_angle_gamma    113.017

_space_group_name_H-M_alt    "P 1"
_space_group_IT_number       1

loop_
  _space_group_symop_operation_xyz
  'x, y, z'

loop_
  _atom_site_type_symbol
  _atom_site_label
  _atom_site_symmetry_multiplicity
  _atom_site_fract_x
  _atom_site_fract_y
  _atom_site_fract_z
  _atom_site_occupancy
  K   K1        1.0  0.08800  0.23700  0.13600  1.0000
  K   K2        1.0  0.89900  0.85100  0.26300  1.0000
  K   K3        1.0  0.58800  0.95200  0.35100  1.0000
  K   K4        1.0  0.60100  0.36400  0.45200  1.0000
  K   K5        1.0  0.39900  0.63600  0.54800  1.0000
  K   K6        1.0  0.41200  0.04770  0.64900  1.0000
  K   K7        1.0  0.10100  0.14900  0.73700  1.0000
  K   K8        1.0  0.91200  0.76300  0.86400  1.0000
  Mo  Mo1       1.0  0.33500  0.04440  0.02610  1.0000
  Mo  Mo2       1.0  0.48200  0.52600  0.19200  1.0000
  Mo  Mo3       1.0  0.16500  0.69200  0.21000  1.0000
  Mo  Mo4       1.0  0.98200  0.29000  0.45600  1.0000
  Mo  Mo5       1.0  0.01830  0.71000  0.54400  1.0000
  Mo  Mo6       1.0  0.83500  0.30800  0.79000  1.0000
  Mo  Mo7       1.0  0.51800  0.47400  0.80800  1.0000
  Mo  Mo8       1.0  0.66500  0.95600  0.97400  1.0000
  O   O1        1.0  0.80500  0.89300  0.00919  1.0000
  O   O2        1.0  0.66500  0.52900  0.00920  1.0000
  O   O3        1.0  0.52000  0.86400  0.02910  1.0000
  O   O4        1.0  0.79400  0.16400  0.09280  1.0000
  O   O5        1.0  0.29400  0.70100  0.13000  1.0000
  O   O6        1.0  0.06620  0.78900  0.15000  1.0000
  O   O7        1.0  0.01990  0.49100  0.15600  1.0000
  O   O8        1.0  0.57100  0.40700  0.20100  1.0000
  O   O9        1.0  0.43400  0.08370  0.22200  1.0000
  O   O10       1.0  0.63900  0.72200  0.28900  1.0000
  O   O11       1.0  0.38400  0.49100  0.29600  1.0000
  O   O12       1.0  0.92900  0.63000  0.33600  1.0000
  O   O13       1.0  0.83500  0.34400  0.36400  1.0000
  O   O14       1.0  0.88400  0.08790  0.39300  1.0000
  O   O15       1.0  0.30500  0.79600  0.41200  1.0000
  O   O16       1.0  0.13900  0.35000  0.41600  1.0000
  O   O17       1.0  0.86100  0.65000  0.58400  1.0000
  O   O18       1.0  0.69500  0.20400  0.58800  1.0000
  O   O19       1.0  0.11600  0.91200  0.60700  1.0000
  O   O20       1.0  0.16500  0.65600  0.63600  1.0000
  O   O21       1.0  0.07070  0.37000  0.66400  1.0000
  O   O22       1.0  0.61600  0.50900  0.70400  1.0000
  O   O23       1.0  0.36100  0.27800  0.71100  1.0000
  O   O24       1.0  0.56600  0.91600  0.77800  1.0000
  O   O25       1.0  0.42900  0.59300  0.79900  1.0000
  O   O26       1.0  0.98000  0.50900  0.84400  1.0000
  O   O27       1.0  0.93400  0.21100  0.85000  1.0000
  O   O28       1.0  0.70600  0.29900  0.87000  1.0000
  O   O29       1.0  0.20600  0.83600  0.90700  1.0000
  O   O30       1.0  0.48000  0.13600  0.97100  1.0000
  O   O31       1.0  0.33500  0.47100  0.99100  1.0000
  O   O32       1.0  0.19500  0.10700  0.99100  1.0000
  Th  Th1       1.0  0.75000  0.37500  0.12500  1.0000
  Th  Th2       1.0  0.25000  0.62500  0.87500  1.0000
