data_image0
_chemical_formula_structural       K8Nd4P8S28
_chemical_formula_sum              "K8 Nd4 P8 S28"
_cell_length_a       9.13037
_cell_length_b       6.87338
_cell_length_c       20.0403
_cell_angle_alpha    90
_cell_angle_beta     97.0091
_cell_angle_gamma    90

_space_group_name_H-M_alt    "P 1"
_space_group_IT_number       1

loop_
  _space_group_symop_operation_xyz
  'x, y, z'

loop_
  _atom_site_type_symbol
  _atom_site_label
  _atom_site_symmetry_multiplicity
  _atom_site_fract_x
  _atom_site_fract_y
  _atom_site_fract_z
  _atom_site_occupancy
  K   K1        1.0  0.25700  0.49000  0.00920  1.0000
  K   K2        1.0  0.35200  0.97100  0.18900  1.0000
  K   K3        1.0  0.14800  0.47100  0.31100  1.0000
  K   K4        1.0  0.24300  0.99000  0.49100  1.0000
  K   K5        1.0  0.75700  0.01000  0.50900  1.0000
  K   K6        1.0  0.85200  0.52900  0.68900  1.0000
  K   K7        1.0  0.64800  0.02880  0.81100  1.0000
  K   K8        1.0  0.74300  0.51000  0.99100  1.0000
  Nd  Nd1       1.0  0.81100  0.03150  0.15000  1.0000
  Nd  Nd2       1.0  0.68900  0.53200  0.35000  1.0000
  Nd  Nd3       1.0  0.31100  0.46800  0.65000  1.0000
  Nd  Nd4       1.0  0.18900  0.96800  0.85000  1.0000
  P   P1        1.0  0.08390  0.99100  0.04490  1.0000
  P   P2        1.0  0.60000  0.48700  0.16900  1.0000
  P   P3        1.0  0.90000  0.98700  0.33100  1.0000
  P   P4        1.0  0.41600  0.49100  0.45500  1.0000
  P   P5        1.0  0.58400  0.50900  0.54500  1.0000
  P   P6        1.0  0.09990  0.01340  0.66900  1.0000
  P   P7        1.0  0.40000  0.51300  0.83100  1.0000
  P   P8        1.0  0.91600  0.00883  0.95500  1.0000
  S   S1        1.0  0.27700  0.96700  0.00669  1.0000
  S   S2        1.0  0.02600  0.75800  0.09870  1.0000
  S   S3        1.0  0.05540  0.23800  0.09900  1.0000
  S   S4        1.0  0.54500  0.25700  0.10700  1.0000
  S   S5        1.0  0.59600  0.72700  0.10900  1.0000
  S   S6        1.0  0.80400  0.42200  0.22100  1.0000
  S   S7        1.0  0.45500  0.51700  0.23900  1.0000
  S   S8        1.0  0.04530  0.01670  0.26100  1.0000
  S   S9        1.0  0.69600  0.92200  0.27900  1.0000
  S   S10       1.0  0.90400  0.22700  0.39100  1.0000
  S   S11       1.0  0.95500  0.75700  0.39300  1.0000
  S   S12       1.0  0.44500  0.73800  0.40100  1.0000
  S   S13       1.0  0.47400  0.25800  0.40100  1.0000
  S   S14       1.0  0.22300  0.46700  0.49300  1.0000
  S   S15       1.0  0.77700  0.53300  0.50700  1.0000
  S   S16       1.0  0.52600  0.74200  0.59900  1.0000
  S   S17       1.0  0.55500  0.26200  0.59900  1.0000
  S   S18       1.0  0.04460  0.24300  0.60700  1.0000
  S   S19       1.0  0.09600  0.77300  0.60900  1.0000
  S   S20       1.0  0.30400  0.07840  0.72100  1.0000
  S   S21       1.0  0.95500  0.98300  0.73900  1.0000
  S   S22       1.0  0.54500  0.48300  0.76100  1.0000
  S   S23       1.0  0.19600  0.57800  0.77900  1.0000
  S   S24       1.0  0.40400  0.27300  0.89100  1.0000
  S   S25       1.0  0.45500  0.74300  0.89300  1.0000
  S   S26       1.0  0.94500  0.76200  0.90100  1.0000
  S   S27       1.0  0.97400  0.24200  0.90100  1.0000
  S   S28       1.0  0.72300  0.03290  0.99300  1.0000
