data_image0
_chemical_formula_structural       Al4Ca4F8H10Na2O22P4
_chemical_formula_sum              "Al4 Ca4 F8 H10 Na2 O22 P4"
_cell_length_a       9.38311
_cell_length_b       10.5889
_cell_length_c       5.37385
_cell_angle_alpha    90
_cell_angle_beta     105.427
_cell_angle_gamma    90

_space_group_name_H-M_alt    "P 1"
_space_group_IT_number       1

loop_
  _space_group_symop_operation_xyz
  'x, y, z'

loop_
  _atom_site_type_symbol
  _atom_site_label
  _atom_site_symmetry_multiplicity
  _atom_site_fract_x
  _atom_site_fract_y
  _atom_site_fract_z
  _atom_site_occupancy
  Al  Al1       1.0  0.74000  0.59300  0.22100  1.0000
  Al  Al2       1.0  0.74000  0.90700  0.22100  1.0000
  Al  Al3       1.0  0.26000  0.09260  0.77900  1.0000
  Al  Al4       1.0  0.26000  0.40700  0.77900  1.0000
  Ca  Ca1       1.0  0.14600  0.58200  0.24500  1.0000
  Ca  Ca2       1.0  0.14600  0.91800  0.24500  1.0000
  Ca  Ca3       1.0  0.85400  0.08180  0.75500  1.0000
  Ca  Ca4       1.0  0.85400  0.41800  0.75500  1.0000
  F   F1        1.0  0.90500  0.52600  0.14600  1.0000
  F   F2        1.0  0.90500  0.97400  0.14600  1.0000
  F   F3        1.0  0.70800  0.06110  0.33900  1.0000
  F   F4        1.0  0.70800  0.43900  0.33900  1.0000
  F   F5        1.0  0.29200  0.56100  0.66100  1.0000
  F   F6        1.0  0.29200  0.93900  0.66100  1.0000
  F   F7        1.0  0.09460  0.02640  0.85400  1.0000
  F   F8        1.0  0.09460  0.47400  0.85400  1.0000
  H   H1        1.0  0.86500  0.75000  0.03790  1.0000
  H   H2        1.0  0.44000  0.52100  0.17800  1.0000
  H   H3        1.0  0.44000  0.97900  0.17800  1.0000
  H   H4        1.0  0.39600  0.12300  0.23100  1.0000
  H   H5        1.0  0.39600  0.37700  0.23100  1.0000
  H   H6        1.0  0.60400  0.62300  0.76900  1.0000
  H   H7        1.0  0.60400  0.87700  0.76900  1.0000
  H   H8        1.0  0.56000  0.02140  0.82200  1.0000
  H   H9        1.0  0.56000  0.47900  0.82200  1.0000
  H   H10       1.0  0.13500  0.25000  0.96200  1.0000
  Na  Na1       1.0  0.68700  0.25000  0.19900  1.0000
  Na  Na2       1.0  0.31300  0.75000  0.80100  1.0000
  O   O1        1.0  0.97400  0.25000  0.07330  1.0000
  O   O2        1.0  0.77400  0.75000  0.10000  1.0000
  O   O3        1.0  0.35600  0.04130  0.13700  1.0000
  O   O4        1.0  0.35600  0.45900  0.13700  1.0000
  O   O5        1.0  0.31900  0.75000  0.23900  1.0000
  O   O6        1.0  0.55300  0.63300  0.25700  1.0000
  O   O7        1.0  0.55300  0.86700  0.25700  1.0000
  O   O8        1.0  0.47100  0.25000  0.34500  1.0000
  O   O9        1.0  0.14800  0.13000  0.43900  1.0000
  O   O10       1.0  0.14800  0.37000  0.43900  1.0000
  O   O11       1.0  0.07190  0.75000  0.48300  1.0000
  O   O12       1.0  0.92800  0.25000  0.51700  1.0000
  O   O13       1.0  0.85200  0.63000  0.56100  1.0000
  O   O14       1.0  0.85200  0.87000  0.56100  1.0000
  O   O15       1.0  0.52900  0.75000  0.65500  1.0000
  O   O16       1.0  0.44700  0.13300  0.74300  1.0000
  O   O17       1.0  0.44700  0.36700  0.74300  1.0000
  O   O18       1.0  0.68100  0.25000  0.76100  1.0000
  O   O19       1.0  0.64400  0.54100  0.86300  1.0000
  O   O20       1.0  0.64400  0.95900  0.86300  1.0000
  O   O21       1.0  0.22600  0.25000  0.90000  1.0000
  O   O22       1.0  0.02600  0.75000  0.92700  1.0000
  P   P1        1.0  0.48800  0.75000  0.36000  1.0000
  P   P2        1.0  0.04710  0.25000  0.36700  1.0000
  P   P3        1.0  0.95300  0.75000  0.63300  1.0000
  P   P4        1.0  0.51200  0.25000  0.64000  1.0000
