data_image0
_chemical_formula_structural       As8Ba4O32Zn8
_chemical_formula_sum              "As8 Ba4 O32 Zn8"
_cell_length_a       8.81411
_cell_length_b       10.0148
_cell_length_c       9.32125
_cell_angle_alpha    90
_cell_angle_beta     91.4711
_cell_angle_gamma    90

_space_group_name_H-M_alt    "P 1"
_space_group_IT_number       1

loop_
  _space_group_symop_operation_xyz
  'x, y, z'

loop_
  _atom_site_type_symbol
  _atom_site_label
  _atom_site_symmetry_multiplicity
  _atom_site_fract_x
  _atom_site_fract_y
  _atom_site_fract_z
  _atom_site_occupancy
  As  As1       1.0  0.94700  0.20100  0.06410  1.0000
  As  As2       1.0  0.55900  0.91400  0.24600  1.0000
  As  As3       1.0  0.44100  0.41400  0.25400  1.0000
  As  As4       1.0  0.05330  0.70100  0.43600  1.0000
  As  As5       1.0  0.94700  0.29900  0.56400  1.0000
  As  As6       1.0  0.55900  0.58600  0.74600  1.0000
  As  As7       1.0  0.44100  0.08550  0.75400  1.0000
  As  As8       1.0  0.05330  0.79900  0.93600  1.0000
  Ba  Ba1       1.0  0.74800  0.58500  0.11400  1.0000
  Ba  Ba2       1.0  0.25200  0.08520  0.38600  1.0000
  Ba  Ba3       1.0  0.74800  0.91500  0.61400  1.0000
  Ba  Ba4       1.0  0.25200  0.41500  0.88600  1.0000
  O   O1        1.0  0.21700  0.86200  0.01050  1.0000
  O   O2        1.0  0.91000  0.80900  0.05730  1.0000
  O   O3        1.0  0.56400  0.80100  0.11000  1.0000
  O   O4        1.0  0.93500  0.36500  0.11600  1.0000
  O   O5        1.0  0.56000  0.37000  0.11800  1.0000
  O   O6        1.0  0.26300  0.42400  0.17500  1.0000
  O   O7        1.0  0.48600  0.06500  0.19100  1.0000
  O   O8        1.0  0.00498  0.10700  0.21000  1.0000
  O   O9        1.0  0.99500  0.60700  0.29000  1.0000
  O   O10       1.0  0.51400  0.56500  0.30900  1.0000
  O   O11       1.0  0.73700  0.92400  0.32500  1.0000
  O   O12       1.0  0.44000  0.87000  0.38200  1.0000
  O   O13       1.0  0.06540  0.86500  0.38400  1.0000
  O   O14       1.0  0.43600  0.30100  0.39000  1.0000
  O   O15       1.0  0.09000  0.30900  0.44300  1.0000
  O   O16       1.0  0.78300  0.36200  0.48900  1.0000
  O   O17       1.0  0.21700  0.63800  0.51100  1.0000
  O   O18       1.0  0.91000  0.69100  0.55700  1.0000
  O   O19       1.0  0.56400  0.69900  0.61000  1.0000
  O   O20       1.0  0.93500  0.13500  0.61600  1.0000
  O   O21       1.0  0.56000  0.13000  0.61800  1.0000
  O   O22       1.0  0.26300  0.07600  0.67500  1.0000
  O   O23       1.0  0.48600  0.43500  0.69100  1.0000
  O   O24       1.0  0.00498  0.39300  0.71000  1.0000
  O   O25       1.0  0.99500  0.89300  0.79000  1.0000
  O   O26       1.0  0.51400  0.93500  0.80900  1.0000
  O   O27       1.0  0.73700  0.57600  0.82500  1.0000
  O   O28       1.0  0.44000  0.63000  0.88200  1.0000
  O   O29       1.0  0.06540  0.63500  0.88400  1.0000
  O   O30       1.0  0.43600  0.19900  0.89000  1.0000
  O   O31       1.0  0.09000  0.19100  0.94300  1.0000
  O   O32       1.0  0.78300  0.13800  0.98900  1.0000
  Zn  Zn1       1.0  0.58300  0.18400  0.05390  1.0000
  Zn  Zn2       1.0  0.92800  0.92500  0.22200  1.0000
  Zn  Zn3       1.0  0.07180  0.42500  0.27800  1.0000
  Zn  Zn4       1.0  0.41700  0.68400  0.44600  1.0000
  Zn  Zn5       1.0  0.58300  0.31600  0.55400  1.0000
  Zn  Zn6       1.0  0.92800  0.57500  0.72200  1.0000
  Zn  Zn7       1.0  0.07180  0.07500  0.77800  1.0000
  Zn  Zn8       1.0  0.41700  0.81600  0.94600  1.0000
