data_image0
_chemical_formula_structural       I12O36Pr4
_chemical_formula_sum              "I12 O36 Pr4"
_cell_length_a       8.80266
_cell_length_b       5.84453
_cell_length_c       15.1387
_cell_angle_alpha    90
_cell_angle_beta     97.0146
_cell_angle_gamma    90

_space_group_name_H-M_alt    "P 1"
_space_group_IT_number       1

loop_
  _space_group_symop_operation_xyz
  'x, y, z'

loop_
  _atom_site_type_symbol
  _atom_site_label
  _atom_site_symmetry_multiplicity
  _atom_site_fract_x
  _atom_site_fract_y
  _atom_site_fract_z
  _atom_site_occupancy
  I   I1        1.0  0.66000  0.14400  0.02530  1.0000
  I   I2        1.0  0.22600  0.31100  0.15400  1.0000
  I   I3        1.0  0.61500  0.59300  0.20100  1.0000
  I   I4        1.0  0.88500  0.09320  0.29900  1.0000
  I   I5        1.0  0.27400  0.81100  0.34600  1.0000
  I   I6        1.0  0.84000  0.64400  0.47500  1.0000
  I   I7        1.0  0.16000  0.35600  0.52500  1.0000
  I   I8        1.0  0.72600  0.18900  0.65400  1.0000
  I   I9        1.0  0.11500  0.90700  0.70100  1.0000
  I   I10       1.0  0.38500  0.40700  0.79900  1.0000
  I   I11       1.0  0.77400  0.68900  0.84600  1.0000
  I   I12       1.0  0.34000  0.85600  0.97500  1.0000
  O   O1        1.0  0.14400  0.90900  0.00662  1.0000
  O   O2        1.0  0.13500  0.42300  0.04550  1.0000
  O   O3        1.0  0.41300  0.09380  0.05260  1.0000
  O   O4        1.0  0.44600  0.59400  0.11700  1.0000
  O   O5        1.0  0.71300  0.96700  0.12500  1.0000
  O   O6        1.0  0.76100  0.49100  0.13100  1.0000
  O   O7        1.0  0.07220  0.11000  0.17300  1.0000
  O   O8        1.0  0.14800  0.55400  0.21200  1.0000
  O   O9        1.0  0.58500  0.30500  0.24300  1.0000
  O   O10       1.0  0.91500  0.80500  0.25700  1.0000
  O   O11       1.0  0.35200  0.05390  0.28800  1.0000
  O   O12       1.0  0.42800  0.61000  0.32700  1.0000
  O   O13       1.0  0.73900  0.99100  0.36900  1.0000
  O   O14       1.0  0.78700  0.46700  0.37500  1.0000
  O   O15       1.0  0.05430  0.09390  0.38300  1.0000
  O   O16       1.0  0.08670  0.59400  0.44700  1.0000
  O   O17       1.0  0.36500  0.92300  0.45400  1.0000
  O   O18       1.0  0.35600  0.40900  0.49300  1.0000
  O   O19       1.0  0.64400  0.59100  0.50700  1.0000
  O   O20       1.0  0.63500  0.07730  0.54600  1.0000
  O   O21       1.0  0.91300  0.40600  0.55300  1.0000
  O   O22       1.0  0.94600  0.90600  0.61700  1.0000
  O   O23       1.0  0.21300  0.53300  0.62500  1.0000
  O   O24       1.0  0.26100  0.00904  0.63100  1.0000
  O   O25       1.0  0.57200  0.39000  0.67300  1.0000
  O   O26       1.0  0.64800  0.94600  0.71200  1.0000
  O   O27       1.0  0.08540  0.19500  0.74300  1.0000
  O   O28       1.0  0.41500  0.69500  0.75700  1.0000
  O   O29       1.0  0.85200  0.44600  0.78800  1.0000
  O   O30       1.0  0.92800  0.89000  0.82700  1.0000
  O   O31       1.0  0.23900  0.50900  0.86900  1.0000
  O   O32       1.0  0.28700  0.03320  0.87500  1.0000
  O   O33       1.0  0.55400  0.40600  0.88300  1.0000
  O   O34       1.0  0.58700  0.90600  0.94700  1.0000
  O   O35       1.0  0.86500  0.57700  0.95400  1.0000
  O   O36       1.0  0.85600  0.09130  0.99300  1.0000
  Pr  Pr1       1.0  0.96200  0.76100  0.09860  1.0000
  Pr  Pr2       1.0  0.53800  0.26100  0.40100  1.0000
  Pr  Pr3       1.0  0.46200  0.73900  0.59900  1.0000
  Pr  Pr4       1.0  0.03760  0.23900  0.90100  1.0000
