data_image0
_chemical_formula_structural       C4Cl4Cu2H16N24
_chemical_formula_sum              "C4 Cl4 Cu2 H16 N24"
_cell_length_a       6.45932
_cell_length_b       6.29806
_cell_length_c       12.1242
_cell_angle_alpha    90
_cell_angle_beta     94.9752
_cell_angle_gamma    90

_space_group_name_H-M_alt    "P 1"
_space_group_IT_number       1

loop_
  _space_group_symop_operation_xyz
  'x, y, z'

loop_
  _atom_site_type_symbol
  _atom_site_label
  _atom_site_symmetry_multiplicity
  _atom_site_fract_x
  _atom_site_fract_y
  _atom_site_fract_z
  _atom_site_occupancy
  C   C1        1.0  0.09750  0.86600  0.23700  1.0000
  C   C2        1.0  0.90300  0.36600  0.26300  1.0000
  C   C3        1.0  0.09750  0.63400  0.73700  1.0000
  C   C4        1.0  0.90300  0.13400  0.76300  1.0000
  Cl  Cl1       1.0  0.77700  0.71200  0.01460  1.0000
  Cl  Cl2       1.0  0.22300  0.21200  0.48500  1.0000
  Cl  Cl3       1.0  0.77700  0.78800  0.51500  1.0000
  Cl  Cl4       1.0  0.22300  0.28800  0.98500  1.0000
  Cu  Cu1       1.0  0.00000  0.00000  0.00000  1.0000
  Cu  Cu2       1.0  0.00000  0.50000  0.50000  1.0000
  H   H1        1.0  0.71400  0.37100  0.03780  1.0000
  H   H2        1.0  0.58500  0.15500  0.07700  1.0000
  H   H3        1.0  0.12300  0.33800  0.15200  1.0000
  H   H4        1.0  0.78500  0.85300  0.20800  1.0000
  H   H5        1.0  0.21500  0.35300  0.29200  1.0000
  H   H6        1.0  0.87700  0.83800  0.34800  1.0000
  H   H7        1.0  0.41500  0.65500  0.42300  1.0000
  H   H8        1.0  0.28600  0.87100  0.46200  1.0000
  H   H9        1.0  0.71400  0.12900  0.53800  1.0000
  H   H10       1.0  0.58500  0.34500  0.57700  1.0000
  H   H11       1.0  0.12300  0.16200  0.65200  1.0000
  H   H12       1.0  0.78500  0.64700  0.70800  1.0000
  H   H13       1.0  0.21500  0.14700  0.79200  1.0000
  H   H14       1.0  0.87700  0.66200  0.84800  1.0000
  H   H15       1.0  0.41500  0.84500  0.92300  1.0000
  H   H16       1.0  0.28600  0.62900  0.96200  1.0000
  N   N1        1.0  0.72000  0.24200  0.09110  1.0000
  N   N2        1.0  0.16100  0.91500  0.13700  1.0000
  N   N3        1.0  0.37100  0.89600  0.14400  1.0000
  N   N4        1.0  0.72800  0.32000  0.19800  1.0000
  N   N5        1.0  0.09490  0.37300  0.23200  1.0000
  N   N6        1.0  0.44100  0.84100  0.24200  1.0000
  N   N7        1.0  0.55900  0.34100  0.25800  1.0000
  N   N8        1.0  0.90500  0.87300  0.26800  1.0000
  N   N9        1.0  0.27200  0.82000  0.30200  1.0000
  N   N10       1.0  0.62900  0.39600  0.35600  1.0000
  N   N11       1.0  0.83900  0.41500  0.36300  1.0000
  N   N12       1.0  0.28000  0.74200  0.40900  1.0000
  N   N13       1.0  0.72000  0.25800  0.59100  1.0000
  N   N14       1.0  0.16100  0.58500  0.63700  1.0000
  N   N15       1.0  0.37100  0.60400  0.64400  1.0000
  N   N16       1.0  0.72800  0.18000  0.69800  1.0000
  N   N17       1.0  0.09490  0.12700  0.73200  1.0000
  N   N18       1.0  0.44100  0.65900  0.74200  1.0000
  N   N19       1.0  0.55900  0.15900  0.75800  1.0000
  N   N20       1.0  0.90500  0.62700  0.76800  1.0000
  N   N21       1.0  0.27200  0.68000  0.80200  1.0000
  N   N22       1.0  0.62900  0.10400  0.85600  1.0000
  N   N23       1.0  0.83900  0.08470  0.86300  1.0000
  N   N24       1.0  0.28000  0.75800  0.90900  1.0000
