data_image0
_chemical_formula_structural       Ca9Ga12O27
_chemical_formula_sum              "Ca9 Ga12 O27"
_cell_length_a       5.29704
_cell_length_b       11.0176
_cell_length_c       11.0176
_cell_angle_alpha    98.9345
_cell_angle_beta     90
_cell_angle_gamma    90

_space_group_name_H-M_alt    "P 1"
_space_group_IT_number       1

loop_
  _space_group_symop_operation_xyz
  'x, y, z'

loop_
  _atom_site_type_symbol
  _atom_site_label
  _atom_site_symmetry_multiplicity
  _atom_site_fract_x
  _atom_site_fract_y
  _atom_site_fract_z
  _atom_site_occupancy
  Ca  Ca1       1.0  0.99600  0.00000  0.00000  1.0000
  Ca  Ca2       1.0  0.03360  0.66000  0.08050  1.0000
  Ca  Ca3       1.0  0.04960  0.24000  0.24000  1.0000
  Ca  Ca4       1.0  0.03360  0.92000  0.34000  1.0000
  Ca  Ca5       1.0  0.09030  0.59800  0.40200  1.0000
  Ca  Ca6       1.0  0.09030  0.40200  0.59800  1.0000
  Ca  Ca7       1.0  0.03360  0.08050  0.66000  1.0000
  Ca  Ca8       1.0  0.04960  0.76000  0.76000  1.0000
  Ca  Ca9       1.0  0.03360  0.34000  0.92000  1.0000
  Ga  Ga1       1.0  0.51100  0.20300  0.01480  1.0000
  Ga  Ga2       1.0  0.56100  0.46500  0.13500  1.0000
  Ga  Ga3       1.0  0.51100  0.01480  0.20300  1.0000
  Ga  Ga4       1.0  0.52700  0.73700  0.26300  1.0000
  Ga  Ga5       1.0  0.60800  0.38700  0.38700  1.0000
  Ga  Ga6       1.0  0.56100  0.13500  0.46500  1.0000
  Ga  Ga7       1.0  0.56100  0.86500  0.53500  1.0000
  Ga  Ga8       1.0  0.60800  0.61300  0.61300  1.0000
  Ga  Ga9       1.0  0.52700  0.26300  0.73700  1.0000
  Ga  Ga10      1.0  0.51100  0.98500  0.79700  1.0000
  Ga  Ga11      1.0  0.56100  0.53500  0.86500  1.0000
  Ga  Ga12      1.0  0.51100  0.79700  0.98500  1.0000
  O   O1        1.0  0.76000  0.50000  0.00000  1.0000
  O   O2        1.0  0.84900  0.20300  0.02350  1.0000
  O   O3        1.0  0.33200  0.34700  0.06940  1.0000
  O   O4        1.0  0.33600  0.10200  0.10200  1.0000
  O   O5        1.0  0.39300  0.84500  0.15500  1.0000
  O   O6        1.0  0.84900  0.02350  0.20300  1.0000
  O   O7        1.0  0.35500  0.59300  0.20600  1.0000
  O   O8        1.0  0.78100  0.41600  0.24500  1.0000
  O   O9        1.0  0.86600  0.72800  0.27200  1.0000
  O   O10       1.0  0.33200  0.06940  0.34700  1.0000
  O   O11       1.0  0.26600  0.39100  0.39100  1.0000
  O   O12       1.0  0.35500  0.79400  0.40700  1.0000
  O   O13       1.0  0.78100  0.24500  0.41600  1.0000
  O   O14       1.0  0.77900  0.50000  0.50000  1.0000
  O   O15       1.0  0.76000  0.00000  0.50000  1.0000
  O   O16       1.0  0.78100  0.75500  0.58400  1.0000
  O   O17       1.0  0.35500  0.20600  0.59300  1.0000
  O   O18       1.0  0.26600  0.60900  0.60900  1.0000
  O   O19       1.0  0.33200  0.93100  0.65300  1.0000
  O   O20       1.0  0.86600  0.27200  0.72800  1.0000
  O   O21       1.0  0.78100  0.58400  0.75500  1.0000
  O   O22       1.0  0.35500  0.40700  0.79400  1.0000
  O   O23       1.0  0.84900  0.97700  0.79700  1.0000
  O   O24       1.0  0.39300  0.15500  0.84500  1.0000
  O   O25       1.0  0.33600  0.89800  0.89800  1.0000
  O   O26       1.0  0.33200  0.65300  0.93100  1.0000
  O   O27       1.0  0.84900  0.79700  0.97700  1.0000
