data_image0
_chemical_formula_structural       Ca16Hg36
_chemical_formula_sum              "Ca16 Hg36"
_cell_length_a       11.0489
_cell_length_b       11.0489
_cell_length_c       11.0489
_cell_angle_alpha    90
_cell_angle_beta     90
_cell_angle_gamma    90

_space_group_name_H-M_alt    "P 1"
_space_group_IT_number       1

loop_
  _space_group_symop_operation_xyz
  'x, y, z'

loop_
  _atom_site_type_symbol
  _atom_site_label
  _atom_site_symmetry_multiplicity
  _atom_site_fract_x
  _atom_site_fract_y
  _atom_site_fract_z
  _atom_site_occupancy
  Ca  Ca1       1.0  0.13700  0.13700  0.13700  1.0000
  Ca  Ca2       1.0  0.86300  0.86300  0.13700  1.0000
  Ca  Ca3       1.0  0.53800  0.19100  0.19100  1.0000
  Ca  Ca4       1.0  0.80900  0.46200  0.19100  1.0000
  Ca  Ca5       1.0  0.19100  0.53800  0.19100  1.0000
  Ca  Ca6       1.0  0.46200  0.80900  0.19100  1.0000
  Ca  Ca7       1.0  0.80900  0.19100  0.46200  1.0000
  Ca  Ca8       1.0  0.19100  0.80900  0.46200  1.0000
  Ca  Ca9       1.0  0.19100  0.19100  0.53800  1.0000
  Ca  Ca10      1.0  0.80900  0.80900  0.53800  1.0000
  Ca  Ca11      1.0  0.46200  0.19100  0.80900  1.0000
  Ca  Ca12      1.0  0.19100  0.46200  0.80900  1.0000
  Ca  Ca13      1.0  0.80900  0.53800  0.80900  1.0000
  Ca  Ca14      1.0  0.53800  0.80900  0.80900  1.0000
  Ca  Ca15      1.0  0.86300  0.13700  0.86300  1.0000
  Ca  Ca16      1.0  0.13700  0.86300  0.86300  1.0000
  Hg  Hg1       1.0  0.36000  0.00000  0.00000  1.0000
  Hg  Hg2       1.0  0.64000  0.00000  0.00000  1.0000
  Hg  Hg3       1.0  0.00000  0.36000  0.00000  1.0000
  Hg  Hg4       1.0  0.00000  0.64000  0.00000  1.0000
  Hg  Hg5       1.0  0.32600  0.32600  0.02530  1.0000
  Hg  Hg6       1.0  0.67400  0.67400  0.02530  1.0000
  Hg  Hg7       1.0  0.50000  0.50000  0.15200  1.0000
  Hg  Hg8       1.0  0.84100  0.15900  0.15900  1.0000
  Hg  Hg9       1.0  0.15900  0.84100  0.15900  1.0000
  Hg  Hg10      1.0  0.31400  0.31400  0.31400  1.0000
  Hg  Hg11      1.0  0.68600  0.68600  0.31400  1.0000
  Hg  Hg12      1.0  0.32600  0.02530  0.32600  1.0000
  Hg  Hg13      1.0  0.02530  0.32600  0.32600  1.0000
  Hg  Hg14      1.0  0.97500  0.67400  0.32600  1.0000
  Hg  Hg15      1.0  0.67400  0.97500  0.32600  1.0000
  Hg  Hg16      1.0  0.00000  0.00000  0.36000  1.0000
  Hg  Hg17      1.0  0.60700  0.39300  0.39300  1.0000
  Hg  Hg18      1.0  0.39300  0.60700  0.39300  1.0000
  Hg  Hg19      1.0  0.50000  0.15200  0.50000  1.0000
  Hg  Hg20      1.0  0.15200  0.50000  0.50000  1.0000
  Hg  Hg21      1.0  0.84800  0.50000  0.50000  1.0000
  Hg  Hg22      1.0  0.50000  0.84800  0.50000  1.0000
  Hg  Hg23      1.0  0.39300  0.39300  0.60700  1.0000
  Hg  Hg24      1.0  0.60700  0.60700  0.60700  1.0000
  Hg  Hg25      1.0  0.00000  0.00000  0.64000  1.0000
  Hg  Hg26      1.0  0.67400  0.02530  0.67400  1.0000
  Hg  Hg27      1.0  0.97500  0.32600  0.67400  1.0000
  Hg  Hg28      1.0  0.02530  0.67400  0.67400  1.0000
  Hg  Hg29      1.0  0.32600  0.97500  0.67400  1.0000
  Hg  Hg30      1.0  0.68600  0.31400  0.68600  1.0000
  Hg  Hg31      1.0  0.31400  0.68600  0.68600  1.0000
  Hg  Hg32      1.0  0.15900  0.15900  0.84100  1.0000
  Hg  Hg33      1.0  0.84100  0.84100  0.84100  1.0000
  Hg  Hg34      1.0  0.50000  0.50000  0.84800  1.0000
  Hg  Hg35      1.0  0.67400  0.32600  0.97500  1.0000
  Hg  Hg36      1.0  0.32600  0.67400  0.97500  1.0000
