data_image0
_chemical_formula_structural       Cs16Pb36
_chemical_formula_sum              "Cs16 Pb36"
_cell_length_a       10.1615
_cell_length_b       14.7865
_cell_length_c       16.0306
_cell_angle_alpha    90
_cell_angle_beta     100.146
_cell_angle_gamma    90

_space_group_name_H-M_alt    "P 1"
_space_group_IT_number       1

loop_
  _space_group_symop_operation_xyz
  'x, y, z'

loop_
  _atom_site_type_symbol
  _atom_site_label
  _atom_site_symmetry_multiplicity
  _atom_site_fract_x
  _atom_site_fract_y
  _atom_site_fract_z
  _atom_site_occupancy
  Cs  Cs1       1.0  0.24900  0.96400  0.01190  1.0000
  Cs  Cs2       1.0  0.89600  0.72900  0.09340  1.0000
  Cs  Cs3       1.0  0.48600  0.26600  0.11900  1.0000
  Cs  Cs4       1.0  0.88700  0.43300  0.16000  1.0000
  Cs  Cs5       1.0  0.61300  0.93300  0.34000  1.0000
  Cs  Cs6       1.0  0.01360  0.76600  0.38100  1.0000
  Cs  Cs7       1.0  0.60400  0.22900  0.40700  1.0000
  Cs  Cs8       1.0  0.25100  0.46400  0.48800  1.0000
  Cs  Cs9       1.0  0.74900  0.53600  0.51200  1.0000
  Cs  Cs10      1.0  0.39600  0.77100  0.59300  1.0000
  Cs  Cs11      1.0  0.98600  0.23400  0.61900  1.0000
  Cs  Cs12      1.0  0.38700  0.06690  0.66000  1.0000
  Cs  Cs13      1.0  0.11300  0.56700  0.84000  1.0000
  Cs  Cs14      1.0  0.51400  0.73400  0.88100  1.0000
  Cs  Cs15      1.0  0.10400  0.27100  0.90700  1.0000
  Cs  Cs16      1.0  0.75100  0.03610  0.98800  1.0000
  Pb  Pb1       1.0  0.26500  0.69200  0.05770  1.0000
  Pb  Pb2       1.0  0.55400  0.57800  0.09230  1.0000
  Pb  Pb3       1.0  0.27400  0.48500  0.09840  1.0000
  Pb  Pb4       1.0  0.05850  0.17800  0.12700  1.0000
  Pb  Pb5       1.0  0.53700  0.79100  0.13300  1.0000
  Pb  Pb6       1.0  0.02180  0.98900  0.22400  1.0000
  Pb  Pb7       1.0  0.81900  0.15600  0.22600  1.0000
  Pb  Pb8       1.0  0.28400  0.80700  0.22800  1.0000
  Pb  Pb9       1.0  0.19200  0.60100  0.24500  1.0000
  Pb  Pb10      1.0  0.30800  0.10100  0.25500  1.0000
  Pb  Pb11      1.0  0.21600  0.30700  0.27200  1.0000
  Pb  Pb12      1.0  0.68100  0.65600  0.27400  1.0000
  Pb  Pb13      1.0  0.47800  0.48900  0.27600  1.0000
  Pb  Pb14      1.0  0.96300  0.29100  0.36700  1.0000
  Pb  Pb15      1.0  0.44100  0.67800  0.37300  1.0000
  Pb  Pb16      1.0  0.22600  0.98500  0.40200  1.0000
  Pb  Pb17      1.0  0.94600  0.07770  0.40800  1.0000
  Pb  Pb18      1.0  0.23500  0.19200  0.44200  1.0000
  Pb  Pb19      1.0  0.76500  0.80800  0.55800  1.0000
  Pb  Pb20      1.0  0.05360  0.92200  0.59200  1.0000
  Pb  Pb21      1.0  0.77400  0.01540  0.59800  1.0000
  Pb  Pb22      1.0  0.55900  0.32200  0.62700  1.0000
  Pb  Pb23      1.0  0.03660  0.70900  0.63300  1.0000
  Pb  Pb24      1.0  0.52200  0.51100  0.72400  1.0000
  Pb  Pb25      1.0  0.31900  0.34400  0.72600  1.0000
  Pb  Pb26      1.0  0.78400  0.69300  0.72800  1.0000
  Pb  Pb27      1.0  0.69200  0.89900  0.74500  1.0000
  Pb  Pb28      1.0  0.80800  0.39900  0.75500  1.0000
  Pb  Pb29      1.0  0.71600  0.19300  0.77200  1.0000
  Pb  Pb30      1.0  0.18100  0.84400  0.77400  1.0000
  Pb  Pb31      1.0  0.97800  0.01050  0.77600  1.0000
  Pb  Pb32      1.0  0.46300  0.20900  0.86700  1.0000
  Pb  Pb33      1.0  0.94100  0.82200  0.87300  1.0000
  Pb  Pb34      1.0  0.72600  0.51500  0.90200  1.0000
  Pb  Pb35      1.0  0.44600  0.42200  0.90800  1.0000
  Pb  Pb36      1.0  0.73500  0.30800  0.94200  1.0000
