data_image0
_chemical_formula_structural       Ir4Mn4Si4
_chemical_formula_sum              "Ir4 Mn4 Si4"
_cell_length_a       6.02881
_cell_length_b       3.85403
_cell_length_c       7.235
_cell_angle_alpha    90
_cell_angle_beta     90
_cell_angle_gamma    90

_space_group_name_H-M_alt    "P 1"
_space_group_IT_number       1

loop_
  _space_group_symop_operation_xyz
  'x, y, z'

loop_
  _atom_site_type_symbol
  _atom_site_label
  _atom_site_symmetry_multiplicity
  _atom_site_fract_x
  _atom_site_fract_y
  _atom_site_fract_z
  _atom_site_occupancy
  Ir  Ir1       1.0  0.33600  0.75000  0.06200  1.0000
  Ir  Ir2       1.0  0.83600  0.75000  0.43800  1.0000
  Ir  Ir3       1.0  0.16400  0.25000  0.56200  1.0000
  Ir  Ir4       1.0  0.66400  0.25000  0.93800  1.0000
  Mn  Mn1       1.0  0.03260  0.25000  0.18100  1.0000
  Mn  Mn2       1.0  0.53300  0.25000  0.31900  1.0000
  Mn  Mn3       1.0  0.46700  0.75000  0.68100  1.0000
  Mn  Mn4       1.0  0.96700  0.75000  0.81900  1.0000
  Si  Si1       1.0  0.73400  0.75000  0.12400  1.0000
  Si  Si2       1.0  0.23400  0.75000  0.37600  1.0000
  Si  Si3       1.0  0.76600  0.25000  0.62400  1.0000
  Si  Si4       1.0  0.26600  0.25000  0.87600  1.0000
