data_image0
_chemical_formula_structural       B8Eu8Ge4O32
_chemical_formula_sum              "B8 Eu8 Ge4 O32"
_cell_length_a       13.6712
_cell_length_b       4.45675
_cell_length_c       9.35106
_cell_angle_alpha    90
_cell_angle_beta     90
_cell_angle_gamma    90

_space_group_name_H-M_alt    "P 1"
_space_group_IT_number       1

loop_
  _space_group_symop_operation_xyz
  'x, y, z'

loop_
  _atom_site_type_symbol
  _atom_site_label
  _atom_site_symmetry_multiplicity
  _atom_site_fract_x
  _atom_site_fract_y
  _atom_site_fract_z
  _atom_site_occupancy
  B   B1        1.0  0.20300  0.45800  0.21100  1.0000
  B   B2        1.0  0.29700  0.95800  0.21100  1.0000
  B   B3        1.0  0.79700  0.45800  0.28900  1.0000
  B   B4        1.0  0.70300  0.95800  0.28900  1.0000
  B   B5        1.0  0.29700  0.04210  0.71100  1.0000
  B   B6        1.0  0.20300  0.54200  0.71100  1.0000
  B   B7        1.0  0.70300  0.04210  0.78900  1.0000
  B   B8        1.0  0.79700  0.54200  0.78900  1.0000
  Eu  Eu1       1.0  0.86100  0.03750  0.02720  1.0000
  Eu  Eu2       1.0  0.63900  0.53800  0.02720  1.0000
  Eu  Eu3       1.0  0.13900  0.03750  0.47300  1.0000
  Eu  Eu4       1.0  0.36100  0.53800  0.47300  1.0000
  Eu  Eu5       1.0  0.63900  0.46200  0.52700  1.0000
  Eu  Eu6       1.0  0.86100  0.96200  0.52700  1.0000
  Eu  Eu7       1.0  0.36100  0.46200  0.97300  1.0000
  Eu  Eu8       1.0  0.13900  0.96200  0.97300  1.0000
  Ge  Ge1       1.0  0.50000  0.05930  0.25000  1.0000
  Ge  Ge2       1.0  0.00000  0.55900  0.25000  1.0000
  Ge  Ge3       1.0  0.00000  0.44100  0.75000  1.0000
  Ge  Ge4       1.0  0.50000  0.94100  0.75000  1.0000
  O   O1        1.0  0.19500  0.46100  0.05620  1.0000
  O   O2        1.0  0.30500  0.96100  0.05620  1.0000
  O   O3        1.0  0.49900  0.26800  0.09360  1.0000
  O   O4        1.0  0.00126  0.76800  0.09360  1.0000
  O   O5        1.0  0.71700  0.26400  0.23400  1.0000
  O   O6        1.0  0.78300  0.76400  0.23400  1.0000
  O   O7        1.0  0.89300  0.32400  0.24400  1.0000
  O   O8        1.0  0.60700  0.82400  0.24400  1.0000
  O   O9        1.0  0.10700  0.32400  0.25600  1.0000
  O   O10       1.0  0.39300  0.82400  0.25600  1.0000
  O   O11       1.0  0.28300  0.26400  0.26600  1.0000
  O   O12       1.0  0.21700  0.76400  0.26600  1.0000
  O   O13       1.0  0.50100  0.26800  0.40600  1.0000
  O   O14       1.0  0.99900  0.76800  0.40600  1.0000
  O   O15       1.0  0.80500  0.46100  0.44400  1.0000
  O   O16       1.0  0.69500  0.96100  0.44400  1.0000
  O   O17       1.0  0.30500  0.03930  0.55600  1.0000
  O   O18       1.0  0.19500  0.53900  0.55600  1.0000
  O   O19       1.0  0.00126  0.23200  0.59400  1.0000
  O   O20       1.0  0.49900  0.73200  0.59400  1.0000
  O   O21       1.0  0.78300  0.23600  0.73400  1.0000
  O   O22       1.0  0.71700  0.73600  0.73400  1.0000
  O   O23       1.0  0.60700  0.17600  0.74400  1.0000
  O   O24       1.0  0.89300  0.67600  0.74400  1.0000
  O   O25       1.0  0.39300  0.17600  0.75600  1.0000
  O   O26       1.0  0.10700  0.67600  0.75600  1.0000
  O   O27       1.0  0.21700  0.23600  0.76600  1.0000
  O   O28       1.0  0.28300  0.73600  0.76600  1.0000
  O   O29       1.0  0.99900  0.23200  0.90600  1.0000
  O   O30       1.0  0.50100  0.73200  0.90600  1.0000
  O   O31       1.0  0.69500  0.03930  0.94400  1.0000
  O   O32       1.0  0.80500  0.53900  0.94400  1.0000
