data_image0
_chemical_formula_structural       Re16Sc10Si24
_chemical_formula_sum              "Re16 Sc10 Si24"
_cell_length_a       5.25045
_cell_length_b       10.2192
_cell_length_c       14.5191
_cell_angle_alpha    90
_cell_angle_beta     90
_cell_angle_gamma    75.1142

_space_group_name_H-M_alt    "P 1"
_space_group_IT_number       1

loop_
  _space_group_symop_operation_xyz
  'x, y, z'

loop_
  _atom_site_type_symbol
  _atom_site_label
  _atom_site_symmetry_multiplicity
  _atom_site_fract_x
  _atom_site_fract_y
  _atom_site_fract_z
  _atom_site_occupancy
  Re  Re1       1.0  0.44400  0.16900  0.00000  1.0000
  Re  Re2       1.0  0.61300  0.83100  0.00000  1.0000
  Re  Re3       1.0  0.06980  0.40200  0.10800  1.0000
  Re  Re4       1.0  0.47200  0.59800  0.10800  1.0000
  Re  Re5       1.0  0.00180  0.00000  0.23100  1.0000
  Re  Re6       1.0  0.49300  0.00000  0.27900  1.0000
  Re  Re7       1.0  0.56200  0.41200  0.37500  1.0000
  Re  Re8       1.0  0.97400  0.58800  0.37500  1.0000
  Re  Re9       1.0  0.92700  0.20200  0.50000  1.0000
  Re  Re10      1.0  0.12900  0.79800  0.50000  1.0000
  Re  Re11      1.0  0.56200  0.41200  0.62500  1.0000
  Re  Re12      1.0  0.97400  0.58800  0.62500  1.0000
  Re  Re13      1.0  0.49300  0.00000  0.72100  1.0000
  Re  Re14      1.0  0.00180  0.00000  0.76900  1.0000
  Re  Re15      1.0  0.06980  0.40200  0.89200  1.0000
  Re  Re16      1.0  0.47200  0.59800  0.89200  1.0000
  Sc  Sc1       1.0  0.04210  0.00000  0.00000  1.0000
  Sc  Sc2       1.0  0.63900  0.26800  0.17600  1.0000
  Sc  Sc3       1.0  0.90700  0.73200  0.17600  1.0000
  Sc  Sc4       1.0  0.14000  0.27100  0.32700  1.0000
  Sc  Sc5       1.0  0.41100  0.72900  0.32700  1.0000
  Sc  Sc6       1.0  0.56400  0.00000  0.50000  1.0000
  Sc  Sc7       1.0  0.14000  0.27100  0.67300  1.0000
  Sc  Sc8       1.0  0.41100  0.72900  0.67300  1.0000
  Sc  Sc9       1.0  0.63900  0.26800  0.82400  1.0000
  Sc  Sc10      1.0  0.90700  0.73200  0.82400  1.0000
  Si  Si1       1.0  0.88000  0.26300  0.00000  1.0000
  Si  Si2       1.0  0.42600  0.41600  0.00000  1.0000
  Si  Si3       1.0  0.84200  0.58400  0.00000  1.0000
  Si  Si4       1.0  0.14300  0.73700  0.00000  1.0000
  Si  Si5       1.0  0.65300  0.00000  0.12100  1.0000
  Si  Si6       1.0  0.20000  0.15700  0.14900  1.0000
  Si  Si7       1.0  0.35600  0.84300  0.14900  1.0000
  Si  Si8       1.0  0.27200  0.50000  0.24200  1.0000
  Si  Si9       1.0  0.77200  0.50000  0.24200  1.0000
  Si  Si10      1.0  0.70100  0.16200  0.35300  1.0000
  Si  Si11      1.0  0.86300  0.83800  0.35300  1.0000
  Si  Si12      1.0  0.13800  0.00000  0.39700  1.0000
  Si  Si13      1.0  0.39100  0.28000  0.50000  1.0000
  Si  Si14      1.0  0.88400  0.44000  0.50000  1.0000
  Si  Si15      1.0  0.32400  0.56000  0.50000  1.0000
  Si  Si16      1.0  0.67100  0.72000  0.50000  1.0000
  Si  Si17      1.0  0.13800  0.00000  0.60300  1.0000
  Si  Si18      1.0  0.70100  0.16200  0.64700  1.0000
  Si  Si19      1.0  0.86300  0.83800  0.64700  1.0000
  Si  Si20      1.0  0.27200  0.50000  0.75800  1.0000
  Si  Si21      1.0  0.77200  0.50000  0.75800  1.0000
  Si  Si22      1.0  0.20000  0.15700  0.85100  1.0000
  Si  Si23      1.0  0.35600  0.84300  0.85100  1.0000
  Si  Si24      1.0  0.65300  0.00000  0.87900  1.0000
