data_image0
_chemical_formula_structural       Ga40Pt8
_chemical_formula_sum              "Ga40 Pt8"
_cell_length_a       6.44918
_cell_length_b       15.9919
_cell_length_c       8.92452
_cell_angle_alpha    90
_cell_angle_beta     110.256
_cell_angle_gamma    90

_space_group_name_H-M_alt    "P 1"
_space_group_IT_number       1

loop_
  _space_group_symop_operation_xyz
  'x, y, z'

loop_
  _atom_site_type_symbol
  _atom_site_label
  _atom_site_symmetry_multiplicity
  _atom_site_fract_x
  _atom_site_fract_y
  _atom_site_fract_z
  _atom_site_occupancy
  Ga  Ga1       1.0  0.09750  0.06940  0.02520  1.0000
  Ga  Ga2       1.0  0.09750  0.43100  0.02520  1.0000
  Ga  Ga3       1.0  0.68300  0.75000  0.06240  1.0000
  Ga  Ga4       1.0  0.31000  0.66600  0.07920  1.0000
  Ga  Ga5       1.0  0.31000  0.83400  0.07920  1.0000
  Ga  Ga6       1.0  0.55800  0.06030  0.13800  1.0000
  Ga  Ga7       1.0  0.55800  0.44000  0.13800  1.0000
  Ga  Ga8       1.0  0.32200  0.25000  0.22200  1.0000
  Ga  Ga9       1.0  0.92700  0.16800  0.22600  1.0000
  Ga  Ga10      1.0  0.92700  0.33200  0.22600  1.0000
  Ga  Ga11      1.0  0.07610  0.66800  0.26400  1.0000
  Ga  Ga12      1.0  0.07610  0.83200  0.26400  1.0000
  Ga  Ga13      1.0  0.00068  0.00065  0.35700  1.0000
  Ga  Ga14      1.0  0.00068  0.49900  0.35700  1.0000
  Ga  Ga15      1.0  0.44800  0.55700  0.36000  1.0000
  Ga  Ga16      1.0  0.44800  0.94300  0.36000  1.0000
  Ga  Ga17      1.0  0.70200  0.16500  0.42700  1.0000
  Ga  Ga18      1.0  0.70200  0.33500  0.42700  1.0000
  Ga  Ga19      1.0  0.78200  0.67100  0.44600  1.0000
  Ga  Ga20      1.0  0.78200  0.82900  0.44600  1.0000
  Ga  Ga21      1.0  0.21800  0.17100  0.55400  1.0000
  Ga  Ga22      1.0  0.21800  0.32900  0.55400  1.0000
  Ga  Ga23      1.0  0.29800  0.66500  0.57300  1.0000
  Ga  Ga24      1.0  0.29800  0.83500  0.57300  1.0000
  Ga  Ga25      1.0  0.55200  0.05700  0.64000  1.0000
  Ga  Ga26      1.0  0.55200  0.44300  0.64000  1.0000
  Ga  Ga27      1.0  0.99900  0.50100  0.64300  1.0000
  Ga  Ga28      1.0  0.99900  0.99900  0.64300  1.0000
  Ga  Ga29      1.0  0.92400  0.16800  0.73600  1.0000
  Ga  Ga30      1.0  0.92400  0.33200  0.73600  1.0000
  Ga  Ga31      1.0  0.07330  0.66800  0.77400  1.0000
  Ga  Ga32      1.0  0.07330  0.83200  0.77400  1.0000
  Ga  Ga33      1.0  0.67800  0.75000  0.77800  1.0000
  Ga  Ga34      1.0  0.44200  0.56000  0.86200  1.0000
  Ga  Ga35      1.0  0.44200  0.94000  0.86200  1.0000
  Ga  Ga36      1.0  0.69000  0.16600  0.92100  1.0000
  Ga  Ga37      1.0  0.69000  0.33400  0.92100  1.0000
  Ga  Ga38      1.0  0.31700  0.25000  0.93800  1.0000
  Ga  Ga39      1.0  0.90300  0.56900  0.97500  1.0000
  Ga  Ga40      1.0  0.90300  0.93100  0.97500  1.0000
  Pt  Pt1       1.0  0.69100  0.59500  0.17100  1.0000
  Pt  Pt2       1.0  0.69100  0.90500  0.17100  1.0000
  Pt  Pt3       1.0  0.31500  0.09560  0.32700  1.0000
  Pt  Pt4       1.0  0.31500  0.40400  0.32700  1.0000
  Pt  Pt5       1.0  0.68500  0.59600  0.67300  1.0000
  Pt  Pt6       1.0  0.68500  0.90400  0.67300  1.0000
  Pt  Pt7       1.0  0.30900  0.09470  0.82900  1.0000
  Pt  Pt8       1.0  0.30900  0.40500  0.82900  1.0000
