data_image0
_chemical_formula_structural       Mn8Na8O28Si8
_chemical_formula_sum              "Mn8 Na8 O28 Si8"
_cell_length_a       8.62262
_cell_length_b       13.3103
_cell_length_c       5.71416
_cell_angle_alpha    90
_cell_angle_beta     89.7186
_cell_angle_gamma    90

_space_group_name_H-M_alt    "P 1"
_space_group_IT_number       1

loop_
  _space_group_symop_operation_xyz
  'x, y, z'

loop_
  _atom_site_type_symbol
  _atom_site_label
  _atom_site_symmetry_multiplicity
  _atom_site_fract_x
  _atom_site_fract_y
  _atom_site_fract_z
  _atom_site_occupancy
  Mn  Mn1       1.0  0.70200  0.00863  0.13900  1.0000
  Mn  Mn2       1.0  0.38600  0.58100  0.16200  1.0000
  Mn  Mn3       1.0  0.11400  0.08120  0.33800  1.0000
  Mn  Mn4       1.0  0.79800  0.50900  0.36100  1.0000
  Mn  Mn5       1.0  0.20200  0.49100  0.63900  1.0000
  Mn  Mn6       1.0  0.88600  0.91900  0.66200  1.0000
  Mn  Mn7       1.0  0.61400  0.41900  0.83800  1.0000
  Mn  Mn8       1.0  0.29800  0.99100  0.86100  1.0000
  Na  Na1       1.0  0.12400  0.33000  0.17700  1.0000
  Na  Na2       1.0  0.80800  0.25400  0.22400  1.0000
  Na  Na3       1.0  0.69200  0.75400  0.27600  1.0000
  Na  Na4       1.0  0.37600  0.83000  0.32300  1.0000
  Na  Na5       1.0  0.62400  0.17000  0.67700  1.0000
  Na  Na6       1.0  0.30800  0.24600  0.72400  1.0000
  Na  Na7       1.0  0.19200  0.74600  0.77600  1.0000
  Na  Na8       1.0  0.87600  0.67000  0.82300  1.0000
  O   O1        1.0  0.02490  0.16600  0.06330  1.0000
  O   O2        1.0  0.57600  0.88400  0.06660  1.0000
  O   O3        1.0  0.46100  0.29300  0.11100  1.0000
  O   O4        1.0  0.18500  0.65900  0.12100  1.0000
  O   O5        1.0  0.19700  0.94100  0.17400  1.0000
  O   O6        1.0  0.59200  0.46400  0.19900  1.0000
  O   O7        1.0  0.87900  0.63600  0.21000  1.0000
  O   O8        1.0  0.62100  0.13600  0.29000  1.0000
  O   O9        1.0  0.90800  0.96400  0.30100  1.0000
  O   O10       1.0  0.30300  0.44100  0.32600  1.0000
  O   O11       1.0  0.31500  0.15900  0.37900  1.0000
  O   O12       1.0  0.03900  0.79300  0.38900  1.0000
  O   O13       1.0  0.92400  0.38400  0.43300  1.0000
  O   O14       1.0  0.47500  0.66600  0.43700  1.0000
  O   O15       1.0  0.52500  0.33400  0.56300  1.0000
  O   O16       1.0  0.07570  0.61600  0.56700  1.0000
  O   O17       1.0  0.96100  0.20700  0.61100  1.0000
  O   O18       1.0  0.68500  0.84100  0.62100  1.0000
  O   O19       1.0  0.69700  0.55900  0.67400  1.0000
  O   O20       1.0  0.09240  0.03550  0.69900  1.0000
  O   O21       1.0  0.37900  0.86400  0.71000  1.0000
  O   O22       1.0  0.12100  0.36400  0.79000  1.0000
  O   O23       1.0  0.40800  0.53600  0.80100  1.0000
  O   O24       1.0  0.80300  0.05930  0.82600  1.0000
  O   O25       1.0  0.81500  0.34100  0.87900  1.0000
  O   O26       1.0  0.53900  0.70700  0.88900  1.0000
  O   O27       1.0  0.42400  0.11600  0.93300  1.0000
  O   O28       1.0  0.97500  0.83400  0.93700  1.0000
  Si  Si1       1.0  0.02900  0.88300  0.18200  1.0000
  Si  Si2       1.0  0.45200  0.16900  0.18700  1.0000
  Si  Si3       1.0  0.04780  0.66900  0.31300  1.0000
  Si  Si4       1.0  0.47100  0.38300  0.31800  1.0000
  Si  Si5       1.0  0.52900  0.61700  0.68200  1.0000
  Si  Si6       1.0  0.95200  0.33100  0.68700  1.0000
  Si  Si7       1.0  0.54800  0.83100  0.81300  1.0000
  Si  Si8       1.0  0.97100  0.11700  0.81800  1.0000
