data_image0
_chemical_formula_structural       B8Na12O24Y4
_chemical_formula_sum              "B8 Na12 O24 Y4"
_cell_length_a       6.44327
_cell_length_b       8.45472
_cell_length_c       11.9667
_cell_angle_alpha    90
_cell_angle_beta     118.511
_cell_angle_gamma    90

_space_group_name_H-M_alt    "P 1"
_space_group_IT_number       1

loop_
  _space_group_symop_operation_xyz
  'x, y, z'

loop_
  _atom_site_type_symbol
  _atom_site_label
  _atom_site_symmetry_multiplicity
  _atom_site_fract_x
  _atom_site_fract_y
  _atom_site_fract_z
  _atom_site_occupancy
  B   B1        1.0  0.82300  0.94500  0.11800  1.0000
  B   B2        1.0  0.36500  0.59100  0.12500  1.0000
  B   B3        1.0  0.63500  0.09080  0.37500  1.0000
  B   B4        1.0  0.17700  0.44500  0.38200  1.0000
  B   B5        1.0  0.82300  0.55500  0.61800  1.0000
  B   B6        1.0  0.36500  0.90900  0.62500  1.0000
  B   B7        1.0  0.63500  0.40900  0.87500  1.0000
  B   B8        1.0  0.17700  0.05550  0.88200  1.0000
  Na  Na1       1.0  0.06580  0.29300  0.07230  1.0000
  Na  Na2       1.0  0.34500  0.94200  0.11600  1.0000
  Na  Na3       1.0  0.60100  0.30300  0.11700  1.0000
  Na  Na4       1.0  0.39900  0.80300  0.38300  1.0000
  Na  Na5       1.0  0.65500  0.44200  0.38400  1.0000
  Na  Na6       1.0  0.93400  0.79300  0.42800  1.0000
  Na  Na7       1.0  0.06580  0.20700  0.57200  1.0000
  Na  Na8       1.0  0.34500  0.55800  0.61600  1.0000
  Na  Na9       1.0  0.60100  0.19700  0.61700  1.0000
  Na  Na10      1.0  0.39900  0.69700  0.88300  1.0000
  Na  Na11      1.0  0.65500  0.05750  0.88400  1.0000
  Na  Na12      1.0  0.93400  0.70700  0.92800  1.0000
  O   O1        1.0  0.25300  0.51000  0.01020  1.0000
  O   O2        1.0  0.72700  0.83700  0.02040  1.0000
  O   O3        1.0  0.85000  0.10300  0.10500  1.0000
  O   O4        1.0  0.24000  0.69600  0.16000  1.0000
  O   O5        1.0  0.60300  0.56500  0.20500  1.0000
  O   O6        1.0  0.90900  0.88600  0.24300  1.0000
  O   O7        1.0  0.09050  0.38600  0.25700  1.0000
  O   O8        1.0  0.39700  0.06490  0.29500  1.0000
  O   O9        1.0  0.76000  0.19600  0.34000  1.0000
  O   O10       1.0  0.15000  0.60300  0.39500  1.0000
  O   O11       1.0  0.27300  0.33700  0.48000  1.0000
  O   O12       1.0  0.74700  0.01020  0.49000  1.0000
  O   O13       1.0  0.25300  0.99000  0.51000  1.0000
  O   O14       1.0  0.72700  0.66300  0.52000  1.0000
  O   O15       1.0  0.85000  0.39700  0.60500  1.0000
  O   O16       1.0  0.24000  0.80400  0.66000  1.0000
  O   O17       1.0  0.60300  0.93500  0.70500  1.0000
  O   O18       1.0  0.90900  0.61400  0.74300  1.0000
  O   O19       1.0  0.09050  0.11400  0.75700  1.0000
  O   O20       1.0  0.39700  0.43500  0.79500  1.0000
  O   O21       1.0  0.76000  0.30400  0.84000  1.0000
  O   O22       1.0  0.15000  0.89700  0.89500  1.0000
  O   O23       1.0  0.27300  0.16300  0.98000  1.0000
  O   O24       1.0  0.74700  0.49000  0.99000  1.0000
  Y   Y1        1.0  0.90700  0.62800  0.17200  1.0000
  Y   Y2        1.0  0.09350  0.12800  0.32800  1.0000
  Y   Y3        1.0  0.90700  0.87200  0.67200  1.0000
  Y   Y4        1.0  0.09350  0.37200  0.82800  1.0000
