data_image0
_chemical_formula_structural       F32N8O8W4
_chemical_formula_sum              "F32 N8 O8 W4"
_cell_length_a       8.46107
_cell_length_b       5.49611
_cell_length_c       11.6325
_cell_angle_alpha    90
_cell_angle_beta     90
_cell_angle_gamma    90

_space_group_name_H-M_alt    "P 1"
_space_group_IT_number       1

loop_
  _space_group_symop_operation_xyz
  'x, y, z'

loop_
  _atom_site_type_symbol
  _atom_site_label
  _atom_site_symmetry_multiplicity
  _atom_site_fract_x
  _atom_site_fract_y
  _atom_site_fract_z
  _atom_site_occupancy
  F   F1        1.0  0.28700  0.25000  0.03420  1.0000
  F   F2        1.0  0.87600  0.02810  0.05760  1.0000
  F   F3        1.0  0.87600  0.47200  0.05760  1.0000
  F   F4        1.0  0.59200  0.53200  0.12000  1.0000
  F   F5        1.0  0.59200  0.96800  0.12000  1.0000
  F   F6        1.0  0.99400  0.75000  0.17800  1.0000
  F   F7        1.0  0.28000  0.52900  0.23800  1.0000
  F   F8        1.0  0.28000  0.97100  0.23800  1.0000
  F   F9        1.0  0.78000  0.52900  0.26200  1.0000
  F   F10       1.0  0.78000  0.97100  0.26200  1.0000
  F   F11       1.0  0.49400  0.75000  0.32200  1.0000
  F   F12       1.0  0.09200  0.53200  0.38000  1.0000
  F   F13       1.0  0.09200  0.96800  0.38000  1.0000
  F   F14       1.0  0.37600  0.02810  0.44200  1.0000
  F   F15       1.0  0.37600  0.47200  0.44200  1.0000
  F   F16       1.0  0.78700  0.25000  0.46600  1.0000
  F   F17       1.0  0.21300  0.75000  0.53400  1.0000
  F   F18       1.0  0.62400  0.52800  0.55800  1.0000
  F   F19       1.0  0.62400  0.97200  0.55800  1.0000
  F   F20       1.0  0.90800  0.03190  0.62000  1.0000
  F   F21       1.0  0.90800  0.46800  0.62000  1.0000
  F   F22       1.0  0.50600  0.25000  0.67800  1.0000
  F   F23       1.0  0.22000  0.02950  0.73800  1.0000
  F   F24       1.0  0.22000  0.47100  0.73800  1.0000
  F   F25       1.0  0.72000  0.02950  0.76200  1.0000
  F   F26       1.0  0.72000  0.47100  0.76200  1.0000
  F   F27       1.0  0.00625  0.25000  0.82200  1.0000
  F   F28       1.0  0.40800  0.03190  0.88000  1.0000
  F   F29       1.0  0.40800  0.46800  0.88000  1.0000
  F   F30       1.0  0.12400  0.52800  0.94200  1.0000
  F   F31       1.0  0.12400  0.97200  0.94200  1.0000
  F   F32       1.0  0.71300  0.75000  0.96600  1.0000
  N   N1        1.0  0.26000  0.75000  0.07270  1.0000
  N   N2        1.0  0.48700  0.25000  0.22700  1.0000
  N   N3        1.0  0.98700  0.25000  0.27300  1.0000
  N   N4        1.0  0.76000  0.75000  0.42700  1.0000
  N   N5        1.0  0.24000  0.25000  0.57300  1.0000
  N   N6        1.0  0.01280  0.75000  0.72700  1.0000
  N   N7        1.0  0.51300  0.75000  0.77300  1.0000
  N   N8        1.0  0.74000  0.25000  0.92700  1.0000
  O   O1        1.0  0.38000  0.75000  0.03640  1.0000
  O   O2        1.0  0.05120  0.25000  0.19000  1.0000
  O   O3        1.0  0.55100  0.25000  0.31000  1.0000
  O   O4        1.0  0.88000  0.75000  0.46400  1.0000
  O   O5        1.0  0.12000  0.25000  0.53600  1.0000
  O   O6        1.0  0.44900  0.75000  0.69000  1.0000
  O   O7        1.0  0.94900  0.75000  0.81000  1.0000
  O   O8        1.0  0.62000  0.25000  0.96400  1.0000
  W   W1        1.0  0.77700  0.75000  0.12600  1.0000
  W   W2        1.0  0.27700  0.75000  0.37400  1.0000
  W   W3        1.0  0.72300  0.25000  0.62600  1.0000
  W   W4        1.0  0.22300  0.25000  0.87400  1.0000
