data_image0
_chemical_formula_structural       Fe6Na6O32P8
_chemical_formula_sum              "Fe6 Na6 O32 P8"
_cell_length_a       6.36762
_cell_length_b       10.1357
_cell_length_c       10.5244
_cell_angle_alpha    91.7751
_cell_angle_beta     90
_cell_angle_gamma    108.308

_space_group_name_H-M_alt    "P 1"
_space_group_IT_number       1

loop_
  _space_group_symop_operation_xyz
  'x, y, z'

loop_
  _atom_site_type_symbol
  _atom_site_label
  _atom_site_symmetry_multiplicity
  _atom_site_fract_x
  _atom_site_fract_y
  _atom_site_fract_z
  _atom_site_occupancy
  Fe  Fe1       1.0  0.00000  0.50000  0.00000  1.0000
  Fe  Fe2       1.0  0.68100  0.30800  0.24800  1.0000
  Fe  Fe3       1.0  0.37300  0.69200  0.25200  1.0000
  Fe  Fe4       1.0  0.50000  0.50000  0.50000  1.0000
  Fe  Fe5       1.0  0.62700  0.30800  0.74800  1.0000
  Fe  Fe6       1.0  0.31900  0.69200  0.75200  1.0000
  Na  Na1       1.0  0.77400  0.82800  0.02690  1.0000
  Na  Na2       1.0  0.35400  0.00000  0.25000  1.0000
  Na  Na3       1.0  0.94500  0.17200  0.47300  1.0000
  Na  Na4       1.0  0.05450  0.82800  0.52700  1.0000
  Na  Na5       1.0  0.64600  0.00000  0.75000  1.0000
  Na  Na6       1.0  0.22600  0.17200  0.97300  1.0000
  O   O1        1.0  0.04470  0.69900  0.00570  1.0000
  O   O2        1.0  0.17800  0.95600  0.04750  1.0000
  O   O3        1.0  0.42000  0.81400  0.11100  1.0000
  O   O4        1.0  0.63100  0.15700  0.12100  1.0000
  O   O5        1.0  0.23900  0.50800  0.13300  1.0000
  O   O6        1.0  0.80000  0.48700  0.14700  1.0000
  O   O7        1.0  0.37000  0.31000  0.21000  1.0000
  O   O8        1.0  0.68300  0.69100  0.22600  1.0000
  O   O9        1.0  0.99200  0.30900  0.27400  1.0000
  O   O10       1.0  0.05990  0.69000  0.29000  1.0000
  O   O11       1.0  0.31300  0.51300  0.35300  1.0000
  O   O12       1.0  0.73100  0.49200  0.36700  1.0000
  O   O13       1.0  0.47500  0.84300  0.37900  1.0000
  O   O14       1.0  0.60600  0.18600  0.38900  1.0000
  O   O15       1.0  0.22200  0.04410  0.45300  1.0000
  O   O16       1.0  0.34500  0.30100  0.49400  1.0000
  O   O17       1.0  0.65500  0.69900  0.50600  1.0000
  O   O18       1.0  0.77800  0.95600  0.54700  1.0000
  O   O19       1.0  0.39400  0.81400  0.61100  1.0000
  O   O20       1.0  0.52500  0.15700  0.62100  1.0000
  O   O21       1.0  0.26900  0.50800  0.63300  1.0000
  O   O22       1.0  0.68700  0.48700  0.64700  1.0000
  O   O23       1.0  0.94000  0.31000  0.71000  1.0000
  O   O24       1.0  0.00756  0.69100  0.72600  1.0000
  O   O25       1.0  0.31700  0.30900  0.77400  1.0000
  O   O26       1.0  0.63000  0.69000  0.79000  1.0000
  O   O27       1.0  0.20000  0.51300  0.85300  1.0000
  O   O28       1.0  0.76100  0.49200  0.86700  1.0000
  O   O29       1.0  0.36900  0.84300  0.87900  1.0000
  O   O30       1.0  0.58000  0.18600  0.88900  1.0000
  O   O31       1.0  0.82200  0.04410  0.95300  1.0000
  O   O32       1.0  0.95500  0.30100  0.99400  1.0000
  P   P1        1.0  0.25100  0.83200  0.00949  1.0000
  P   P2        1.0  0.22400  0.40100  0.24100  1.0000
  P   P3        1.0  0.82300  0.59900  0.25900  1.0000
  P   P4        1.0  0.41900  0.16800  0.49100  1.0000
  P   P5        1.0  0.58100  0.83200  0.50900  1.0000
  P   P6        1.0  0.17700  0.40100  0.74100  1.0000
  P   P7        1.0  0.77600  0.59900  0.75900  1.0000
  P   P8        1.0  0.74900  0.16800  0.99100  1.0000
