data_image0
_chemical_formula_structural       Ba4O32P8Zn8
_chemical_formula_sum              "Ba4 O32 P8 Zn8"
_cell_length_a       8.56154
_cell_length_b       9.7522
_cell_length_c       9.03969
_cell_angle_alpha    90
_cell_angle_beta     91.5153
_cell_angle_gamma    90

_space_group_name_H-M_alt    "P 1"
_space_group_IT_number       1

loop_
  _space_group_symop_operation_xyz
  'x, y, z'

loop_
  _atom_site_type_symbol
  _atom_site_label
  _atom_site_symmetry_multiplicity
  _atom_site_fract_x
  _atom_site_fract_y
  _atom_site_fract_z
  _atom_site_occupancy
  Ba  Ba1       1.0  0.74600  0.58400  0.10900  1.0000
  Ba  Ba2       1.0  0.25400  0.08360  0.39100  1.0000
  Ba  Ba3       1.0  0.74600  0.91600  0.60900  1.0000
  Ba  Ba4       1.0  0.25400  0.41600  0.89100  1.0000
  O   O1        1.0  0.20000  0.84900  0.00175  1.0000
  O   O2        1.0  0.91400  0.80900  0.04110  1.0000
  O   O3        1.0  0.55600  0.80500  0.11800  1.0000
  O   O4        1.0  0.94100  0.35600  0.11900  1.0000
  O   O5        1.0  0.54800  0.36800  0.12600  1.0000
  O   O6        1.0  0.27500  0.42400  0.18900  1.0000
  O   O7        1.0  0.49100  0.05080  0.19000  1.0000
  O   O8        1.0  0.00000  0.11500  0.20800  1.0000
  O   O9        1.0  0.00019  0.61500  0.29200  1.0000
  O   O10       1.0  0.50900  0.55100  0.31000  1.0000
  O   O11       1.0  0.72500  0.92400  0.31100  1.0000
  O   O12       1.0  0.45200  0.86800  0.37400  1.0000
  O   O13       1.0  0.05880  0.85600  0.38100  1.0000
  O   O14       1.0  0.44400  0.30500  0.38200  1.0000
  O   O15       1.0  0.08630  0.30900  0.45900  1.0000
  O   O16       1.0  0.80000  0.34900  0.49800  1.0000
  O   O17       1.0  0.20000  0.65100  0.50200  1.0000
  O   O18       1.0  0.91400  0.69100  0.54100  1.0000
  O   O19       1.0  0.55600  0.69500  0.61800  1.0000
  O   O20       1.0  0.94100  0.14400  0.61900  1.0000
  O   O21       1.0  0.54800  0.13200  0.62600  1.0000
  O   O22       1.0  0.27500  0.07590  0.68900  1.0000
  O   O23       1.0  0.49100  0.44900  0.69000  1.0000
  O   O24       1.0  0.00000  0.38500  0.70800  1.0000
  O   O25       1.0  0.00019  0.88500  0.79200  1.0000
  O   O26       1.0  0.50900  0.94900  0.81000  1.0000
  O   O27       1.0  0.72500  0.57600  0.81100  1.0000
  O   O28       1.0  0.45200  0.63200  0.87400  1.0000
  O   O29       1.0  0.05880  0.64400  0.88100  1.0000
  O   O30       1.0  0.44400  0.19500  0.88200  1.0000
  O   O31       1.0  0.08630  0.19100  0.95900  1.0000
  O   O32       1.0  0.80000  0.15100  0.99800  1.0000
  P   P1        1.0  0.95200  0.20400  0.07090  1.0000
  P   P2        1.0  0.55700  0.91100  0.24400  1.0000
  P   P3        1.0  0.44300  0.41100  0.25600  1.0000
  P   P4        1.0  0.04750  0.70400  0.42900  1.0000
  P   P5        1.0  0.95200  0.29600  0.57100  1.0000
  P   P6        1.0  0.55700  0.58900  0.74400  1.0000
  P   P7        1.0  0.44300  0.08860  0.75600  1.0000
  P   P8        1.0  0.04750  0.79600  0.92900  1.0000
  Zn  Zn1       1.0  0.58700  0.18100  0.05570  1.0000
  Zn  Zn2       1.0  0.92600  0.92600  0.21200  1.0000
  Zn  Zn3       1.0  0.07410  0.42600  0.28800  1.0000
  Zn  Zn4       1.0  0.41300  0.68100  0.44400  1.0000
  Zn  Zn5       1.0  0.58700  0.31900  0.55600  1.0000
  Zn  Zn6       1.0  0.92600  0.57400  0.71200  1.0000
  Zn  Zn7       1.0  0.07410  0.07420  0.78800  1.0000
  Zn  Zn8       1.0  0.41300  0.81900  0.94400  1.0000
