data_image0
_chemical_formula_structural       Ba12Mn6Na3O27
_chemical_formula_sum              "Ba12 Mn6 Na3 O27"
_cell_length_a       10.0207
_cell_length_b       10.0207
_cell_length_c       8.28627
_cell_angle_alpha    90
_cell_angle_beta     89.9996
_cell_angle_gamma    120

_space_group_name_H-M_alt    "P 1"
_space_group_IT_number       1

loop_
  _space_group_symop_operation_xyz
  'x, y, z'

loop_
  _atom_site_type_symbol
  _atom_site_label
  _atom_site_symmetry_multiplicity
  _atom_site_fract_x
  _atom_site_fract_y
  _atom_site_fract_z
  _atom_site_occupancy
  Ba  Ba1       1.0  0.32900  0.00000  0.00000  1.0000
  Ba  Ba2       1.0  0.00000  0.32900  0.00000  1.0000
  Ba  Ba3       1.0  0.67100  0.67100  0.00000  1.0000
  Ba  Ba4       1.0  0.02220  0.68800  0.24700  1.0000
  Ba  Ba5       1.0  0.66500  0.97800  0.24700  1.0000
  Ba  Ba6       1.0  0.31200  0.33500  0.24700  1.0000
  Ba  Ba7       1.0  0.35500  0.00000  0.50000  1.0000
  Ba  Ba8       1.0  0.64500  0.64500  0.50000  1.0000
  Ba  Ba9       1.0  0.00000  0.35500  0.50000  1.0000
  Ba  Ba10      1.0  0.33500  0.31200  0.75300  1.0000
  Ba  Ba11      1.0  0.68800  0.02220  0.75300  1.0000
  Ba  Ba12      1.0  0.97800  0.66500  0.75300  1.0000
  Mn  Mn1       1.0  0.33300  0.66700  0.08400  1.0000
  Mn  Mn2       1.0  0.00000  0.00000  0.16100  1.0000
  Mn  Mn3       1.0  0.33300  0.66700  0.40500  1.0000
  Mn  Mn4       1.0  0.66700  0.33300  0.59500  1.0000
  Mn  Mn5       1.0  0.00000  0.00000  0.83900  1.0000
  Mn  Mn6       1.0  0.66700  0.33300  0.91600  1.0000
  Na  Na1       1.0  0.66700  0.33300  0.25600  1.0000
  Na  Na2       1.0  0.00000  0.00000  0.50000  1.0000
  Na  Na3       1.0  0.33300  0.66700  0.74400  1.0000
  O   O1        1.0  0.85400  0.00000  0.00000  1.0000
  O   O2        1.0  0.14600  0.14600  0.00000  1.0000
  O   O3        1.0  0.00000  0.85400  0.00000  1.0000
  O   O4        1.0  0.82100  0.49100  0.03940  1.0000
  O   O5        1.0  0.50900  0.32900  0.03940  1.0000
  O   O6        1.0  0.67100  0.17900  0.03940  1.0000
  O   O7        1.0  0.34500  0.82100  0.24500  1.0000
  O   O8        1.0  0.47700  0.65500  0.24500  1.0000
  O   O9        1.0  0.17900  0.52300  0.24500  1.0000
  O   O10       1.0  0.99000  0.15500  0.28200  1.0000
  O   O11       1.0  0.16500  0.00981  0.28200  1.0000
  O   O12       1.0  0.84500  0.83500  0.28200  1.0000
  O   O13       1.0  0.50200  0.32100  0.47100  1.0000
  O   O14       1.0  0.67900  0.18200  0.47100  1.0000
  O   O15       1.0  0.81800  0.49800  0.47100  1.0000
  O   O16       1.0  0.18200  0.67900  0.52900  1.0000
  O   O17       1.0  0.32100  0.50200  0.52900  1.0000
  O   O18       1.0  0.49800  0.81800  0.52900  1.0000
  O   O19       1.0  0.15500  0.99000  0.71800  1.0000
  O   O20       1.0  0.00981  0.16500  0.71800  1.0000
  O   O21       1.0  0.83500  0.84500  0.71800  1.0000
  O   O22       1.0  0.65500  0.47700  0.75500  1.0000
  O   O23       1.0  0.82100  0.34500  0.75500  1.0000
  O   O24       1.0  0.52300  0.17900  0.75500  1.0000
  O   O25       1.0  0.49100  0.82100  0.96100  1.0000
  O   O26       1.0  0.32900  0.50900  0.96100  1.0000
  O   O27       1.0  0.17900  0.67100  0.96100  1.0000
