data_image0
_chemical_formula_structural       B16O28Rb8
_chemical_formula_sum              "B16 O28 Rb8"
_cell_length_a       9.73379
_cell_length_b       10.5881
_cell_length_c       6.60792
_cell_angle_alpha    103.381
_cell_angle_beta     101.345
_cell_angle_gamma    89.457

_space_group_name_H-M_alt    "P 1"
_space_group_IT_number       1

loop_
  _space_group_symop_operation_xyz
  'x, y, z'

loop_
  _atom_site_type_symbol
  _atom_site_label
  _atom_site_symmetry_multiplicity
  _atom_site_fract_x
  _atom_site_fract_y
  _atom_site_fract_z
  _atom_site_occupancy
  B   B1        1.0  0.77900  0.89900  0.05870  1.0000
  B   B2        1.0  0.29500  0.32000  0.10600  1.0000
  B   B3        1.0  0.55900  0.80600  0.12600  1.0000
  B   B4        1.0  0.79900  0.14800  0.14000  1.0000
  B   B5        1.0  0.31100  0.75100  0.17000  1.0000
  B   B6        1.0  0.91400  0.73200  0.19700  1.0000
  B   B7        1.0  0.29500  0.55300  0.31400  1.0000
  B   B8        1.0  0.15900  0.74000  0.44400  1.0000
  B   B9        1.0  0.84100  0.26000  0.55600  1.0000
  B   B10       1.0  0.70500  0.44700  0.68600  1.0000
  B   B11       1.0  0.08640  0.26800  0.80300  1.0000
  B   B12       1.0  0.68900  0.24900  0.83000  1.0000
  B   B13       1.0  0.20100  0.85200  0.86000  1.0000
  B   B14       1.0  0.44100  0.19400  0.87400  1.0000
  B   B15       1.0  0.70500  0.68000  0.89400  1.0000
  B   B16       1.0  0.22100  0.10100  0.94100  1.0000
  O   O1        1.0  0.79500  0.02500  0.01330  1.0000
  O   O2        1.0  0.43000  0.30600  0.02540  1.0000
  O   O3        1.0  0.75600  0.25100  0.05410  1.0000
  O   O4        1.0  0.81700  0.64000  0.06050  1.0000
  O   O5        1.0  0.25300  0.19900  0.14400  1.0000
  O   O6        1.0  0.33800  0.61100  0.17200  1.0000
  O   O7        1.0  0.66200  0.90300  0.18000  1.0000
  O   O8        1.0  0.90800  0.86100  0.19400  1.0000
  O   O9        1.0  0.44800  0.82600  0.22800  1.0000
  O   O10       1.0  0.31300  0.42200  0.30400  1.0000
  O   O11       1.0  0.22700  0.80700  0.32200  1.0000
  O   O12       1.0  0.01380  0.68500  0.33500  1.0000
  O   O13       1.0  0.85200  0.16800  0.35500  1.0000
  O   O14       1.0  0.23500  0.62100  0.47900  1.0000
  O   O15       1.0  0.76500  0.37900  0.52100  1.0000
  O   O16       1.0  0.14800  0.83200  0.64500  1.0000
  O   O17       1.0  0.98600  0.31500  0.66500  1.0000
  O   O18       1.0  0.77300  0.19300  0.67800  1.0000
  O   O19       1.0  0.68700  0.57800  0.69600  1.0000
  O   O20       1.0  0.55200  0.17400  0.77200  1.0000
  O   O21       1.0  0.09200  0.13900  0.80600  1.0000
  O   O22       1.0  0.33800  0.09680  0.82000  1.0000
  O   O23       1.0  0.66200  0.38900  0.82800  1.0000
  O   O24       1.0  0.74700  0.80100  0.85600  1.0000
  O   O25       1.0  0.18300  0.36000  0.93900  1.0000
  O   O26       1.0  0.24400  0.74900  0.94600  1.0000
  O   O27       1.0  0.57000  0.69400  0.97500  1.0000
  O   O28       1.0  0.20500  0.97500  0.98700  1.0000
  Rb  Rb1       1.0  0.62400  0.51200  0.23700  1.0000
  Rb  Rb2       1.0  0.99800  0.40300  0.24700  1.0000
  Rb  Rb3       1.0  0.52200  0.12500  0.33100  1.0000
  Rb  Rb4       1.0  0.13000  0.05270  0.37700  1.0000
  Rb  Rb5       1.0  0.87000  0.94700  0.62300  1.0000
  Rb  Rb6       1.0  0.47800  0.87500  0.66900  1.0000
  Rb  Rb7       1.0  0.00215  0.59700  0.75300  1.0000
  Rb  Rb8       1.0  0.37600  0.48800  0.76300  1.0000
