data_image0
_chemical_formula_structural       Cu6F8O24P8Rb4
_chemical_formula_sum              "Cu6 F8 O24 P8 Rb4"
_cell_length_a       7.62005
_cell_length_b       9.28065
_cell_length_c       9.16401
_cell_angle_alpha    90
_cell_angle_beta     95.1633
_cell_angle_gamma    90

_space_group_name_H-M_alt    "P 1"
_space_group_IT_number       1

loop_
  _space_group_symop_operation_xyz
  'x, y, z'

loop_
  _atom_site_type_symbol
  _atom_site_label
  _atom_site_symmetry_multiplicity
  _atom_site_fract_x
  _atom_site_fract_y
  _atom_site_fract_z
  _atom_site_occupancy
  Cu  Cu1       1.0  0.00000  0.00000  0.00000  1.0000
  Cu  Cu2       1.0  0.11100  0.64700  0.18400  1.0000
  Cu  Cu3       1.0  0.88900  0.14700  0.31600  1.0000
  Cu  Cu4       1.0  0.00000  0.50000  0.50000  1.0000
  Cu  Cu5       1.0  0.11100  0.85300  0.68400  1.0000
  Cu  Cu6       1.0  0.88900  0.35300  0.81600  1.0000
  F   F1        1.0  0.51700  0.83800  0.05130  1.0000
  F   F2        1.0  0.32200  0.29900  0.15000  1.0000
  F   F3        1.0  0.67800  0.79900  0.35000  1.0000
  F   F4        1.0  0.48300  0.33800  0.44900  1.0000
  F   F5        1.0  0.51700  0.66200  0.55100  1.0000
  F   F6        1.0  0.32200  0.20100  0.65000  1.0000
  F   F7        1.0  0.67800  0.70100  0.85000  1.0000
  F   F8        1.0  0.48300  0.16200  0.94900  1.0000
  O   O1        1.0  0.27200  0.65900  0.02440  1.0000
  O   O2        1.0  0.89900  0.66100  0.05150  1.0000
  O   O3        1.0  0.22500  0.93100  0.06100  1.0000
  O   O4        1.0  0.03760  0.15900  0.14600  1.0000
  O   O5        1.0  0.67500  0.17000  0.18200  1.0000
  O   O6        1.0  0.05200  0.42000  0.21800  1.0000
  O   O7        1.0  0.94800  0.92000  0.28200  1.0000
  O   O8        1.0  0.32500  0.67000  0.31800  1.0000
  O   O9        1.0  0.96200  0.65900  0.35400  1.0000
  O   O10       1.0  0.77500  0.43100  0.43900  1.0000
  O   O11       1.0  0.10100  0.16100  0.44900  1.0000
  O   O12       1.0  0.72800  0.15900  0.47600  1.0000
  O   O13       1.0  0.27200  0.84100  0.52400  1.0000
  O   O14       1.0  0.89900  0.83900  0.55100  1.0000
  O   O15       1.0  0.22500  0.56900  0.56100  1.0000
  O   O16       1.0  0.03760  0.34100  0.64600  1.0000
  O   O17       1.0  0.67500  0.33000  0.68200  1.0000
  O   O18       1.0  0.05200  0.07990  0.71800  1.0000
  O   O19       1.0  0.94800  0.58000  0.78200  1.0000
  O   O20       1.0  0.32500  0.83000  0.81800  1.0000
  O   O21       1.0  0.96200  0.84100  0.85400  1.0000
  O   O22       1.0  0.77500  0.06900  0.93900  1.0000
  O   O23       1.0  0.10100  0.33900  0.94900  1.0000
  O   O24       1.0  0.72800  0.34100  0.97600  1.0000
  P   P1        1.0  0.68100  0.18700  0.01740  1.0000
  P   P2        1.0  0.11200  0.31200  0.11300  1.0000
  P   P3        1.0  0.88800  0.81200  0.38700  1.0000
  P   P4        1.0  0.31900  0.68700  0.48300  1.0000
  P   P5        1.0  0.68100  0.31300  0.51700  1.0000
  P   P6        1.0  0.11200  0.18800  0.61300  1.0000
  P   P7        1.0  0.88800  0.68800  0.88700  1.0000
  P   P8        1.0  0.31900  0.81300  0.98300  1.0000
  Rb  Rb1       1.0  0.61500  0.53900  0.18500  1.0000
  Rb  Rb2       1.0  0.38500  0.03870  0.31500  1.0000
  Rb  Rb3       1.0  0.61500  0.96100  0.68500  1.0000
  Rb  Rb4       1.0  0.38500  0.46100  0.81500  1.0000
