data_image0
_chemical_formula_structural       C12Fe2H16N12O8Pr2
_chemical_formula_sum              "C12 Fe2 H16 N12 O8 Pr2"
_cell_length_a       7.3486
_cell_length_b       7.3486
_cell_length_c       13.5158
_cell_angle_alpha    90
_cell_angle_beta     90
_cell_angle_gamma    118.867

_space_group_name_H-M_alt    "P 1"
_space_group_IT_number       1

loop_
  _space_group_symop_operation_xyz
  'x, y, z'

loop_
  _atom_site_type_symbol
  _atom_site_label
  _atom_site_symmetry_multiplicity
  _atom_site_fract_x
  _atom_site_fract_y
  _atom_site_fract_z
  _atom_site_occupancy
  C   C1        1.0  0.36100  0.63900  0.05090  1.0000
  C   C2        1.0  0.35900  0.27200  0.08770  1.0000
  C   C3        1.0  0.72800  0.64100  0.08770  1.0000
  C   C4        1.0  0.35900  0.27200  0.41200  1.0000
  C   C5        1.0  0.72800  0.64100  0.41200  1.0000
  C   C6        1.0  0.36100  0.63900  0.44900  1.0000
  C   C7        1.0  0.63900  0.36100  0.55100  1.0000
  C   C8        1.0  0.27200  0.35900  0.58800  1.0000
  C   C9        1.0  0.64100  0.72800  0.58800  1.0000
  C   C10       1.0  0.27200  0.35900  0.91200  1.0000
  C   C11       1.0  0.64100  0.72800  0.91200  1.0000
  C   C12       1.0  0.63900  0.36100  0.94900  1.0000
  Fe  Fe1       1.0  0.50000  0.50000  0.00000  1.0000
  Fe  Fe2       1.0  0.50000  0.50000  0.50000  1.0000
  H   H1        1.0  0.80900  0.19100  0.03850  1.0000
  H   H2        1.0  0.91800  0.08160  0.09580  1.0000
  H   H3        1.0  0.64500  0.03050  0.19100  1.0000
  H   H4        1.0  0.96900  0.35500  0.19100  1.0000
  H   H5        1.0  0.64500  0.03050  0.30900  1.0000
  H   H6        1.0  0.96900  0.35500  0.30900  1.0000
  H   H7        1.0  0.91800  0.08160  0.40400  1.0000
  H   H8        1.0  0.80900  0.19100  0.46200  1.0000
  H   H9        1.0  0.19100  0.80900  0.53800  1.0000
  H   H10       1.0  0.08160  0.91800  0.59600  1.0000
  H   H11       1.0  0.03050  0.64500  0.69100  1.0000
  H   H12       1.0  0.35500  0.96900  0.69100  1.0000
  H   H13       1.0  0.03050  0.64500  0.80900  1.0000
  H   H14       1.0  0.35500  0.96900  0.80900  1.0000
  H   H15       1.0  0.08160  0.91800  0.90400  1.0000
  H   H16       1.0  0.19100  0.80900  0.96200  1.0000
  N   N1        1.0  0.27400  0.72600  0.08160  1.0000
  N   N2        1.0  0.26700  0.12900  0.14000  1.0000
  N   N3        1.0  0.87100  0.73300  0.14000  1.0000
  N   N4        1.0  0.26700  0.12900  0.36000  1.0000
  N   N5        1.0  0.87100  0.73300  0.36000  1.0000
  N   N6        1.0  0.27400  0.72600  0.41800  1.0000
  N   N7        1.0  0.72600  0.27400  0.58200  1.0000
  N   N8        1.0  0.12900  0.26700  0.64000  1.0000
  N   N9        1.0  0.73300  0.87100  0.64000  1.0000
  N   N10       1.0  0.12900  0.26700  0.86000  1.0000
  N   N11       1.0  0.73300  0.87100  0.86000  1.0000
  N   N12       1.0  0.72600  0.27400  0.91800  1.0000
  O   O1        1.0  0.84200  0.15800  0.10500  1.0000
  O   O2        1.0  0.02820  0.44600  0.25000  1.0000
  O   O3        1.0  0.55400  0.97200  0.25000  1.0000
  O   O4        1.0  0.84200  0.15800  0.39500  1.0000
  O   O5        1.0  0.15800  0.84200  0.60500  1.0000
  O   O6        1.0  0.44600  0.02820  0.75000  1.0000
  O   O7        1.0  0.97200  0.55400  0.75000  1.0000
  O   O8        1.0  0.15800  0.84200  0.89500  1.0000
  Pr  Pr1       1.0  0.17900  0.82100  0.25000  1.0000
  Pr  Pr2       1.0  0.82100  0.17900  0.75000  1.0000
