data_image0
_chemical_formula_structural       Al48Ru4
_chemical_formula_sum              "Al48 Ru4"
_cell_length_a       9.49415
_cell_length_b       9.49415
_cell_length_c       9.49415
_cell_angle_alpha    90
_cell_angle_beta     90
_cell_angle_gamma    90

_space_group_name_H-M_alt    "P 1"
_space_group_IT_number       1

loop_
  _space_group_symop_operation_xyz
  'x, y, z'

loop_
  _atom_site_type_symbol
  _atom_site_label
  _atom_site_symmetry_multiplicity
  _atom_site_fract_x
  _atom_site_fract_y
  _atom_site_fract_z
  _atom_site_occupancy
  Al  Al1       1.0  0.34900  0.00000  0.00000  1.0000
  Al  Al2       1.0  0.65100  0.00000  0.00000  1.0000
  Al  Al3       1.0  0.00000  0.34900  0.00000  1.0000
  Al  Al4       1.0  0.00000  0.65100  0.00000  1.0000
  Al  Al5       1.0  0.30300  0.30300  0.04160  1.0000
  Al  Al6       1.0  0.69700  0.69700  0.04160  1.0000
  Al  Al7       1.0  0.50000  0.50000  0.14000  1.0000
  Al  Al8       1.0  0.84700  0.15300  0.15300  1.0000
  Al  Al9       1.0  0.15300  0.84700  0.15300  1.0000
  Al  Al10      1.0  0.55100  0.19500  0.19500  1.0000
  Al  Al11      1.0  0.80500  0.44900  0.19500  1.0000
  Al  Al12      1.0  0.19500  0.55100  0.19500  1.0000
  Al  Al13      1.0  0.44900  0.80500  0.19500  1.0000
  Al  Al14      1.0  0.30300  0.04160  0.30300  1.0000
  Al  Al15      1.0  0.04160  0.30300  0.30300  1.0000
  Al  Al16      1.0  0.95800  0.69700  0.30300  1.0000
  Al  Al17      1.0  0.69700  0.95800  0.30300  1.0000
  Al  Al18      1.0  0.32600  0.32600  0.32600  1.0000
  Al  Al19      1.0  0.67400  0.67400  0.32600  1.0000
  Al  Al20      1.0  0.00000  0.00000  0.34900  1.0000
  Al  Al21      1.0  0.60300  0.39700  0.39700  1.0000
  Al  Al22      1.0  0.39700  0.60300  0.39700  1.0000
  Al  Al23      1.0  0.80500  0.19500  0.44900  1.0000
  Al  Al24      1.0  0.19500  0.80500  0.44900  1.0000
  Al  Al25      1.0  0.50000  0.14000  0.50000  1.0000
  Al  Al26      1.0  0.14000  0.50000  0.50000  1.0000
  Al  Al27      1.0  0.86000  0.50000  0.50000  1.0000
  Al  Al28      1.0  0.50000  0.86000  0.50000  1.0000
  Al  Al29      1.0  0.19500  0.19500  0.55100  1.0000
  Al  Al30      1.0  0.80500  0.80500  0.55100  1.0000
  Al  Al31      1.0  0.39700  0.39700  0.60300  1.0000
  Al  Al32      1.0  0.60300  0.60300  0.60300  1.0000
  Al  Al33      1.0  0.00000  0.00000  0.65100  1.0000
  Al  Al34      1.0  0.67400  0.32600  0.67400  1.0000
  Al  Al35      1.0  0.32600  0.67400  0.67400  1.0000
  Al  Al36      1.0  0.69700  0.04160  0.69700  1.0000
  Al  Al37      1.0  0.95800  0.30300  0.69700  1.0000
  Al  Al38      1.0  0.04160  0.69700  0.69700  1.0000
  Al  Al39      1.0  0.30300  0.95800  0.69700  1.0000
  Al  Al40      1.0  0.44900  0.19500  0.80500  1.0000
  Al  Al41      1.0  0.19500  0.44900  0.80500  1.0000
  Al  Al42      1.0  0.80500  0.55100  0.80500  1.0000
  Al  Al43      1.0  0.55100  0.80500  0.80500  1.0000
  Al  Al44      1.0  0.15300  0.15300  0.84700  1.0000
  Al  Al45      1.0  0.84700  0.84700  0.84700  1.0000
  Al  Al46      1.0  0.50000  0.50000  0.86000  1.0000
  Al  Al47      1.0  0.69700  0.30300  0.95800  1.0000
  Al  Al48      1.0  0.30300  0.69700  0.95800  1.0000
  Ru  Ru1       1.0  0.11400  0.11400  0.11400  1.0000
  Ru  Ru2       1.0  0.88600  0.88600  0.11400  1.0000
  Ru  Ru3       1.0  0.88600  0.11400  0.88600  1.0000
  Ru  Ru4       1.0  0.11400  0.88600  0.88600  1.0000
