data_image0
_chemical_formula_structural       Ba16Li4Mo8N28
_chemical_formula_sum              "Ba16 Li4 Mo8 N28"
_cell_length_a       15.4162
_cell_length_b       6.41465
_cell_length_c       10.436
_cell_angle_alpha    90
_cell_angle_beta     99.5457
_cell_angle_gamma    90

_space_group_name_H-M_alt    "P 1"
_space_group_IT_number       1

loop_
  _space_group_symop_operation_xyz
  'x, y, z'

loop_
  _atom_site_type_symbol
  _atom_site_label
  _atom_site_symmetry_multiplicity
  _atom_site_fract_x
  _atom_site_fract_y
  _atom_site_fract_z
  _atom_site_occupancy
  Ba  Ba1       1.0  0.07880  0.22600  0.92300  1.0000
  Ba  Ba2       1.0  0.42100  0.22600  0.57700  1.0000
  Ba  Ba3       1.0  0.57900  0.77400  0.42300  1.0000
  Ba  Ba4       1.0  0.92100  0.77400  0.07670  1.0000
  Ba  Ba5       1.0  0.62100  0.15700  0.92200  1.0000
  Ba  Ba6       1.0  0.87900  0.15700  0.57800  1.0000
  Ba  Ba7       1.0  0.37900  0.84300  0.07760  1.0000
  Ba  Ba8       1.0  0.12100  0.84300  0.42200  1.0000
  Ba  Ba9       1.0  0.48300  0.71900  0.74400  1.0000
  Ba  Ba10      1.0  0.01740  0.71900  0.75600  1.0000
  Ba  Ba11      1.0  0.51700  0.28100  0.25600  1.0000
  Ba  Ba12      1.0  0.98300  0.28100  0.24400  1.0000
  Ba  Ba13      1.0  0.25000  0.99900  0.75000  1.0000
  Ba  Ba14      1.0  0.75000  0.00098  0.25000  1.0000
  Ba  Ba15      1.0  0.25000  0.30100  0.25000  1.0000
  Ba  Ba16      1.0  0.75000  0.69900  0.75000  1.0000
  Li  Li1       1.0  0.75900  0.47400  0.11900  1.0000
  Li  Li2       1.0  0.74100  0.47400  0.38100  1.0000
  Li  Li3       1.0  0.24100  0.52600  0.88100  1.0000
  Li  Li4       1.0  0.25900  0.52600  0.61900  1.0000
  Mo  Mo1       1.0  0.40000  0.32800  0.92000  1.0000
  Mo  Mo2       1.0  0.10000  0.32800  0.58000  1.0000
  Mo  Mo3       1.0  0.60000  0.67200  0.07970  1.0000
  Mo  Mo4       1.0  0.90000  0.67200  0.42000  1.0000
  Mo  Mo5       1.0  0.65200  0.23300  0.60700  1.0000
  Mo  Mo6       1.0  0.84800  0.23300  0.89300  1.0000
  Mo  Mo7       1.0  0.34800  0.76700  0.39300  1.0000
  Mo  Mo8       1.0  0.15200  0.76700  0.10700  1.0000
  N   N1        1.0  0.58200  0.01260  0.64300  1.0000
  N   N2        1.0  0.91800  0.01260  0.85700  1.0000
  N   N3        1.0  0.41800  0.98700  0.35700  1.0000
  N   N4        1.0  0.08220  0.98700  0.14300  1.0000
  N   N5        1.0  0.18500  0.28900  0.47500  1.0000
  N   N6        1.0  0.31500  0.28900  0.02500  1.0000
  N   N7        1.0  0.81500  0.71100  0.52500  1.0000
  N   N8        1.0  0.68500  0.71100  0.97500  1.0000
  N   N9        1.0  0.91200  0.47500  0.88700  1.0000
  N   N10       1.0  0.58800  0.47500  0.61300  1.0000
  N   N11       1.0  0.75000  0.24900  0.75000  1.0000
  N   N12       1.0  0.25000  0.75100  0.25000  1.0000
  N   N13       1.0  0.06760  0.06920  0.63700  1.0000
  N   N14       1.0  0.43200  0.06920  0.86300  1.0000
  N   N15       1.0  0.93200  0.93100  0.36300  1.0000
  N   N16       1.0  0.56800  0.93100  0.13700  1.0000
  N   N17       1.0  0.00000  0.50000  0.50000  1.0000
  N   N18       1.0  0.50000  0.50000  0.00000  1.0000
  N   N19       1.0  0.19000  0.80900  0.94800  1.0000
  N   N20       1.0  0.31000  0.80900  0.55200  1.0000
  N   N21       1.0  0.81000  0.19100  0.05210  1.0000
  N   N22       1.0  0.69000  0.19100  0.44800  1.0000
  N   N23       1.0  0.34700  0.46800  0.77500  1.0000
  N   N24       1.0  0.15300  0.46800  0.72500  1.0000
  N   N25       1.0  0.65300  0.53200  0.22500  1.0000
  N   N26       1.0  0.84700  0.53200  0.27500  1.0000
  N   N27       1.0  0.08800  0.52500  0.11300  1.0000
  N   N28       1.0  0.41200  0.52500  0.38700  1.0000
