data_image0
_chemical_formula_structural       P32S72
_chemical_formula_sum              "P32 S72"
_cell_length_a       15.3743
_cell_length_b       15.3743
_cell_length_c       15.3743
_cell_angle_alpha    109.471
_cell_angle_beta     109.471
_cell_angle_gamma    109.471

_space_group_name_H-M_alt    "P 1"
_space_group_IT_number       1

loop_
  _space_group_symop_operation_xyz
  'x, y, z'

loop_
  _atom_site_type_symbol
  _atom_site_label
  _atom_site_symmetry_multiplicity
  _atom_site_fract_x
  _atom_site_fract_y
  _atom_site_fract_z
  _atom_site_occupancy
  P   P1        1.0  0.15300  0.50000  0.00000  1.0000
  P   P2        1.0  0.84700  0.50000  0.00000  1.0000
  P   P3        1.0  0.63900  0.39100  0.04560  1.0000
  P   P4        1.0  0.24800  0.13900  0.09310  1.0000
  P   P5        1.0  0.74800  0.65500  0.10900  1.0000
  P   P6        1.0  0.09310  0.24800  0.13900  1.0000
  P   P7        1.0  0.50000  0.00000  0.15300  1.0000
  P   P8        1.0  0.40700  0.54600  0.15500  1.0000
  P   P9        1.0  0.13900  0.09310  0.24800  1.0000
  P   P10       1.0  0.34500  0.89100  0.25200  1.0000
  P   P11       1.0  0.89100  0.25200  0.34500  1.0000
  P   P12       1.0  0.34700  0.34700  0.34700  1.0000
  P   P13       1.0  0.60900  0.95400  0.36100  1.0000
  P   P14       1.0  0.04560  0.63900  0.39100  1.0000
  P   P15       1.0  0.54600  0.15500  0.40700  1.0000
  P   P16       1.0  0.84500  0.59300  0.45400  1.0000
  P   P17       1.0  0.00000  0.15300  0.50000  1.0000
  P   P18       1.0  0.00000  0.84700  0.50000  1.0000
  P   P19       1.0  0.15500  0.40700  0.54600  1.0000
  P   P20       1.0  0.45400  0.84500  0.59300  1.0000
  P   P21       1.0  0.95400  0.36100  0.60900  1.0000
  P   P22       1.0  0.39100  0.04560  0.63900  1.0000
  P   P23       1.0  0.65300  0.65300  0.65300  1.0000
  P   P24       1.0  0.10900  0.74800  0.65500  1.0000
  P   P25       1.0  0.65500  0.10900  0.74800  1.0000
  P   P26       1.0  0.86100  0.90700  0.75200  1.0000
  P   P27       1.0  0.59300  0.45400  0.84500  1.0000
  P   P28       1.0  0.50000  0.00000  0.84700  1.0000
  P   P29       1.0  0.90700  0.75200  0.86100  1.0000
  P   P30       1.0  0.25200  0.34500  0.89100  1.0000
  P   P31       1.0  0.75200  0.86100  0.90700  1.0000
  P   P32       1.0  0.36100  0.60900  0.95400  1.0000
  S   S1        1.0  0.71700  0.92500  0.01080  1.0000
  S   S2        1.0  0.13400  0.18000  0.02560  1.0000
  S   S3        1.0  0.36600  0.39100  0.04560  1.0000
  S   S4        1.0  0.77700  0.39300  0.04760  1.0000
  S   S5        1.0  0.98900  0.28300  0.07520  1.0000
  S   S6        1.0  0.57500  0.29200  0.08600  1.0000
  S   S7        1.0  0.88400  0.65400  0.10700  1.0000
  S   S8        1.0  0.47400  0.65400  0.10900  1.0000
  S   S9        1.0  0.34600  0.89300  0.11600  1.0000
  S   S10       1.0  0.18000  0.02560  0.13400  1.0000
  S   S11       1.0  0.68000  0.54600  0.15400  1.0000
  S   S12       1.0  0.27100  0.54800  0.15400  1.0000
  S   S13       1.0  0.02560  0.13400  0.18000  1.0000
  S   S14       1.0  0.79200  0.21700  0.20600  1.0000
  S   S15       1.0  0.78300  0.79400  0.20800  1.0000
  S   S16       1.0  0.20600  0.79200  0.21700  1.0000
  S   S17       1.0  0.60700  0.95200  0.22300  1.0000
  S   S18       1.0  0.38400  0.27700  0.22900  1.0000
  S   S19       1.0  0.54800  0.15400  0.27100  1.0000
  S   S20       1.0  0.22900  0.38400  0.27700  1.0000
  S   S21       1.0  0.07520  0.98900  0.28300  1.0000
  S   S22       1.0  0.08600  0.57500  0.29200  1.0000
  S   S23       1.0  0.51100  0.58600  0.29400  1.0000
  S   S24       1.0  0.45400  0.84600  0.32000  1.0000
  S   S25       1.0  0.89300  0.11600  0.34600  1.0000
  S   S26       1.0  0.89100  0.52600  0.34600  1.0000
  S   S27       1.0  0.39100  0.04560  0.36600  1.0000
  S   S28       1.0  0.27700  0.22900  0.38400  1.0000
  S   S29       1.0  0.04560  0.36600  0.39100  1.0000
  S   S30       1.0  0.04760  0.77700  0.39300  1.0000
  S   S31       1.0  0.70600  0.48900  0.41400  1.0000
  S   S32       1.0  0.70800  0.91400  0.42500  1.0000
  S   S33       1.0  0.84600  0.72900  0.45200  1.0000
  S   S34       1.0  0.84600  0.32000  0.45400  1.0000
  S   S35       1.0  0.65400  0.10900  0.47400  1.0000
  S   S36       1.0  0.41400  0.70600  0.48900  1.0000
  S   S37       1.0  0.58600  0.29400  0.51100  1.0000
  S   S38       1.0  0.34600  0.89100  0.52600  1.0000
  S   S39       1.0  0.15400  0.68000  0.54600  1.0000
  S   S40       1.0  0.15400  0.27100  0.54800  1.0000
  S   S41       1.0  0.29200  0.08600  0.57500  1.0000
  S   S42       1.0  0.29400  0.51100  0.58600  1.0000
  S   S43       1.0  0.95200  0.22300  0.60700  1.0000
  S   S44       1.0  0.95400  0.63400  0.60900  1.0000
  S   S45       1.0  0.72300  0.77100  0.61600  1.0000
  S   S46       1.0  0.60900  0.95400  0.63400  1.0000
  S   S47       1.0  0.10900  0.47400  0.65400  1.0000
  S   S48       1.0  0.10700  0.88400  0.65400  1.0000
  S   S49       1.0  0.54600  0.15400  0.68000  1.0000
  S   S50       1.0  0.48900  0.41400  0.70600  1.0000
  S   S51       1.0  0.91400  0.42500  0.70800  1.0000
  S   S52       1.0  0.92500  0.01080  0.71700  1.0000
  S   S53       1.0  0.77100  0.61600  0.72300  1.0000
  S   S54       1.0  0.45200  0.84600  0.72900  1.0000
  S   S55       1.0  0.61600  0.72300  0.77100  1.0000
  S   S56       1.0  0.39300  0.04760  0.77700  1.0000
  S   S57       1.0  0.79400  0.20800  0.78300  1.0000
  S   S58       1.0  0.21700  0.20600  0.79200  1.0000
  S   S59       1.0  0.20800  0.78300  0.79400  1.0000
  S   S60       1.0  0.97400  0.86600  0.82000  1.0000
  S   S61       1.0  0.72900  0.45200  0.84600  1.0000
  S   S62       1.0  0.32000  0.45400  0.84600  1.0000
  S   S63       1.0  0.82000  0.97400  0.86600  1.0000
  S   S64       1.0  0.65400  0.10700  0.88400  1.0000
  S   S65       1.0  0.52600  0.34600  0.89100  1.0000
  S   S66       1.0  0.11600  0.34600  0.89300  1.0000
  S   S67       1.0  0.42500  0.70800  0.91400  1.0000
  S   S68       1.0  0.01080  0.71700  0.92500  1.0000
  S   S69       1.0  0.22300  0.60700  0.95200  1.0000
  S   S70       1.0  0.63400  0.60900  0.95400  1.0000
  S   S71       1.0  0.86600  0.82000  0.97400  1.0000
  S   S72       1.0  0.28300  0.07520  0.98900  1.0000
