data_image0
_chemical_formula_structural       Ca12H12O26Si4
_chemical_formula_sum              "Ca12 H12 O26 Si4"
_cell_length_a       9.94123
_cell_length_b       9.9413
_cell_length_c       7.41351
_cell_angle_alpha    90
_cell_angle_beta     90.0001
_cell_angle_gamma    120

_space_group_name_H-M_alt    "P 1"
_space_group_IT_number       1

loop_
  _space_group_symop_operation_xyz
  'x, y, z'

loop_
  _atom_site_type_symbol
  _atom_site_label
  _atom_site_symmetry_multiplicity
  _atom_site_fract_x
  _atom_site_fract_y
  _atom_site_fract_z
  _atom_site_occupancy
  Ca  Ca1       1.0  0.33600  0.95300  0.24100  1.0000
  Ca  Ca2       1.0  0.61700  0.66400  0.24100  1.0000
  Ca  Ca3       1.0  0.04700  0.38300  0.24100  1.0000
  Ca  Ca4       1.0  0.95300  0.61700  0.50000  1.0000
  Ca  Ca5       1.0  0.38300  0.33600  0.50000  1.0000
  Ca  Ca6       1.0  0.66400  0.04670  0.50000  1.0000
  Ca  Ca7       1.0  0.03850  0.37000  0.74900  1.0000
  Ca  Ca8       1.0  0.63000  0.66900  0.74900  1.0000
  Ca  Ca9       1.0  0.33100  0.96200  0.74900  1.0000
  Ca  Ca10      1.0  0.66900  0.03860  0.99200  1.0000
  Ca  Ca11      1.0  0.37000  0.33100  0.99200  1.0000
  Ca  Ca12      1.0  0.96100  0.63000  0.99200  1.0000
  H   H1        1.0  0.00035  0.82300  0.25000  1.0000
  H   H2        1.0  0.17700  0.17700  0.25000  1.0000
  H   H3        1.0  0.82300  1.00000  0.25000  1.0000
  H   H4        1.0  0.17600  0.99900  0.49100  1.0000
  H   H5        1.0  0.82300  0.82400  0.49100  1.0000
  H   H6        1.0  0.00108  0.17700  0.49100  1.0000
  H   H7        1.0  0.16500  0.15400  0.74100  1.0000
  H   H8        1.0  0.84600  0.01110  0.74100  1.0000
  H   H9        1.0  0.98900  0.83500  0.74100  1.0000
  H   H10       1.0  0.01010  0.16400  0.99700  1.0000
  H   H11       1.0  0.15300  0.99000  0.99700  1.0000
  H   H12       1.0  0.83600  0.84700  0.99700  1.0000
  O   O1        1.0  0.93500  0.19900  0.00394  1.0000
  O   O2        1.0  0.26400  0.06480  0.00394  1.0000
  O   O3        1.0  0.80100  0.73600  0.00395  1.0000
  O   O4        1.0  0.55500  0.40400  0.21900  1.0000
  O   O5        1.0  0.59600  0.15000  0.21900  1.0000
  O   O6        1.0  0.85000  0.44500  0.21900  1.0000
  O   O7        1.0  0.33300  0.66700  0.24800  1.0000
  O   O8        1.0  0.07450  0.78600  0.25400  1.0000
  O   O9        1.0  0.71200  0.92600  0.25400  1.0000
  O   O10       1.0  0.21400  0.28800  0.25400  1.0000
  O   O11       1.0  0.78700  0.71300  0.48700  1.0000
  O   O12       1.0  0.28700  0.07390  0.48700  1.0000
  O   O13       1.0  0.92600  0.21300  0.48700  1.0000
  O   O14       1.0  0.66700  0.33300  0.49300  1.0000
  O   O15       1.0  0.15000  0.55400  0.52200  1.0000
  O   O16       1.0  0.44600  0.59600  0.52200  1.0000
  O   O17       1.0  0.40400  0.85000  0.52200  1.0000
  O   O18       1.0  0.19900  0.26400  0.73800  1.0000
  O   O19       1.0  0.73600  0.93500  0.73800  1.0000
  O   O20       1.0  0.06490  0.80100  0.73800  1.0000
  O   O21       1.0  0.84900  0.44700  0.76800  1.0000
  O   O22       1.0  0.59800  0.15100  0.76800  1.0000
  O   O23       1.0  0.55300  0.40200  0.76800  1.0000
  O   O24       1.0  0.44700  0.59800  0.97300  1.0000
  O   O25       1.0  0.40200  0.84900  0.97300  1.0000
  O   O26       1.0  0.15100  0.55300  0.97300  1.0000
  Si  Si1       1.0  0.33300  0.66700  0.02410  1.0000
  Si  Si2       1.0  0.66700  0.33300  0.27000  1.0000
  Si  Si3       1.0  0.33300  0.66700  0.47100  1.0000
  Si  Si4       1.0  0.66700  0.33300  0.71700  1.0000
