data_image0
_chemical_formula_structural       Cs2O36P10Ta4
_chemical_formula_sum              "Cs2 O36 P10 Ta4"
_cell_length_a       5.09611
_cell_length_b       10.7309
_cell_length_c       14.2685
_cell_angle_alpha    83.548
_cell_angle_beta     86.6727
_cell_angle_gamma    84.5645

_space_group_name_H-M_alt    "P 1"
_space_group_IT_number       1

loop_
  _space_group_symop_operation_xyz
  'x, y, z'

loop_
  _atom_site_type_symbol
  _atom_site_label
  _atom_site_symmetry_multiplicity
  _atom_site_fract_x
  _atom_site_fract_y
  _atom_site_fract_z
  _atom_site_occupancy
  Cs  Cs1       1.0  0.28200  0.09280  0.38500  1.0000
  Cs  Cs2       1.0  0.71800  0.90700  0.61500  1.0000
  O   O1        1.0  0.46100  0.59500  0.05950  1.0000
  O   O2        1.0  0.56300  0.83800  0.07180  1.0000
  O   O3        1.0  0.05480  0.18500  0.08130  1.0000
  O   O4        1.0  0.14900  0.42800  0.08300  1.0000
  O   O5        1.0  0.97200  0.65400  0.08420  1.0000
  O   O6        1.0  0.57200  0.23600  0.10000  1.0000
  O   O7        1.0  0.78000  0.01470  0.10900  1.0000
  O   O8        1.0  0.33800  0.96800  0.20000  1.0000
  O   O9        1.0  0.23700  0.54600  0.21600  1.0000
  O   O10       1.0  0.77300  0.82600  0.22600  1.0000
  O   O11       1.0  0.82100  0.15100  0.24700  1.0000
  O   O12       1.0  0.44800  0.70500  0.32700  1.0000
  O   O13       1.0  0.92500  0.66300  0.35000  1.0000
  O   O14       1.0  0.57600  0.43900  0.35300  1.0000
  O   O15       1.0  0.05570  0.40000  0.37700  1.0000
  O   O16       1.0  0.69000  0.86900  0.40000  1.0000
  O   O17       1.0  0.75400  0.22800  0.44100  1.0000
  O   O18       1.0  0.25800  0.56400  0.48800  1.0000
  O   O19       1.0  0.74200  0.43600  0.51200  1.0000
  O   O20       1.0  0.24600  0.77200  0.55900  1.0000
  O   O21       1.0  0.31000  0.13100  0.60000  1.0000
  O   O22       1.0  0.94400  0.60000  0.62300  1.0000
  O   O23       1.0  0.42400  0.56100  0.64700  1.0000
  O   O24       1.0  0.07520  0.33700  0.65000  1.0000
  O   O25       1.0  0.55200  0.29500  0.67300  1.0000
  O   O26       1.0  0.17900  0.84900  0.75300  1.0000
  O   O27       1.0  0.22700  0.17400  0.77400  1.0000
  O   O28       1.0  0.76300  0.45400  0.78400  1.0000
  O   O29       1.0  0.66200  0.03200  0.80000  1.0000
  O   O30       1.0  0.22000  0.98500  0.89100  1.0000
  O   O31       1.0  0.42800  0.76400  0.90000  1.0000
  O   O32       1.0  0.02780  0.34600  0.91600  1.0000
  O   O33       1.0  0.85100  0.57200  0.91700  1.0000
  O   O34       1.0  0.94500  0.81500  0.91900  1.0000
  O   O35       1.0  0.43700  0.16200  0.92800  1.0000
  O   O36       1.0  0.53900  0.40500  0.94000  1.0000
  P   P1        1.0  0.20300  0.55700  0.11100  1.0000
  P   P2        1.0  0.80900  0.14900  0.14500  1.0000
  P   P3        1.0  0.58600  0.91400  0.15700  1.0000
  P   P4        1.0  0.70300  0.77100  0.33500  1.0000
  P   P5        1.0  0.78100  0.36400  0.42100  1.0000
  P   P6        1.0  0.21900  0.63600  0.57900  1.0000
  P   P7        1.0  0.29700  0.22900  0.66500  1.0000
  P   P8        1.0  0.41400  0.08550  0.84300  1.0000
  P   P9        1.0  0.19100  0.85100  0.85500  1.0000
  P   P10       1.0  0.79700  0.44300  0.88900  1.0000
  Ta  Ta1       1.0  0.30100  0.28800  0.01090  1.0000
  Ta  Ta2       1.0  0.25300  0.55300  0.35500  1.0000
  Ta  Ta3       1.0  0.74700  0.44700  0.64500  1.0000
  Ta  Ta4       1.0  0.69900  0.71200  0.98900  1.0000
