data_image0
_chemical_formula_structural       Ba2K4O24S24
_chemical_formula_sum              "Ba2 K4 O24 S24"
_cell_length_a       11.5095
_cell_length_b       10.7599
_cell_length_c       9.07126
_cell_angle_alpha    90
_cell_angle_beta     111.563
_cell_angle_gamma    90

_space_group_name_H-M_alt    "P 1"
_space_group_IT_number       1

loop_
  _space_group_symop_operation_xyz
  'x, y, z'

loop_
  _atom_site_type_symbol
  _atom_site_label
  _atom_site_symmetry_multiplicity
  _atom_site_fract_x
  _atom_site_fract_y
  _atom_site_fract_z
  _atom_site_occupancy
  Ba  Ba1       1.0  0.00000  0.01530  0.25000  1.0000
  Ba  Ba2       1.0  0.00000  0.98500  0.75000  1.0000
  K   K1        1.0  0.50000  0.00000  0.00000  1.0000
  K   K2        1.0  0.00000  0.44600  0.25000  1.0000
  K   K3        1.0  0.50000  0.00000  0.50000  1.0000
  K   K4        1.0  0.00000  0.55400  0.75000  1.0000
  O   O1        1.0  0.89600  0.59600  0.00822  1.0000
  O   O2        1.0  0.74100  0.08560  0.07890  1.0000
  O   O3        1.0  0.13100  0.92400  0.08280  1.0000
  O   O4        1.0  0.86500  0.80900  0.08620  1.0000
  O   O5        1.0  0.08580  0.23200  0.15300  1.0000
  O   O6        1.0  0.36200  0.93200  0.20800  1.0000
  O   O7        1.0  0.63800  0.93200  0.29200  1.0000
  O   O8        1.0  0.91400  0.23200  0.34700  1.0000
  O   O9        1.0  0.13500  0.80900  0.41400  1.0000
  O   O10       1.0  0.86900  0.92400  0.41700  1.0000
  O   O11       1.0  0.25900  0.08560  0.42100  1.0000
  O   O12       1.0  0.10400  0.59600  0.49200  1.0000
  O   O13       1.0  0.89600  0.40400  0.50800  1.0000
  O   O14       1.0  0.74100  0.91400  0.57900  1.0000
  O   O15       1.0  0.13100  0.07650  0.58300  1.0000
  O   O16       1.0  0.86500  0.19100  0.58600  1.0000
  O   O17       1.0  0.08580  0.76800  0.65300  1.0000
  O   O18       1.0  0.36200  0.06810  0.70800  1.0000
  O   O19       1.0  0.63800  0.06810  0.79200  1.0000
  O   O20       1.0  0.91400  0.76800  0.84700  1.0000
  O   O21       1.0  0.13500  0.19100  0.91400  1.0000
  O   O22       1.0  0.86900  0.07650  0.91700  1.0000
  O   O23       1.0  0.25900  0.91400  0.92100  1.0000
  O   O24       1.0  0.10400  0.40400  0.99200  1.0000
  S   S1        1.0  0.14200  0.27700  0.04150  1.0000
  S   S2        1.0  0.40300  0.64500  0.05410  1.0000
  S   S3        1.0  0.25300  0.88800  0.07680  1.0000
  S   S4        1.0  0.24700  0.69100  0.10000  1.0000
  S   S5        1.0  0.34100  0.28500  0.16700  1.0000
  S   S6        1.0  0.64600  0.42300  0.17400  1.0000
  S   S7        1.0  0.35400  0.42300  0.32600  1.0000
  S   S8        1.0  0.65900  0.28500  0.33300  1.0000
  S   S9        1.0  0.75300  0.69100  0.40000  1.0000
  S   S10       1.0  0.74700  0.88800  0.42300  1.0000
  S   S11       1.0  0.59700  0.64500  0.44600  1.0000
  S   S12       1.0  0.85800  0.27700  0.45900  1.0000
  S   S13       1.0  0.14200  0.72300  0.54100  1.0000
  S   S14       1.0  0.40300  0.35500  0.55400  1.0000
  S   S15       1.0  0.25300  0.11200  0.57700  1.0000
  S   S16       1.0  0.24700  0.30900  0.60000  1.0000
  S   S17       1.0  0.34100  0.71500  0.66700  1.0000
  S   S18       1.0  0.64600  0.57700  0.67400  1.0000
  S   S19       1.0  0.35400  0.57700  0.82600  1.0000
  S   S20       1.0  0.65900  0.71500  0.83300  1.0000
  S   S21       1.0  0.75300  0.30900  0.90000  1.0000
  S   S22       1.0  0.74700  0.11200  0.92300  1.0000
  S   S23       1.0  0.59700  0.35500  0.94600  1.0000
  S   S24       1.0  0.85800  0.72300  0.95900  1.0000
