data_image0
_chemical_formula_structural       Lu2Mo8Na10O32
_chemical_formula_sum              "Lu2 Mo8 Na10 O32"
_cell_length_a       9.74138
_cell_length_b       9.74138
_cell_length_c       9.74138
_cell_angle_alpha    109.233
_cell_angle_beta     109.591
_cell_angle_gamma    109.591

_space_group_name_H-M_alt    "P 1"
_space_group_IT_number       1

loop_
  _space_group_symop_operation_xyz
  'x, y, z'

loop_
  _atom_site_type_symbol
  _atom_site_label
  _atom_site_symmetry_multiplicity
  _atom_site_fract_x
  _atom_site_fract_y
  _atom_site_fract_z
  _atom_site_occupancy
  Lu  Lu1       1.0  0.25000  0.87500  0.12500  1.0000
  Lu  Lu2       1.0  0.75000  0.12500  0.87500  1.0000
  Mo  Mo1       1.0  0.47600  0.20500  0.04360  1.0000
  Mo  Mo2       1.0  0.16100  0.22800  0.20500  1.0000
  Mo  Mo3       1.0  0.02360  0.56700  0.22800  1.0000
  Mo  Mo4       1.0  0.66100  0.95600  0.43300  1.0000
  Mo  Mo5       1.0  0.33900  0.04360  0.56700  1.0000
  Mo  Mo6       1.0  0.97600  0.43300  0.77200  1.0000
  Mo  Mo7       1.0  0.83900  0.77200  0.79500  1.0000
  Mo  Mo8       1.0  0.52400  0.79500  0.95600  1.0000
  Na  Na1       1.0  0.33600  0.53600  0.11000  1.0000
  Na  Na2       1.0  0.92600  0.89000  0.22600  1.0000
  Na  Na3       1.0  0.83600  0.22600  0.30000  1.0000
  Na  Na4       1.0  0.75000  0.62500  0.37500  1.0000
  Na  Na5       1.0  0.57400  0.30000  0.46400  1.0000
  Na  Na6       1.0  0.42600  0.70000  0.53600  1.0000
  Na  Na7       1.0  0.25000  0.37500  0.62500  1.0000
  Na  Na8       1.0  0.16400  0.77400  0.70000  1.0000
  Na  Na9       1.0  0.07400  0.11000  0.77400  1.0000
  Na  Na10      1.0  0.66400  0.46400  0.89000  1.0000
  O   O1        1.0  0.35500  0.30200  0.01150  1.0000
  O   O2        1.0  0.99300  0.85800  0.01430  1.0000
  O   O3        1.0  0.65600  0.01430  0.02170  1.0000
  O   O4        1.0  0.42200  0.77400  0.07770  1.0000
  O   O5        1.0  0.15600  0.63400  0.14200  1.0000
  O   O6        1.0  0.92200  0.34400  0.14800  1.0000
  O   O7        1.0  0.86200  0.62100  0.19300  1.0000
  O   O8        1.0  0.30400  0.14800  0.22600  1.0000
  O   O9        1.0  0.63800  0.33100  0.25900  1.0000
  O   O10       1.0  0.29100  0.44700  0.30200  1.0000
  O   O11       1.0  0.07200  0.19300  0.33100  1.0000
  O   O12       1.0  0.79100  0.98900  0.34400  1.0000
  O   O13       1.0  0.19600  0.92200  0.34400  1.0000
  O   O14       1.0  0.50700  0.02170  0.36600  1.0000
  O   O15       1.0  0.57200  0.74100  0.37900  1.0000
  O   O16       1.0  0.14500  0.65600  0.44700  1.0000
  O   O17       1.0  0.85500  0.34400  0.55300  1.0000
  O   O18       1.0  0.42800  0.25900  0.62100  1.0000
  O   O19       1.0  0.49300  0.97800  0.63400  1.0000
  O   O20       1.0  0.80400  0.07770  0.65600  1.0000
  O   O21       1.0  0.20900  0.01150  0.65600  1.0000
  O   O22       1.0  0.92800  0.80700  0.66900  1.0000
  O   O23       1.0  0.70900  0.55300  0.69800  1.0000
  O   O24       1.0  0.36200  0.66900  0.74100  1.0000
  O   O25       1.0  0.69600  0.85200  0.77400  1.0000
  O   O26       1.0  0.13800  0.37900  0.80700  1.0000
  O   O27       1.0  0.07820  0.65600  0.85200  1.0000
  O   O28       1.0  0.84400  0.36600  0.85800  1.0000
  O   O29       1.0  0.57800  0.22600  0.92200  1.0000
  O   O30       1.0  0.34400  0.98600  0.97800  1.0000
  O   O31       1.0  0.00741  0.14200  0.98600  1.0000
  O   O32       1.0  0.64500  0.69800  0.98900  1.0000
