data_image0
_chemical_formula_structural       B16Li4Na4O28
_chemical_formula_sum              "B16 Li4 Na4 O28"
_cell_length_a       8.30263
_cell_length_b       8.30263
_cell_length_c       8.68074
_cell_angle_alpha    111
_cell_angle_beta     111
_cell_angle_gamma    104.515

_space_group_name_H-M_alt    "P 1"
_space_group_IT_number       1

loop_
  _space_group_symop_operation_xyz
  'x, y, z'

loop_
  _atom_site_type_symbol
  _atom_site_label
  _atom_site_symmetry_multiplicity
  _atom_site_fract_x
  _atom_site_fract_y
  _atom_site_fract_z
  _atom_site_occupancy
  B   B1        1.0  0.94200  0.76400  0.04840  1.0000
  B   B2        1.0  0.37700  0.63600  0.08350  1.0000
  B   B3        1.0  0.46000  0.39300  0.15700  1.0000
  B   B4        1.0  0.02710  0.11100  0.24600  1.0000
  B   B5        1.0  0.03160  0.61500  0.25400  1.0000
  B   B6        1.0  0.55300  0.98600  0.34300  1.0000
  B   B7        1.0  0.54400  0.30300  0.41700  1.0000
  B   B8        1.0  0.14300  0.46600  0.45200  1.0000
  B   B9        1.0  0.01390  0.69200  0.54800  1.0000
  B   B10       1.0  0.88600  0.12700  0.58300  1.0000
  B   B11       1.0  0.64300  0.21000  0.65700  1.0000
  B   B12       1.0  0.36100  0.77700  0.74600  1.0000
  B   B13       1.0  0.86500  0.78200  0.75400  1.0000
  B   B14       1.0  0.23600  0.30300  0.84300  1.0000
  B   B15       1.0  0.55300  0.29400  0.91700  1.0000
  B   B16       1.0  0.71600  0.89300  0.95200  1.0000
  Li  Li1       1.0  0.75800  0.25300  0.24600  1.0000
  Li  Li2       1.0  0.76200  0.75700  0.25400  1.0000
  Li  Li3       1.0  0.50300  0.50800  0.74600  1.0000
  Li  Li4       1.0  0.00653  0.51200  0.75400  1.0000
  Na  Na1       1.0  0.28100  0.98900  0.02170  1.0000
  Na  Na2       1.0  0.50900  0.71800  0.47800  1.0000
  Na  Na3       1.0  0.23900  0.03090  0.52200  1.0000
  Na  Na4       1.0  0.96800  0.25900  0.97800  1.0000
  O   O1        1.0  0.26300  0.26300  0.00000  1.0000
  O   O2        1.0  0.74400  0.74400  0.00000  1.0000
  O   O3        1.0  0.98600  0.62200  0.09090  1.0000
  O   O4        1.0  0.59500  0.33200  0.09810  1.0000
  O   O5        1.0  0.85500  0.08880  0.11600  1.0000
  O   O6        1.0  0.40000  0.81900  0.16200  1.0000
  O   O7        1.0  0.50700  0.59100  0.19100  1.0000
  O   O8        1.0  0.08070  0.96300  0.21200  1.0000
  O   O9        1.0  0.11900  0.50200  0.28800  1.0000
  O   O10       1.0  0.56600  0.15000  0.30900  1.0000
  O   O11       1.0  0.48700  0.40700  0.33800  1.0000
  O   O12       1.0  0.99000  0.72300  0.38400  1.0000
  O   O13       1.0  0.74700  0.98400  0.40200  1.0000
  O   O14       1.0  0.14500  0.28100  0.40900  1.0000
  O   O15       1.0  0.51300  0.01290  0.50000  1.0000
  O   O16       1.0  0.99400  0.49400  0.50000  1.0000
  O   O17       1.0  0.87200  0.73600  0.59100  1.0000
  O   O18       1.0  0.58200  0.34500  0.59800  1.0000
  O   O19       1.0  0.33900  0.60500  0.61600  1.0000
  O   O20       1.0  0.06930  0.15000  0.66200  1.0000
  O   O21       1.0  0.84100  0.25700  0.69100  1.0000
  O   O22       1.0  0.21300  0.83100  0.71200  1.0000
  O   O23       1.0  0.75200  0.86900  0.78800  1.0000
  O   O24       1.0  0.40000  0.31600  0.80900  1.0000
  O   O25       1.0  0.65700  0.23700  0.83800  1.0000
  O   O26       1.0  0.97300  0.74000  0.88400  1.0000
  O   O27       1.0  0.23400  0.49700  0.90200  1.0000
  O   O28       1.0  0.53100  0.89500  0.90900  1.0000
