data_image0
_chemical_formula_structural       Cl32O8Si12
_chemical_formula_sum              "Cl32 O8 Si12"
_cell_length_a       10.8109
_cell_length_b       20.6846
_cell_length_c       6.25572
_cell_angle_alpha    90
_cell_angle_beta     90
_cell_angle_gamma    90

_space_group_name_H-M_alt    "P 1"
_space_group_IT_number       1

loop_
  _space_group_symop_operation_xyz
  'x, y, z'

loop_
  _atom_site_type_symbol
  _atom_site_label
  _atom_site_symmetry_multiplicity
  _atom_site_fract_x
  _atom_site_fract_y
  _atom_site_fract_z
  _atom_site_occupancy
  Cl  Cl1       1.0  0.92100  0.61800  0.04220  1.0000
  Cl  Cl2       1.0  0.92100  0.88200  0.04220  1.0000
  Cl  Cl3       1.0  0.20300  0.55500  0.04690  1.0000
  Cl  Cl4       1.0  0.20300  0.94500  0.04690  1.0000
  Cl  Cl5       1.0  0.60900  0.25000  0.08470  1.0000
  Cl  Cl6       1.0  0.44000  0.08060  0.08650  1.0000
  Cl  Cl7       1.0  0.44000  0.41900  0.08650  1.0000
  Cl  Cl8       1.0  0.68100  0.75000  0.20000  1.0000
  Cl  Cl9       1.0  0.18100  0.75000  0.30000  1.0000
  Cl  Cl10      1.0  0.94000  0.08060  0.41300  1.0000
  Cl  Cl11      1.0  0.94000  0.41900  0.41300  1.0000
  Cl  Cl12      1.0  0.10900  0.25000  0.41500  1.0000
  Cl  Cl13      1.0  0.70300  0.55500  0.45300  1.0000
  Cl  Cl14      1.0  0.70300  0.94500  0.45300  1.0000
  Cl  Cl15      1.0  0.42100  0.61800  0.45800  1.0000
  Cl  Cl16      1.0  0.42100  0.88200  0.45800  1.0000
  Cl  Cl17      1.0  0.57900  0.11800  0.54200  1.0000
  Cl  Cl18      1.0  0.57900  0.38200  0.54200  1.0000
  Cl  Cl19      1.0  0.29700  0.05500  0.54700  1.0000
  Cl  Cl20      1.0  0.29700  0.44500  0.54700  1.0000
  Cl  Cl21      1.0  0.89100  0.75000  0.58500  1.0000
  Cl  Cl22      1.0  0.05960  0.58100  0.58700  1.0000
  Cl  Cl23      1.0  0.05960  0.91900  0.58700  1.0000
  Cl  Cl24      1.0  0.81900  0.25000  0.70000  1.0000
  Cl  Cl25      1.0  0.31900  0.25000  0.80000  1.0000
  Cl  Cl26      1.0  0.56000  0.58100  0.91300  1.0000
  Cl  Cl27      1.0  0.56000  0.91900  0.91300  1.0000
  Cl  Cl28      1.0  0.39100  0.75000  0.91500  1.0000
  Cl  Cl29      1.0  0.79700  0.05500  0.95300  1.0000
  Cl  Cl30      1.0  0.79700  0.44500  0.95300  1.0000
  Cl  Cl31      1.0  0.07930  0.11800  0.95800  1.0000
  Cl  Cl32      1.0  0.07930  0.38200  0.95800  1.0000
  O   O1        1.0  0.85500  0.18700  0.13000  1.0000
  O   O2        1.0  0.85500  0.31300  0.13000  1.0000
  O   O3        1.0  0.35500  0.18700  0.37000  1.0000
  O   O4        1.0  0.35500  0.31300  0.37000  1.0000
  O   O5        1.0  0.64500  0.68700  0.63000  1.0000
  O   O6        1.0  0.64500  0.81300  0.63000  1.0000
  O   O7        1.0  0.14500  0.68700  0.87000  1.0000
  O   O8        1.0  0.14500  0.81300  0.87000  1.0000
  Si  Si1       1.0  0.79200  0.25000  0.02130  1.0000
  Si  Si2       1.0  0.91500  0.11500  0.11300  1.0000
  Si  Si3       1.0  0.91500  0.38500  0.11300  1.0000
  Si  Si4       1.0  0.41500  0.11500  0.38700  1.0000
  Si  Si5       1.0  0.41500  0.38500  0.38700  1.0000
  Si  Si6       1.0  0.29200  0.25000  0.47900  1.0000
  Si  Si7       1.0  0.70800  0.75000  0.52100  1.0000
  Si  Si8       1.0  0.58500  0.61500  0.61300  1.0000
  Si  Si9       1.0  0.58500  0.88500  0.61300  1.0000
  Si  Si10      1.0  0.08550  0.61500  0.88700  1.0000
  Si  Si11      1.0  0.08550  0.88500  0.88700  1.0000
  Si  Si12      1.0  0.20800  0.75000  0.97900  1.0000
