data_image0
_chemical_formula_structural       B8Gd8Na8O28
_chemical_formula_sum              "B8 Gd8 Na8 O28"
_cell_length_a       10.6074
_cell_length_b       6.26801
_cell_length_c       10.246
_cell_angle_alpha    90
_cell_angle_beta     117.857
_cell_angle_gamma    90

_space_group_name_H-M_alt    "P 1"
_space_group_IT_number       1

loop_
  _space_group_symop_operation_xyz
  'x, y, z'

loop_
  _atom_site_type_symbol
  _atom_site_label
  _atom_site_symmetry_multiplicity
  _atom_site_fract_x
  _atom_site_fract_y
  _atom_site_fract_z
  _atom_site_occupancy
  B   B1        1.0  0.68000  0.74800  0.07880  1.0000
  B   B2        1.0  0.21000  0.65200  0.14900  1.0000
  B   B3        1.0  0.79000  0.15200  0.35100  1.0000
  B   B4        1.0  0.32000  0.24800  0.42100  1.0000
  B   B5        1.0  0.68000  0.75200  0.57900  1.0000
  B   B6        1.0  0.21000  0.84800  0.64900  1.0000
  B   B7        1.0  0.79000  0.34800  0.85100  1.0000
  B   B8        1.0  0.32000  0.25200  0.92100  1.0000
  Gd  Gd1       1.0  0.18600  0.08030  0.08890  1.0000
  Gd  Gd2       1.0  0.98300  0.46100  0.18100  1.0000
  Gd  Gd3       1.0  0.01730  0.96100  0.31900  1.0000
  Gd  Gd4       1.0  0.81400  0.58000  0.41100  1.0000
  Gd  Gd5       1.0  0.18600  0.42000  0.58900  1.0000
  Gd  Gd6       1.0  0.98300  0.03930  0.68100  1.0000
  Gd  Gd7       1.0  0.01730  0.53900  0.81900  1.0000
  Gd  Gd8       1.0  0.81400  0.92000  0.91100  1.0000
  Na  Na1       1.0  0.61100  0.27100  0.04940  1.0000
  Na  Na2       1.0  0.47400  0.43900  0.23900  1.0000
  Na  Na3       1.0  0.52600  0.93900  0.26100  1.0000
  Na  Na4       1.0  0.38900  0.77100  0.45100  1.0000
  Na  Na5       1.0  0.61100  0.22900  0.54900  1.0000
  Na  Na6       1.0  0.47400  0.06080  0.73900  1.0000
  Na  Na7       1.0  0.52600  0.56100  0.76100  1.0000
  Na  Na8       1.0  0.38900  0.72900  0.95100  1.0000
  O   O1        1.0  0.40100  0.16300  0.05780  1.0000
  O   O2        1.0  0.15100  0.45700  0.08680  1.0000
  O   O3        1.0  0.97300  0.12400  0.09640  1.0000
  O   O4        1.0  0.83000  0.76400  0.13400  1.0000
  O   O5        1.0  0.31900  0.74300  0.13400  1.0000
  O   O6        1.0  0.62600  0.64400  0.16000  1.0000
  O   O7        1.0  0.15300  0.75800  0.23000  1.0000
  O   O8        1.0  0.84700  0.25800  0.27000  1.0000
  O   O9        1.0  0.37400  0.14400  0.34000  1.0000
  O   O10       1.0  0.68100  0.24300  0.36600  1.0000
  O   O11       1.0  0.17000  0.26400  0.36600  1.0000
  O   O12       1.0  0.02680  0.62400  0.40400  1.0000
  O   O13       1.0  0.84900  0.95700  0.41300  1.0000
  O   O14       1.0  0.59900  0.66300  0.44200  1.0000
  O   O15       1.0  0.40100  0.33700  0.55800  1.0000
  O   O16       1.0  0.15100  0.04330  0.58700  1.0000
  O   O17       1.0  0.97300  0.37600  0.59600  1.0000
  O   O18       1.0  0.83000  0.73600  0.63400  1.0000
  O   O19       1.0  0.31900  0.75700  0.63400  1.0000
  O   O20       1.0  0.62600  0.85600  0.66000  1.0000
  O   O21       1.0  0.15300  0.74200  0.73000  1.0000
  O   O22       1.0  0.84700  0.24200  0.77000  1.0000
  O   O23       1.0  0.37400  0.35600  0.84000  1.0000
  O   O24       1.0  0.68100  0.25700  0.86600  1.0000
  O   O25       1.0  0.17000  0.23600  0.86600  1.0000
  O   O26       1.0  0.02680  0.87600  0.90400  1.0000
  O   O27       1.0  0.84900  0.54300  0.91300  1.0000
  O   O28       1.0  0.59900  0.83700  0.94200  1.0000
