data_image0
_chemical_formula_structural       Nb12O36Th3
_chemical_formula_sum              "Nb12 O36 Th3"
_cell_length_a       5.56481
_cell_length_b       11.902
_cell_length_c       11.902
_cell_angle_alpha    95.8193
_cell_angle_beta     76.4805
_cell_angle_gamma    103.519

_space_group_name_H-M_alt    "P 1"
_space_group_IT_number       1

loop_
  _space_group_symop_operation_xyz
  'x, y, z'

loop_
  _atom_site_type_symbol
  _atom_site_label
  _atom_site_symmetry_multiplicity
  _atom_site_fract_x
  _atom_site_fract_y
  _atom_site_fract_z
  _atom_site_occupancy
  Nb  Nb1       1.0  0.82600  0.69100  0.03950  1.0000
  Nb  Nb2       1.0  0.50000  0.13800  0.13800  1.0000
  Nb  Nb3       1.0  0.15700  0.53400  0.22000  1.0000
  Nb  Nb4       1.0  0.82600  0.96100  0.30900  1.0000
  Nb  Nb5       1.0  0.50000  0.38100  0.38100  1.0000
  Nb  Nb6       1.0  0.15700  0.78000  0.46600  1.0000
  Nb  Nb7       1.0  0.84300  0.22000  0.53400  1.0000
  Nb  Nb8       1.0  0.50000  0.61900  0.61900  1.0000
  Nb  Nb9       1.0  0.17400  0.03950  0.69100  1.0000
  Nb  Nb10      1.0  0.84300  0.46600  0.78000  1.0000
  Nb  Nb11      1.0  0.50000  0.86200  0.86200  1.0000
  Nb  Nb12      1.0  0.17400  0.30900  0.96100  1.0000
  O   O1        1.0  0.50000  0.00000  0.00000  1.0000
  O   O2        1.0  0.32800  0.18900  0.02810  1.0000
  O   O3        1.0  0.83300  0.18900  0.02810  1.0000
  O   O4        1.0  0.17200  0.42500  0.08080  1.0000
  O   O5        1.0  0.02810  0.64600  0.12700  1.0000
  O   O6        1.0  0.49100  0.64600  0.12700  1.0000
  O   O7        1.0  0.84500  0.84500  0.15500  1.0000
  O   O8        1.0  0.16700  0.02810  0.18900  1.0000
  O   O9        1.0  0.67200  0.02810  0.18900  1.0000
  O   O10       1.0  0.50000  0.25300  0.25300  1.0000
  O   O11       1.0  0.33900  0.46200  0.29200  1.0000
  O   O12       1.0  0.83100  0.46200  0.29200  1.0000
  O   O13       1.0  0.18000  0.68000  0.32000  1.0000
  O   O14       1.0  0.02810  0.87300  0.35400  1.0000
  O   O15       1.0  0.49100  0.87300  0.35400  1.0000
  O   O16       1.0  0.82800  0.08080  0.42500  1.0000
  O   O17       1.0  0.16900  0.29200  0.46200  1.0000
  O   O18       1.0  0.66100  0.29200  0.46200  1.0000
  O   O19       1.0  0.50000  0.50000  0.50000  1.0000
  O   O20       1.0  0.33900  0.70800  0.53800  1.0000
  O   O21       1.0  0.83100  0.70800  0.53800  1.0000
  O   O22       1.0  0.17200  0.91900  0.57500  1.0000
  O   O23       1.0  0.50900  0.12700  0.64600  1.0000
  O   O24       1.0  0.97200  0.12700  0.64600  1.0000
  O   O25       1.0  0.82000  0.32000  0.68000  1.0000
  O   O26       1.0  0.16900  0.53800  0.70800  1.0000
  O   O27       1.0  0.66100  0.53800  0.70800  1.0000
  O   O28       1.0  0.50000  0.74700  0.74700  1.0000
  O   O29       1.0  0.32800  0.97200  0.81100  1.0000
  O   O30       1.0  0.83300  0.97200  0.81100  1.0000
  O   O31       1.0  0.15500  0.15500  0.84500  1.0000
  O   O32       1.0  0.50900  0.35400  0.87300  1.0000
  O   O33       1.0  0.97200  0.35400  0.87300  1.0000
  O   O34       1.0  0.82800  0.57500  0.91900  1.0000
  O   O35       1.0  0.16700  0.81100  0.97200  1.0000
  O   O36       1.0  0.67200  0.81100  0.97200  1.0000
  Th  Th1       1.0  0.00000  0.00000  0.00000  1.0000
  Th  Th2       1.0  0.33000  0.83000  0.17000  1.0000
  Th  Th3       1.0  0.67000  0.17000  0.83000  1.0000
