data_image0
_chemical_formula_structural       O16Te4Tl4U2
_chemical_formula_sum              "O16 Te4 Tl4 U2"
_cell_length_a       7.2281
_cell_length_b       7.6467
_cell_length_c       8.57655
_cell_angle_alpha    95.4817
_cell_angle_beta     105.762
_cell_angle_gamma    104.973

_space_group_name_H-M_alt    "P 1"
_space_group_IT_number       1

loop_
  _space_group_symop_operation_xyz
  'x, y, z'

loop_
  _atom_site_type_symbol
  _atom_site_label
  _atom_site_symmetry_multiplicity
  _atom_site_fract_x
  _atom_site_fract_y
  _atom_site_fract_z
  _atom_site_occupancy
  O   O1        1.0  0.67000  0.26700  0.73100  1.0000
  O   O2        1.0  0.33100  0.73300  0.26900  1.0000
  O   O3        1.0  0.18400  0.30200  0.30100  1.0000
  O   O4        1.0  0.81700  0.69800  0.69900  1.0000
  O   O5        1.0  0.23000  0.79500  0.62100  1.0000
  O   O6        1.0  0.77000  0.20500  0.37800  1.0000
  O   O7        1.0  0.83300  0.22800  0.05990  1.0000
  O   O8        1.0  0.16700  0.77100  0.94000  1.0000
  O   O9        1.0  0.41800  0.50100  0.61900  1.0000
  O   O10       1.0  0.58200  0.50100  0.38200  1.0000
  O   O11       1.0  0.40900  0.11400  0.89900  1.0000
  O   O12       1.0  0.59200  0.88600  0.10100  1.0000
  O   O13       1.0  0.99100  0.08540  0.81400  1.0000
  O   O14       1.0  0.00846  0.91400  0.18500  1.0000
  O   O15       1.0  0.17000  0.14200  0.54800  1.0000
  O   O16       1.0  0.83100  0.85800  0.45200  1.0000
  Te  Te1       1.0  0.65100  0.08100  0.86100  1.0000
  Te  Te2       1.0  0.34900  0.91900  0.13900  1.0000
  Te  Te3       1.0  0.40400  0.28200  0.48100  1.0000
  Te  Te4       1.0  0.59700  0.72000  0.52000  1.0000
  Tl  Tl1       1.0  0.30300  0.42900  0.07800  1.0000
  Tl  Tl2       1.0  0.69700  0.57100  0.92200  1.0000
  Tl  Tl3       1.0  0.03940  0.43400  0.69200  1.0000
  Tl  Tl4       1.0  0.96000  0.56600  0.30800  1.0000
  U   U1        1.0  0.10600  0.93500  0.71700  1.0000
  U   U2        1.0  0.89400  0.06470  0.28300  1.0000
