data_image0
_chemical_formula_structural       B16Bi4O30
_chemical_formula_sum              "B16 Bi4 O30"
_cell_length_a       4.27662
_cell_length_b       21.4095
_cell_length_c       6.43484
_cell_angle_alpha    90
_cell_angle_beta     106.266
_cell_angle_gamma    90

_space_group_name_H-M_alt    "P 1"
_space_group_IT_number       1

loop_
  _space_group_symop_operation_xyz
  'x, y, z'

loop_
  _atom_site_type_symbol
  _atom_site_label
  _atom_site_symmetry_multiplicity
  _atom_site_fract_x
  _atom_site_fract_y
  _atom_site_fract_z
  _atom_site_occupancy
  B   B1        1.0  0.07240  0.14100  0.08920  1.0000
  B   B2        1.0  0.15400  0.25700  0.10800  1.0000
  B   B3        1.0  0.92900  0.82700  0.20000  1.0000
  B   B4        1.0  0.81600  0.99800  0.27200  1.0000
  B   B5        1.0  0.65600  0.14100  0.30900  1.0000
  B   B6        1.0  0.10000  0.29700  0.45100  1.0000
  B   B7        1.0  0.78100  0.38500  0.48900  1.0000
  B   B8        1.0  0.40200  0.99800  0.49300  1.0000
  B   B9        1.0  0.59800  0.49800  0.50700  1.0000
  B   B10       1.0  0.21900  0.88500  0.51100  1.0000
  B   B11       1.0  0.90000  0.79700  0.54900  1.0000
  B   B12       1.0  0.34400  0.64100  0.69100  1.0000
  B   B13       1.0  0.18400  0.49800  0.72800  1.0000
  B   B14       1.0  0.07070  0.32700  0.80000  1.0000
  B   B15       1.0  0.84600  0.75700  0.89200  1.0000
  B   B16       1.0  0.92800  0.64100  0.91100  1.0000
  Bi  Bi1       1.0  0.88400  0.49700  0.10600  1.0000
  Bi  Bi2       1.0  0.64500  0.64300  0.31500  1.0000
  Bi  Bi3       1.0  0.35500  0.14300  0.68500  1.0000
  Bi  Bi4       1.0  0.11600  0.99700  0.89400  1.0000
  O   O1        1.0  0.89300  0.70400  0.00710  1.0000
  O   O2        1.0  0.13400  0.31500  0.01460  1.0000
  O   O3        1.0  0.62900  0.98800  0.06640  1.0000
  O   O4        1.0  0.90700  0.59800  0.08200  1.0000
  O   O5        1.0  0.75200  0.13700  0.12400  1.0000
  O   O6        1.0  0.14600  0.00380  0.28800  1.0000
  O   O7        1.0  0.13800  0.87500  0.28900  1.0000
  O   O8        1.0  0.32900  0.13200  0.29300  1.0000
  O   O9        1.0  0.78600  0.79100  0.32700  1.0000
  O   O10       1.0  0.22100  0.25600  0.33200  1.0000
  O   O11       1.0  0.62500  0.54300  0.34200  1.0000
  O   O12       1.0  0.87300  0.34200  0.35800  1.0000
  O   O13       1.0  0.62300  0.43700  0.39600  1.0000
  O   O14       1.0  0.72300  0.00137  0.45800  1.0000
  O   O15       1.0  0.16000  0.65300  0.48700  1.0000
  O   O16       1.0  0.84000  0.15300  0.51300  1.0000
  O   O17       1.0  0.27700  0.50100  0.54200  1.0000
  O   O18       1.0  0.37700  0.93700  0.60400  1.0000
  O   O19       1.0  0.12700  0.84200  0.64200  1.0000
  O   O20       1.0  0.37500  0.04300  0.65800  1.0000
  O   O21       1.0  0.77900  0.75600  0.66800  1.0000
  O   O22       1.0  0.21400  0.29100  0.67300  1.0000
  O   O23       1.0  0.67100  0.63200  0.70700  1.0000
  O   O24       1.0  0.86200  0.37500  0.71100  1.0000
  O   O25       1.0  0.85400  0.50400  0.71200  1.0000
  O   O26       1.0  0.24800  0.63700  0.87600  1.0000
  O   O27       1.0  0.09320  0.09760  0.91800  1.0000
  O   O28       1.0  0.37100  0.48800  0.93400  1.0000
  O   O29       1.0  0.86600  0.81500  0.98500  1.0000
  O   O30       1.0  0.10700  0.20400  0.99300  1.0000
