data_image0
_chemical_formula_structural       C8F24Ge8S12
_chemical_formula_sum              "C8 F24 Ge8 S12"
_cell_length_a       10.7098
_cell_length_b       10.7098
_cell_length_c       10.7098
_cell_angle_alpha    120
_cell_angle_beta     90
_cell_angle_gamma    120

_space_group_name_H-M_alt    "P 1"
_space_group_IT_number       1

loop_
  _space_group_symop_operation_xyz
  'x, y, z'

loop_
  _atom_site_type_symbol
  _atom_site_label
  _atom_site_symmetry_multiplicity
  _atom_site_fract_x
  _atom_site_fract_y
  _atom_site_fract_z
  _atom_site_occupancy
  C   C1        1.0  0.72200  0.05570  0.27800  1.0000
  C   C2        1.0  0.72200  0.44400  0.27800  1.0000
  C   C3        1.0  0.33400  0.05570  0.27800  1.0000
  C   C4        1.0  0.27800  0.55600  0.33400  1.0000
  C   C5        1.0  0.72200  0.44400  0.66600  1.0000
  C   C6        1.0  0.27800  0.94400  0.72200  1.0000
  C   C7        1.0  0.66600  0.94400  0.72200  1.0000
  C   C8        1.0  0.27800  0.55600  0.72200  1.0000
  F   F1        1.0  0.63500  0.27100  0.15900  1.0000
  F   F2        1.0  0.38800  0.02350  0.15900  1.0000
  F   F3        1.0  0.63500  0.02350  0.15900  1.0000
  F   F4        1.0  0.38800  0.22900  0.36500  1.0000
  F   F5        1.0  0.63500  0.47700  0.36500  1.0000
  F   F6        1.0  0.84100  0.47700  0.36500  1.0000
  F   F7        1.0  0.38800  0.02350  0.36500  1.0000
  F   F8        1.0  0.84100  0.22900  0.36500  1.0000
  F   F9        1.0  0.63500  0.02350  0.36500  1.0000
  F   F10       1.0  0.15900  0.52300  0.38800  1.0000
  F   F11       1.0  0.36500  0.52300  0.38800  1.0000
  F   F12       1.0  0.36500  0.72900  0.38800  1.0000
  F   F13       1.0  0.63500  0.47700  0.61200  1.0000
  F   F14       1.0  0.63500  0.27100  0.61200  1.0000
  F   F15       1.0  0.84100  0.47700  0.61200  1.0000
  F   F16       1.0  0.15900  0.52300  0.63500  1.0000
  F   F17       1.0  0.36500  0.52300  0.63500  1.0000
  F   F18       1.0  0.15900  0.77100  0.63500  1.0000
  F   F19       1.0  0.61200  0.77100  0.63500  1.0000
  F   F20       1.0  0.36500  0.97700  0.63500  1.0000
  F   F21       1.0  0.61200  0.97700  0.63500  1.0000
  F   F22       1.0  0.36500  0.72900  0.84100  1.0000
  F   F23       1.0  0.36500  0.97700  0.84100  1.0000
  F   F24       1.0  0.61200  0.97700  0.84100  1.0000
  Ge  Ge1       1.0  0.20200  0.40400  0.10700  1.0000
  Ge  Ge2       1.0  0.79800  0.59600  0.20200  1.0000
  Ge  Ge3       1.0  0.10700  0.90400  0.20200  1.0000
  Ge  Ge4       1.0  0.79800  0.90400  0.20200  1.0000
  Ge  Ge5       1.0  0.20200  0.40400  0.79800  1.0000
  Ge  Ge6       1.0  0.89300  0.09550  0.79800  1.0000
  Ge  Ge7       1.0  0.20200  0.09550  0.79800  1.0000
  Ge  Ge8       1.0  0.79800  0.59600  0.89300  1.0000
  S   S1        1.0  0.95000  0.25000  0.04950  1.0000
  S   S2        1.0  0.30000  0.25000  0.04950  1.0000
  S   S3        1.0  0.30000  0.59900  0.04950  1.0000
  S   S4        1.0  0.04950  0.75000  0.30000  1.0000
  S   S5        1.0  0.70000  0.75000  0.30000  1.0000
  S   S6        1.0  0.04950  0.09900  0.30000  1.0000
  S   S7        1.0  0.30000  0.25000  0.70000  1.0000
  S   S8        1.0  0.95000  0.25000  0.70000  1.0000
  S   S9        1.0  0.95000  0.90100  0.70000  1.0000
  S   S10       1.0  0.70000  0.40100  0.95000  1.0000
  S   S11       1.0  0.04950  0.75000  0.95000  1.0000
  S   S12       1.0  0.70000  0.75000  0.95000  1.0000
