data_image0
_chemical_formula_structural       O36V16
_chemical_formula_sum              "O36 V16"
_cell_length_a       6.76195
_cell_length_b       6.76195
_cell_length_c       14.5838
_cell_angle_alpha    90
_cell_angle_beta     90
_cell_angle_gamma    100.749

_space_group_name_H-M_alt    "P 1"
_space_group_IT_number       1

loop_
  _space_group_symop_operation_xyz
  'x, y, z'

loop_
  _atom_site_type_symbol
  _atom_site_label
  _atom_site_symmetry_multiplicity
  _atom_site_fract_x
  _atom_site_fract_y
  _atom_site_fract_z
  _atom_site_occupancy
  O   O1        1.0  0.84900  0.15100  0.00000  1.0000
  O   O2        1.0  0.29400  0.29400  0.00000  1.0000
  O   O3        1.0  0.70600  0.70600  0.00000  1.0000
  O   O4        1.0  0.15100  0.84900  0.00000  1.0000
  O   O5        1.0  0.62700  0.37500  0.11700  1.0000
  O   O6        1.0  0.37500  0.62700  0.11700  1.0000
  O   O7        1.0  0.97200  0.69900  0.15200  1.0000
  O   O8        1.0  0.69900  0.97200  0.15200  1.0000
  O   O9        1.0  0.30100  0.02990  0.15300  1.0000
  O   O10       1.0  0.02990  0.30100  0.15300  1.0000
  O   O11       1.0  0.35300  0.35300  0.25000  1.0000
  O   O12       1.0  0.65000  0.65000  0.25000  1.0000
  O   O13       1.0  0.30100  0.02990  0.34700  1.0000
  O   O14       1.0  0.02990  0.30100  0.34700  1.0000
  O   O15       1.0  0.97200  0.69900  0.34800  1.0000
  O   O16       1.0  0.69900  0.97200  0.34800  1.0000
  O   O17       1.0  0.62700  0.37500  0.38300  1.0000
  O   O18       1.0  0.37500  0.62700  0.38300  1.0000
  O   O19       1.0  0.29400  0.29400  0.50000  1.0000
  O   O20       1.0  0.84900  0.15100  0.50000  1.0000
  O   O21       1.0  0.15100  0.84900  0.50000  1.0000
  O   O22       1.0  0.70600  0.70600  0.50000  1.0000
  O   O23       1.0  0.62500  0.37300  0.61700  1.0000
  O   O24       1.0  0.37300  0.62500  0.61700  1.0000
  O   O25       1.0  0.30100  0.02850  0.65200  1.0000
  O   O26       1.0  0.02850  0.30100  0.65200  1.0000
  O   O27       1.0  0.97000  0.69900  0.65300  1.0000
  O   O28       1.0  0.69900  0.97000  0.65300  1.0000
  O   O29       1.0  0.35000  0.35000  0.75000  1.0000
  O   O30       1.0  0.64700  0.64700  0.75000  1.0000
  O   O31       1.0  0.97000  0.69900  0.84700  1.0000
  O   O32       1.0  0.69900  0.97000  0.84700  1.0000
  O   O33       1.0  0.30100  0.02850  0.84800  1.0000
  O   O34       1.0  0.02850  0.30100  0.84800  1.0000
  O   O35       1.0  0.62500  0.37300  0.88300  1.0000
  O   O36       1.0  0.37300  0.62500  0.88300  1.0000
  V   V1        1.0  0.79800  0.20400  0.11400  1.0000
  V   V2        1.0  0.20400  0.79800  0.11400  1.0000
  V   V3        1.0  0.68300  0.68300  0.12700  1.0000
  V   V4        1.0  0.31900  0.31900  0.12700  1.0000
  V   V5        1.0  0.31900  0.31900  0.37300  1.0000
  V   V6        1.0  0.68300  0.68300  0.37300  1.0000
  V   V7        1.0  0.79800  0.20400  0.38600  1.0000
  V   V8        1.0  0.20400  0.79800  0.38600  1.0000
  V   V9        1.0  0.79600  0.20200  0.61400  1.0000
  V   V10       1.0  0.20200  0.79600  0.61400  1.0000
  V   V11       1.0  0.31700  0.31700  0.62700  1.0000
  V   V12       1.0  0.68100  0.68100  0.62700  1.0000
  V   V13       1.0  0.68100  0.68100  0.87300  1.0000
  V   V14       1.0  0.31700  0.31700  0.87300  1.0000
  V   V15       1.0  0.79600  0.20200  0.88600  1.0000
  V   V16       1.0  0.20200  0.79600  0.88600  1.0000
