data_image0
_chemical_formula_structural       Cu4Ge4O4Te4
_chemical_formula_sum              "Cu4 Ge4 O4 Te4"
_cell_length_a       6.23869
_cell_length_b       7.89095
_cell_length_c       6.43809
_cell_angle_alpha    90
_cell_angle_beta     90
_cell_angle_gamma    90

_space_group_name_H-M_alt    "P 1"
_space_group_IT_number       1

loop_
  _space_group_symop_operation_xyz
  'x, y, z'

loop_
  _atom_site_type_symbol
  _atom_site_label
  _atom_site_symmetry_multiplicity
  _atom_site_fract_x
  _atom_site_fract_y
  _atom_site_fract_z
  _atom_site_occupancy
  Cu  Cu1       1.0  0.59200  0.31600  0.00847  1.0000
  Cu  Cu2       1.0  0.40800  0.81600  0.49200  1.0000
  Cu  Cu3       1.0  0.90800  0.68400  0.50800  1.0000
  Cu  Cu4       1.0  0.09230  0.18400  0.99200  1.0000
  Ge  Ge1       1.0  0.28300  0.66900  0.06790  1.0000
  Ge  Ge2       1.0  0.71700  0.16900  0.43200  1.0000
  Ge  Ge3       1.0  0.21700  0.33100  0.56800  1.0000
  Ge  Ge4       1.0  0.78300  0.83100  0.93200  1.0000
  O   O1        1.0  0.51500  0.18700  0.24300  1.0000
  O   O2        1.0  0.48500  0.68700  0.25700  1.0000
  O   O3        1.0  0.98500  0.81300  0.74300  1.0000
  O   O4        1.0  0.01460  0.31300  0.75700  1.0000
  Te  Te1       1.0  0.95500  0.45800  0.24200  1.0000
  Te  Te2       1.0  0.04530  0.95800  0.25800  1.0000
  Te  Te3       1.0  0.54500  0.54200  0.74200  1.0000
  Te  Te4       1.0  0.45500  0.04220  0.75800  1.0000
