data_image0
_chemical_formula_structural       Dy5Mg24
_chemical_formula_sum              "Dy5 Mg24"
_cell_length_a       9.74361
_cell_length_b       9.74361
_cell_length_c       9.74361
_cell_angle_alpha    109.471
_cell_angle_beta     109.471
_cell_angle_gamma    109.471

_space_group_name_H-M_alt    "P 1"
_space_group_IT_number       1

loop_
  _space_group_symop_operation_xyz
  'x, y, z'

loop_
  _atom_site_type_symbol
  _atom_site_label
  _atom_site_symmetry_multiplicity
  _atom_site_fract_x
  _atom_site_fract_y
  _atom_site_fract_z
  _atom_site_occupancy
  Dy  Dy1       1.0  0.00000  0.00000  0.00000  1.0000
  Dy  Dy2       1.0  0.37500  0.00000  0.00000  1.0000
  Dy  Dy3       1.0  0.00000  0.37500  0.00000  1.0000
  Dy  Dy4       1.0  0.00000  0.00000  0.37500  1.0000
  Dy  Dy5       1.0  0.62500  0.62500  0.62500  1.0000
  Mg  Mg1       1.0  0.61100  0.32400  0.00000  1.0000
  Mg  Mg2       1.0  0.32400  0.61100  0.00000  1.0000
  Mg  Mg3       1.0  0.80900  0.62900  0.00000  1.0000
  Mg  Mg4       1.0  0.62900  0.80900  0.00000  1.0000
  Mg  Mg5       1.0  0.37100  0.37100  0.18000  1.0000
  Mg  Mg6       1.0  0.82000  0.19100  0.19100  1.0000
  Mg  Mg7       1.0  0.19100  0.82000  0.19100  1.0000
  Mg  Mg8       1.0  0.67600  0.67600  0.28700  1.0000
  Mg  Mg9       1.0  0.61100  0.00000  0.32400  1.0000
  Mg  Mg10      1.0  0.00000  0.61100  0.32400  1.0000
  Mg  Mg11      1.0  0.37100  0.18000  0.37100  1.0000
  Mg  Mg12      1.0  0.18000  0.37100  0.37100  1.0000
  Mg  Mg13      1.0  0.71300  0.38900  0.38900  1.0000
  Mg  Mg14      1.0  0.38900  0.71300  0.38900  1.0000
  Mg  Mg15      1.0  0.32400  0.00000  0.61100  1.0000
  Mg  Mg16      1.0  0.00000  0.32400  0.61100  1.0000
  Mg  Mg17      1.0  0.80900  0.00000  0.62900  1.0000
  Mg  Mg18      1.0  0.00000  0.80900  0.62900  1.0000
  Mg  Mg19      1.0  0.67600  0.28700  0.67600  1.0000
  Mg  Mg20      1.0  0.28700  0.67600  0.67600  1.0000
  Mg  Mg21      1.0  0.38900  0.38900  0.71300  1.0000
  Mg  Mg22      1.0  0.62900  0.00000  0.80900  1.0000
  Mg  Mg23      1.0  0.00000  0.62900  0.80900  1.0000
  Mg  Mg24      1.0  0.19100  0.19100  0.82000  1.0000
