data_image0
_chemical_formula_structural       Al4Ba12F36
_chemical_formula_sum              "Al4 Ba12 F36"
_cell_length_a       9.91624
_cell_length_b       5.46028
_cell_length_c       14.6342
_cell_angle_alpha    90
_cell_angle_beta     90
_cell_angle_gamma    90

_space_group_name_H-M_alt    "P 1"
_space_group_IT_number       1

loop_
  _space_group_symop_operation_xyz
  'x, y, z'

loop_
  _atom_site_type_symbol
  _atom_site_label
  _atom_site_symmetry_multiplicity
  _atom_site_fract_x
  _atom_site_fract_y
  _atom_site_fract_z
  _atom_site_occupancy
  Al  Al1       1.0  0.51800  0.25000  0.16600  1.0000
  Al  Al2       1.0  0.01810  0.25000  0.33400  1.0000
  Al  Al3       1.0  0.98200  0.75000  0.66600  1.0000
  Al  Al4       1.0  0.48200  0.75000  0.83400  1.0000
  Ba  Ba1       1.0  0.67200  0.75000  0.04660  1.0000
  Ba  Ba2       1.0  0.94800  0.25000  0.10300  1.0000
  Ba  Ba3       1.0  0.26600  0.75000  0.18000  1.0000
  Ba  Ba4       1.0  0.76600  0.75000  0.32000  1.0000
  Ba  Ba5       1.0  0.44800  0.25000  0.39700  1.0000
  Ba  Ba6       1.0  0.17200  0.75000  0.45300  1.0000
  Ba  Ba7       1.0  0.82800  0.25000  0.54700  1.0000
  Ba  Ba8       1.0  0.55200  0.75000  0.60300  1.0000
  Ba  Ba9       1.0  0.23400  0.25000  0.68000  1.0000
  Ba  Ba10      1.0  0.73400  0.25000  0.82000  1.0000
  Ba  Ba11      1.0  0.05190  0.75000  0.89700  1.0000
  Ba  Ba12      1.0  0.32800  0.25000  0.95300  1.0000
  F   F1        1.0  0.15000  0.50400  0.04370  1.0000
  F   F2        1.0  0.15000  0.99600  0.04370  1.0000
  F   F3        1.0  0.45100  0.01420  0.08960  1.0000
  F   F4        1.0  0.45100  0.48600  0.08960  1.0000
  F   F5        1.0  0.67300  0.25000  0.09940  1.0000
  F   F6        1.0  0.87200  0.75000  0.15200  1.0000
  F   F7        1.0  0.35400  0.25000  0.22300  1.0000
  F   F8        1.0  0.57900  0.01370  0.24000  1.0000
  F   F9        1.0  0.57900  0.48600  0.24000  1.0000
  F   F10       1.0  0.07910  0.01370  0.26000  1.0000
  F   F11       1.0  0.07910  0.48600  0.26000  1.0000
  F   F12       1.0  0.85400  0.25000  0.27700  1.0000
  F   F13       1.0  0.37200  0.75000  0.34800  1.0000
  F   F14       1.0  0.17300  0.25000  0.40100  1.0000
  F   F15       1.0  0.95100  0.01420  0.41000  1.0000
  F   F16       1.0  0.95100  0.48600  0.41000  1.0000
  F   F17       1.0  0.65000  0.50400  0.45600  1.0000
  F   F18       1.0  0.65000  0.99600  0.45600  1.0000
  F   F19       1.0  0.35000  0.00439  0.54400  1.0000
  F   F20       1.0  0.35000  0.49600  0.54400  1.0000
  F   F21       1.0  0.04880  0.51400  0.59000  1.0000
  F   F22       1.0  0.04880  0.98600  0.59000  1.0000
  F   F23       1.0  0.82700  0.75000  0.59900  1.0000
  F   F24       1.0  0.62800  0.25000  0.65200  1.0000
  F   F25       1.0  0.14600  0.75000  0.72300  1.0000
  F   F26       1.0  0.92100  0.51400  0.74000  1.0000
  F   F27       1.0  0.92100  0.98600  0.74000  1.0000
  F   F28       1.0  0.42100  0.51400  0.76000  1.0000
  F   F29       1.0  0.42100  0.98600  0.76000  1.0000
  F   F30       1.0  0.64600  0.75000  0.77700  1.0000
  F   F31       1.0  0.12800  0.25000  0.84800  1.0000
  F   F32       1.0  0.32700  0.75000  0.90100  1.0000
  F   F33       1.0  0.54900  0.51400  0.91000  1.0000
  F   F34       1.0  0.54900  0.98600  0.91000  1.0000
  F   F35       1.0  0.85000  0.00439  0.95600  1.0000
  F   F36       1.0  0.85000  0.49600  0.95600  1.0000
