data_image0
_chemical_formula_structural       Bi4I12O36
_chemical_formula_sum              "Bi4 I12 O36"
_cell_length_a       8.79049
_cell_length_b       5.85645
_cell_length_c       15.0645
_cell_angle_alpha    90
_cell_angle_beta     97.0199
_cell_angle_gamma    90

_space_group_name_H-M_alt    "P 1"
_space_group_IT_number       1

loop_
  _space_group_symop_operation_xyz
  'x, y, z'

loop_
  _atom_site_type_symbol
  _atom_site_label
  _atom_site_symmetry_multiplicity
  _atom_site_fract_x
  _atom_site_fract_y
  _atom_site_fract_z
  _atom_site_occupancy
  Bi  Bi1       1.0  0.45900  0.76900  0.10100  1.0000
  Bi  Bi2       1.0  0.04100  0.26900  0.39900  1.0000
  Bi  Bi3       1.0  0.95900  0.73100  0.60100  1.0000
  Bi  Bi4       1.0  0.54100  0.23100  0.89900  1.0000
  I   I1        1.0  0.16100  0.14600  0.02440  1.0000
  I   I2        1.0  0.72600  0.31400  0.15200  1.0000
  I   I3        1.0  0.11600  0.59800  0.20200  1.0000
  I   I4        1.0  0.38400  0.09820  0.29800  1.0000
  I   I5        1.0  0.77400  0.81400  0.34800  1.0000
  I   I6        1.0  0.33900  0.64600  0.47600  1.0000
  I   I7        1.0  0.66100  0.35400  0.52400  1.0000
  I   I8        1.0  0.22600  0.18600  0.65200  1.0000
  I   I9        1.0  0.61600  0.90200  0.70200  1.0000
  I   I10       1.0  0.88400  0.40200  0.79800  1.0000
  I   I11       1.0  0.27400  0.68600  0.84800  1.0000
  I   I12       1.0  0.83900  0.85400  0.97600  1.0000
  O   O1        1.0  0.64200  0.90700  0.00612  1.0000
  O   O2        1.0  0.64100  0.42200  0.04160  1.0000
  O   O3        1.0  0.91300  0.09160  0.05310  1.0000
  O   O4        1.0  0.94800  0.59600  0.11600  1.0000
  O   O5        1.0  0.21400  0.97000  0.12600  1.0000
  O   O6        1.0  0.26400  0.49300  0.13300  1.0000
  O   O7        1.0  0.56900  0.11400  0.17300  1.0000
  O   O8        1.0  0.64800  0.55900  0.20900  1.0000
  O   O9        1.0  0.08460  0.30800  0.24300  1.0000
  O   O10       1.0  0.41500  0.80800  0.25700  1.0000
  O   O11       1.0  0.85200  0.05860  0.29100  1.0000
  O   O12       1.0  0.93100  0.61400  0.32700  1.0000
  O   O13       1.0  0.23600  0.99300  0.36700  1.0000
  O   O14       1.0  0.28600  0.47000  0.37400  1.0000
  O   O15       1.0  0.55200  0.09580  0.38400  1.0000
  O   O16       1.0  0.58700  0.59200  0.44700  1.0000
  O   O17       1.0  0.85900  0.92200  0.45800  1.0000
  O   O18       1.0  0.85800  0.40700  0.49400  1.0000
  O   O19       1.0  0.14200  0.59300  0.50600  1.0000
  O   O20       1.0  0.14100  0.07770  0.54200  1.0000
  O   O21       1.0  0.41300  0.40800  0.55300  1.0000
  O   O22       1.0  0.44800  0.90400  0.61600  1.0000
  O   O23       1.0  0.71400  0.53000  0.62600  1.0000
  O   O24       1.0  0.76400  0.00717  0.63300  1.0000
  O   O25       1.0  0.06930  0.38600  0.67300  1.0000
  O   O26       1.0  0.14800  0.94100  0.70900  1.0000
  O   O27       1.0  0.58500  0.19200  0.74300  1.0000
  O   O28       1.0  0.91500  0.69200  0.75700  1.0000
  O   O29       1.0  0.35200  0.44100  0.79100  1.0000
  O   O30       1.0  0.43100  0.88600  0.82700  1.0000
  O   O31       1.0  0.73600  0.50700  0.86700  1.0000
  O   O32       1.0  0.78600  0.02990  0.87400  1.0000
  O   O33       1.0  0.05170  0.40400  0.88400  1.0000
  O   O34       1.0  0.08700  0.90800  0.94700  1.0000
  O   O35       1.0  0.35900  0.57800  0.95800  1.0000
  O   O36       1.0  0.35800  0.09270  0.99400  1.0000
