data_image0
_chemical_formula_structural       F12H24In2N6O6
_chemical_formula_sum              "F12 H24 In2 N6 O6"
_cell_length_a       7.11415
_cell_length_b       7.11415
_cell_length_c       7.11415
_cell_angle_alpha    89.2676
_cell_angle_beta     89.2676
_cell_angle_gamma    89.2676

_space_group_name_H-M_alt    "P 1"
_space_group_IT_number       1

loop_
  _space_group_symop_operation_xyz
  'x, y, z'

loop_
  _atom_site_type_symbol
  _atom_site_label
  _atom_site_symmetry_multiplicity
  _atom_site_fract_x
  _atom_site_fract_y
  _atom_site_fract_z
  _atom_site_occupancy
  F   F1        1.0  0.73800  0.84100  0.05460  1.0000
  F   F2        1.0  0.19400  0.87600  0.15300  1.0000
  F   F3        1.0  0.87600  0.15300  0.19400  1.0000
  F   F4        1.0  0.55500  0.34100  0.23800  1.0000
  F   F5        1.0  0.23800  0.55500  0.34100  1.0000
  F   F6        1.0  0.69400  0.65300  0.37600  1.0000
  F   F7        1.0  0.34100  0.23800  0.55500  1.0000
  F   F8        1.0  0.37600  0.69400  0.65300  1.0000
  F   F9        1.0  0.65300  0.37600  0.69400  1.0000
  F   F10       1.0  0.84100  0.05460  0.73800  1.0000
  F   F11       1.0  0.05460  0.73800  0.84100  1.0000
  F   F12       1.0  0.15300  0.19400  0.87600  1.0000
  H   H1        1.0  0.62600  0.02790  0.02670  1.0000
  H   H2        1.0  0.02670  0.62600  0.02790  1.0000
  H   H3        1.0  0.77500  0.34200  0.04710  1.0000
  H   H4        1.0  0.24300  0.44800  0.06110  1.0000
  H   H5        1.0  0.52700  0.52800  0.12600  1.0000
  H   H6        1.0  0.44800  0.06110  0.24300  1.0000
  H   H7        1.0  0.54700  0.84200  0.27500  1.0000
  H   H8        1.0  0.04710  0.77500  0.34200  1.0000
  H   H9        1.0  0.91000  0.40200  0.35200  1.0000
  H   H10       1.0  0.35200  0.91000  0.40200  1.0000
  H   H11       1.0  0.85200  0.90200  0.41000  1.0000
  H   H12       1.0  0.06110  0.24300  0.44800  1.0000
  H   H13       1.0  0.52800  0.12600  0.52700  1.0000
  H   H14       1.0  0.12600  0.52700  0.52800  1.0000
  H   H15       1.0  0.84200  0.27500  0.54700  1.0000
  H   H16       1.0  0.94800  0.74300  0.56100  1.0000
  H   H17       1.0  0.02790  0.02670  0.62600  1.0000
  H   H18       1.0  0.56100  0.94800  0.74300  1.0000
  H   H19       1.0  0.34200  0.04710  0.77500  1.0000
  H   H20       1.0  0.27500  0.54700  0.84200  1.0000
  H   H21       1.0  0.90200  0.41000  0.85200  1.0000
  H   H22       1.0  0.41000  0.85200  0.90200  1.0000
  H   H23       1.0  0.40200  0.35200  0.91000  1.0000
  H   H24       1.0  0.74300  0.56100  0.94800  1.0000
  In  In1       1.0  0.48600  0.48600  0.48600  1.0000
  In  In2       1.0  0.98600  0.98600  0.98600  1.0000
  N   N1        1.0  0.47600  0.95400  0.33900  1.0000
  N   N2        1.0  0.97600  0.83900  0.45400  1.0000
  N   N3        1.0  0.95400  0.33900  0.47600  1.0000
  N   N4        1.0  0.45400  0.97600  0.83900  1.0000
  N   N5        1.0  0.33900  0.47600  0.95400  1.0000
  N   N6        1.0  0.83900  0.45400  0.97600  1.0000
  O   O1        1.0  0.47500  0.60300  0.01620  1.0000
  O   O2        1.0  0.97500  0.51600  0.10300  1.0000
  O   O3        1.0  0.60300  0.01620  0.47500  1.0000
  O   O4        1.0  0.10300  0.97500  0.51600  1.0000
  O   O5        1.0  0.01620  0.47500  0.60300  1.0000
  O   O6        1.0  0.51600  0.10300  0.97500  1.0000
