data_image0
_chemical_formula_structural       Br36Cs2Er2Nb12
_chemical_formula_sum              "Br36 Cs2 Er2 Nb12"
_cell_length_a       9.77235
_cell_length_b       9.77236
_cell_length_c       18.2702
_cell_angle_alpha    89.9999
_cell_angle_beta     90.0001
_cell_angle_gamma    120

_space_group_name_H-M_alt    "P 1"
_space_group_IT_number       1

loop_
  _space_group_symop_operation_xyz
  'x, y, z'

loop_
  _atom_site_type_symbol
  _atom_site_label
  _atom_site_symmetry_multiplicity
  _atom_site_fract_x
  _atom_site_fract_y
  _atom_site_fract_z
  _atom_site_occupancy
  Br  Br1       1.0  0.14400  0.72200  0.00099  1.0000
  Br  Br2       1.0  0.27800  0.42200  0.00099  1.0000
  Br  Br3       1.0  0.57800  0.85600  0.00099  1.0000
  Br  Br4       1.0  0.18900  0.95500  0.16100  1.0000
  Br  Br5       1.0  0.76600  0.81100  0.16100  1.0000
  Br  Br6       1.0  0.04490  0.23400  0.16100  1.0000
  Br  Br7       1.0  0.45100  0.36900  0.16200  1.0000
  Br  Br8       1.0  0.63100  0.08260  0.16200  1.0000
  Br  Br9       1.0  0.91700  0.54900  0.16200  1.0000
  Br  Br10      1.0  0.91700  0.36900  0.33800  1.0000
  Br  Br11      1.0  0.63100  0.54900  0.33800  1.0000
  Br  Br12      1.0  0.45100  0.08260  0.33800  1.0000
  Br  Br13      1.0  0.18900  0.23400  0.33900  1.0000
  Br  Br14      1.0  0.04490  0.81100  0.33900  1.0000
  Br  Br15      1.0  0.76600  0.95500  0.33900  1.0000
  Br  Br16      1.0  0.57800  0.72200  0.49900  1.0000
  Br  Br17      1.0  0.27800  0.85600  0.49900  1.0000
  Br  Br18      1.0  0.14400  0.42200  0.49900  1.0000
  Br  Br19      1.0  0.85600  0.57800  0.50100  1.0000
  Br  Br20      1.0  0.72200  0.14400  0.50100  1.0000
  Br  Br21      1.0  0.42200  0.27800  0.50100  1.0000
  Br  Br22      1.0  0.81100  0.76600  0.66100  1.0000
  Br  Br23      1.0  0.23400  0.04490  0.66100  1.0000
  Br  Br24      1.0  0.95500  0.18900  0.66100  1.0000
  Br  Br25      1.0  0.54900  0.91700  0.66200  1.0000
  Br  Br26      1.0  0.36900  0.45100  0.66200  1.0000
  Br  Br27      1.0  0.08260  0.63100  0.66200  1.0000
  Br  Br28      1.0  0.08260  0.45100  0.83800  1.0000
  Br  Br29      1.0  0.36900  0.91700  0.83800  1.0000
  Br  Br30      1.0  0.54900  0.63100  0.83800  1.0000
  Br  Br31      1.0  0.81100  0.04490  0.83900  1.0000
  Br  Br32      1.0  0.95500  0.76600  0.83900  1.0000
  Br  Br33      1.0  0.23400  0.18900  0.83900  1.0000
  Br  Br34      1.0  0.42200  0.14400  0.99900  1.0000
  Br  Br35      1.0  0.72200  0.57800  0.99900  1.0000
  Br  Br36      1.0  0.85600  0.27800  0.99900  1.0000
  Cs  Cs1       1.0  0.33300  0.66700  0.25000  1.0000
  Cs  Cs2       1.0  0.66700  0.33300  0.75000  1.0000
  Er  Er1       1.0  0.66700  0.33300  0.25000  1.0000
  Er  Er2       1.0  0.33300  0.66700  0.75000  1.0000
  Nb  Nb1       1.0  0.19000  0.15300  0.06580  1.0000
  Nb  Nb2       1.0  0.84700  0.03770  0.06580  1.0000
  Nb  Nb3       1.0  0.96200  0.81000  0.06580  1.0000
  Nb  Nb4       1.0  0.96200  0.15300  0.43400  1.0000
  Nb  Nb5       1.0  0.84700  0.81000  0.43400  1.0000
  Nb  Nb6       1.0  0.19000  0.03770  0.43400  1.0000
  Nb  Nb7       1.0  0.81000  0.96200  0.56600  1.0000
  Nb  Nb8       1.0  0.15300  0.19000  0.56600  1.0000
  Nb  Nb9       1.0  0.03770  0.84700  0.56600  1.0000
  Nb  Nb10      1.0  0.03770  0.19000  0.93400  1.0000
  Nb  Nb11      1.0  0.15300  0.96200  0.93400  1.0000
  Nb  Nb12      1.0  0.81000  0.84700  0.93400  1.0000
