data_image0
_chemical_formula_structural       H8Na8Ni4O24P8
_chemical_formula_sum              "H8 Na8 Ni4 O24 P8"
_cell_length_a       11.8426
_cell_length_b       5.35845
_cell_length_c       9.00845
_cell_angle_alpha    90
_cell_angle_beta     90
_cell_angle_gamma    90

_space_group_name_H-M_alt    "P 1"
_space_group_IT_number       1

loop_
  _space_group_symop_operation_xyz
  'x, y, z'

loop_
  _atom_site_type_symbol
  _atom_site_label
  _atom_site_symmetry_multiplicity
  _atom_site_fract_x
  _atom_site_fract_y
  _atom_site_fract_z
  _atom_site_occupancy
  H   H1        1.0  0.91600  0.75000  0.00499  1.0000
  H   H2        1.0  0.56300  0.75000  0.01160  1.0000
  H   H3        1.0  0.06340  0.75000  0.48800  1.0000
  H   H4        1.0  0.41600  0.75000  0.49500  1.0000
  H   H5        1.0  0.58400  0.25000  0.50500  1.0000
  H   H6        1.0  0.93700  0.25000  0.51200  1.0000
  H   H7        1.0  0.43700  0.25000  0.98800  1.0000
  H   H8        1.0  0.08360  0.25000  0.99500  1.0000
  Na  Na1       1.0  0.71800  0.25000  0.17400  1.0000
  Na  Na2       1.0  0.40700  0.75000  0.22300  1.0000
  Na  Na3       1.0  0.90700  0.75000  0.27700  1.0000
  Na  Na4       1.0  0.21800  0.25000  0.32600  1.0000
  Na  Na5       1.0  0.78200  0.75000  0.67400  1.0000
  Na  Na6       1.0  0.09270  0.25000  0.72300  1.0000
  Na  Na7       1.0  0.59300  0.25000  0.77700  1.0000
  Na  Na8       1.0  0.28200  0.75000  0.82600  1.0000
  Ni  Ni1       1.0  0.16300  0.75000  0.13800  1.0000
  Ni  Ni2       1.0  0.66300  0.75000  0.36200  1.0000
  Ni  Ni3       1.0  0.33700  0.25000  0.63800  1.0000
  Ni  Ni4       1.0  0.83700  0.25000  0.86200  1.0000
  O   O1        1.0  0.89400  0.25000  0.07720  1.0000
  O   O2        1.0  0.28900  0.01090  0.08790  1.0000
  O   O3        1.0  0.28900  0.48900  0.08790  1.0000
  O   O4        1.0  0.73400  0.75000  0.15400  1.0000
  O   O5        1.0  0.05220  0.01630  0.21400  1.0000
  O   O6        1.0  0.05220  0.48400  0.21400  1.0000
  O   O7        1.0  0.55200  0.01630  0.28600  1.0000
  O   O8        1.0  0.55200  0.48400  0.28600  1.0000
  O   O9        1.0  0.23400  0.75000  0.34600  1.0000
  O   O10       1.0  0.78900  0.01090  0.41200  1.0000
  O   O11       1.0  0.78900  0.48900  0.41200  1.0000
  O   O12       1.0  0.39400  0.25000  0.42300  1.0000
  O   O13       1.0  0.60600  0.75000  0.57700  1.0000
  O   O14       1.0  0.21100  0.51100  0.58800  1.0000
  O   O15       1.0  0.21100  0.98900  0.58800  1.0000
  O   O16       1.0  0.76600  0.25000  0.65400  1.0000
  O   O17       1.0  0.44800  0.51600  0.71400  1.0000
  O   O18       1.0  0.44800  0.98400  0.71400  1.0000
  O   O19       1.0  0.94800  0.51600  0.78600  1.0000
  O   O20       1.0  0.94800  0.98400  0.78600  1.0000
  O   O21       1.0  0.26600  0.25000  0.84600  1.0000
  O   O22       1.0  0.71100  0.51100  0.91200  1.0000
  O   O23       1.0  0.71100  0.98900  0.91200  1.0000
  O   O24       1.0  0.10600  0.75000  0.92300  1.0000
  P   P1        1.0  0.31800  0.25000  0.00181  1.0000
  P   P2        1.0  0.01820  0.25000  0.12500  1.0000
  P   P3        1.0  0.51800  0.25000  0.37500  1.0000
  P   P4        1.0  0.81800  0.25000  0.49800  1.0000
  P   P5        1.0  0.18200  0.75000  0.50200  1.0000
  P   P6        1.0  0.48200  0.75000  0.62500  1.0000
  P   P7        1.0  0.98200  0.75000  0.87500  1.0000
  P   P8        1.0  0.68200  0.75000  0.99800  1.0000
