data_image0
_chemical_formula_structural       K8O32S8Zn4
_chemical_formula_sum              "K8 O32 S8 Zn4"
_cell_length_a       5.30034
_cell_length_b       8.64503
_cell_length_c       16.0737
_cell_angle_alpha    90
_cell_angle_beta     91.8531
_cell_angle_gamma    90

_space_group_name_H-M_alt    "P 1"
_space_group_IT_number       1

loop_
  _space_group_symop_operation_xyz
  'x, y, z'

loop_
  _atom_site_type_symbol
  _atom_site_label
  _atom_site_symmetry_multiplicity
  _atom_site_fract_x
  _atom_site_fract_y
  _atom_site_fract_z
  _atom_site_occupancy
  K   K1        1.0  0.24100  0.66800  0.02400  1.0000
  K   K2        1.0  0.23700  0.35600  0.22900  1.0000
  K   K3        1.0  0.26300  0.85600  0.27100  1.0000
  K   K4        1.0  0.25900  0.16800  0.47600  1.0000
  K   K5        1.0  0.74100  0.83200  0.52400  1.0000
  K   K6        1.0  0.73700  0.14400  0.72900  1.0000
  K   K7        1.0  0.76300  0.64400  0.77100  1.0000
  K   K8        1.0  0.75900  0.33200  0.97600  1.0000
  O   O1        1.0  0.83800  0.87400  0.01580  1.0000
  O   O2        1.0  0.37600  0.96000  0.08860  1.0000
  O   O3        1.0  0.43400  0.23900  0.09250  1.0000
  O   O4        1.0  0.86300  0.52500  0.10500  1.0000
  O   O5        1.0  0.02830  0.12900  0.12600  1.0000
  O   O6        1.0  0.48700  0.62000  0.17300  1.0000
  O   O7        1.0  0.87600  0.77300  0.17600  1.0000
  O   O8        1.0  0.63900  0.03970  0.24500  1.0000
  O   O9        1.0  0.86100  0.54000  0.25500  1.0000
  O   O10       1.0  0.62400  0.27300  0.32400  1.0000
  O   O11       1.0  0.01330  0.12000  0.32700  1.0000
  O   O12       1.0  0.47200  0.62900  0.37400  1.0000
  O   O13       1.0  0.63700  0.02540  0.39500  1.0000
  O   O14       1.0  0.06620  0.73900  0.40800  1.0000
  O   O15       1.0  0.12400  0.46000  0.41100  1.0000
  O   O16       1.0  0.66200  0.37400  0.48400  1.0000
  O   O17       1.0  0.33800  0.62600  0.51600  1.0000
  O   O18       1.0  0.87600  0.54000  0.58900  1.0000
  O   O19       1.0  0.93400  0.26100  0.59200  1.0000
  O   O20       1.0  0.36300  0.97500  0.60500  1.0000
  O   O21       1.0  0.52800  0.37100  0.62600  1.0000
  O   O22       1.0  0.98700  0.88000  0.67300  1.0000
  O   O23       1.0  0.37600  0.72700  0.67600  1.0000
  O   O24       1.0  0.13900  0.46000  0.74500  1.0000
  O   O25       1.0  0.36100  0.96000  0.75500  1.0000
  O   O26       1.0  0.12400  0.22700  0.82400  1.0000
  O   O27       1.0  0.51300  0.38000  0.82700  1.0000
  O   O28       1.0  0.97200  0.87100  0.87400  1.0000
  O   O29       1.0  0.13700  0.47500  0.89500  1.0000
  O   O30       1.0  0.56600  0.76100  0.90800  1.0000
  O   O31       1.0  0.62400  0.03980  0.91100  1.0000
  O   O32       1.0  0.16200  0.12600  0.98400  1.0000
  S   S1        1.0  0.25400  0.11500  0.07200  1.0000
  S   S2        1.0  0.76500  0.61200  0.17600  1.0000
  S   S3        1.0  0.73500  0.11200  0.32400  1.0000
  S   S4        1.0  0.24600  0.61500  0.42800  1.0000
  S   S5        1.0  0.75400  0.38500  0.57200  1.0000
  S   S6        1.0  0.26500  0.88800  0.67600  1.0000
  S   S7        1.0  0.23500  0.38800  0.82400  1.0000
  S   S8        1.0  0.74600  0.88500  0.92800  1.0000
  Zn  Zn1       1.0  0.74500  0.97300  0.12900  1.0000
  Zn  Zn2       1.0  0.75500  0.47300  0.37100  1.0000
  Zn  Zn3       1.0  0.24500  0.52700  0.62900  1.0000
  Zn  Zn4       1.0  0.25500  0.02700  0.87100  1.0000
