data_image0
_chemical_formula_structural       B16H40
_chemical_formula_sum              "B16 H40"
_cell_length_a       8.31924
_cell_length_b       9.64311
_cell_length_c       5.56767
_cell_angle_alpha    90
_cell_angle_beta     106.527
_cell_angle_gamma    90

_space_group_name_H-M_alt    "P 1"
_space_group_IT_number       1

loop_
  _space_group_symop_operation_xyz
  'x, y, z'

loop_
  _atom_site_type_symbol
  _atom_site_label
  _atom_site_symmetry_multiplicity
  _atom_site_fract_x
  _atom_site_fract_y
  _atom_site_fract_z
  _atom_site_occupancy
  B   B1        1.0  0.27200  0.26500  0.01660  1.0000
  B   B2        1.0  0.75000  0.57300  0.15900  1.0000
  B   B3        1.0  0.28000  0.41600  0.17800  1.0000
  B   B4        1.0  0.11400  0.29400  0.18000  1.0000
  B   B5        1.0  0.38600  0.79400  0.32000  1.0000
  B   B6        1.0  0.22000  0.91600  0.32200  1.0000
  B   B7        1.0  0.75000  0.07320  0.34100  1.0000
  B   B8        1.0  0.22800  0.76500  0.48300  1.0000
  B   B9        1.0  0.77200  0.23500  0.51700  1.0000
  B   B10       1.0  0.25000  0.92700  0.65900  1.0000
  B   B11       1.0  0.78000  0.08400  0.67800  1.0000
  B   B12       1.0  0.61400  0.20600  0.68000  1.0000
  B   B13       1.0  0.88600  0.70600  0.82000  1.0000
  B   B14       1.0  0.72000  0.58400  0.82200  1.0000
  B   B15       1.0  0.25000  0.42700  0.84100  1.0000
  B   B16       1.0  0.72800  0.73500  0.98300  1.0000
  H   H1        1.0  0.13900  0.19700  0.00395  1.0000
  H   H2        1.0  0.24100  0.51900  0.03240  1.0000
  H   H3        1.0  0.97200  0.31800  0.06190  1.0000
  H   H4        1.0  0.39300  0.19300  0.08010  1.0000
  H   H5        1.0  0.36600  0.73000  0.13000  1.0000
  H   H6        1.0  0.09400  0.93800  0.16000  1.0000
  H   H7        1.0  0.61400  0.04140  0.20600  1.0000
  H   H8        1.0  0.62900  0.53800  0.21800  1.0000
  H   H9        1.0  0.77100  0.71500  0.21900  1.0000
  H   H10       1.0  0.34700  0.93200  0.24300  1.0000
  H   H11       1.0  0.15300  0.43200  0.25700  1.0000
  H   H12       1.0  0.72900  0.21500  0.28100  1.0000
  H   H13       1.0  0.87100  0.03810  0.28200  1.0000
  H   H14       1.0  0.88600  0.54100  0.29400  1.0000
  H   H15       1.0  0.40600  0.43800  0.34000  1.0000
  H   H16       1.0  0.13400  0.23000  0.37000  1.0000
  H   H17       1.0  0.10700  0.69300  0.42000  1.0000
  H   H18       1.0  0.52800  0.81800  0.43800  1.0000
  H   H19       1.0  0.25900  0.01950  0.46800  1.0000
  H   H20       1.0  0.36100  0.69700  0.49600  1.0000
  H   H21       1.0  0.63900  0.30300  0.50400  1.0000
  H   H22       1.0  0.74100  0.98100  0.53200  1.0000
  H   H23       1.0  0.47200  0.18200  0.56200  1.0000
  H   H24       1.0  0.89300  0.30700  0.58000  1.0000
  H   H25       1.0  0.86600  0.77000  0.63000  1.0000
  H   H26       1.0  0.59400  0.56200  0.66000  1.0000
  H   H27       1.0  0.11400  0.45900  0.70600  1.0000
  H   H28       1.0  0.12900  0.96200  0.71800  1.0000
  H   H29       1.0  0.27100  0.78500  0.71900  1.0000
  H   H30       1.0  0.84700  0.56800  0.74300  1.0000
  H   H31       1.0  0.65300  0.06780  0.75700  1.0000
  H   H32       1.0  0.22900  0.28500  0.78100  1.0000
  H   H33       1.0  0.37100  0.46200  0.78200  1.0000
  H   H34       1.0  0.38600  0.95900  0.79400  1.0000
  H   H35       1.0  0.90600  0.06190  0.84000  1.0000
  H   H36       1.0  0.63400  0.27000  0.87000  1.0000
  H   H37       1.0  0.60700  0.80700  0.92000  1.0000
  H   H38       1.0  0.02770  0.68200  0.93800  1.0000
  H   H39       1.0  0.75900  0.48100  0.96800  1.0000
  H   H40       1.0  0.86100  0.80300  0.99600  1.0000
