data_image0
_chemical_formula_structural       H22N8O18P6
_chemical_formula_sum              "H22 N8 O18 P6"
_cell_length_a       7.97686
_cell_length_b       7.76606
_cell_length_c       8.27115
_cell_angle_alpha    104.562
_cell_angle_beta     102.076
_cell_angle_gamma    86.2135

_space_group_name_H-M_alt    "P 1"
_space_group_IT_number       1

loop_
  _space_group_symop_operation_xyz
  'x, y, z'

loop_
  _atom_site_type_symbol
  _atom_site_label
  _atom_site_symmetry_multiplicity
  _atom_site_fract_x
  _atom_site_fract_y
  _atom_site_fract_z
  _atom_site_occupancy
  H   H1        1.0  0.22500  0.56000  0.05680  1.0000
  H   H2        1.0  0.76000  0.29800  0.06470  1.0000
  H   H3        1.0  0.52100  0.74900  0.06470  1.0000
  H   H4        1.0  0.65400  0.50000  0.09830  1.0000
  H   H5        1.0  0.26100  0.16000  0.17500  1.0000
  H   H6        1.0  0.41900  0.75400  0.22200  1.0000
  H   H7        1.0  0.08040  0.18200  0.25800  1.0000
  H   H8        1.0  0.22600  0.44400  0.34300  1.0000
  H   H9        1.0  0.26000  0.06830  0.34700  1.0000
  H   H10       1.0  0.41800  0.34100  0.41400  1.0000
  H   H11       1.0  0.75400  0.63900  0.47600  1.0000
  H   H12       1.0  0.24600  0.36100  0.52400  1.0000
  H   H13       1.0  0.58200  0.65900  0.58600  1.0000
  H   H14       1.0  0.74000  0.93200  0.65300  1.0000
  H   H15       1.0  0.77400  0.55600  0.65700  1.0000
  H   H16       1.0  0.92000  0.81800  0.74200  1.0000
  H   H17       1.0  0.58100  0.24600  0.77800  1.0000
  H   H18       1.0  0.73900  0.84000  0.82500  1.0000
  H   H19       1.0  0.34600  0.50000  0.90200  1.0000
  H   H20       1.0  0.47900  0.25100  0.93500  1.0000
  H   H21       1.0  0.24000  0.70200  0.93500  1.0000
  H   H22       1.0  0.77500  0.44000  0.94300  1.0000
  N   N1        1.0  0.69200  0.39500  0.00655  1.0000
  N   N2        1.0  0.45900  0.67200  0.11800  1.0000
  N   N3        1.0  0.21500  0.17900  0.29200  1.0000
  N   N4        1.0  0.28100  0.34300  0.40300  1.0000
  N   N5        1.0  0.71900  0.65700  0.59700  1.0000
  N   N6        1.0  0.78500  0.82100  0.70800  1.0000
  N   N7        1.0  0.54100  0.32800  0.88200  1.0000
  N   N8        1.0  0.30800  0.60500  0.99300  1.0000
  O   O1        1.0  0.31500  0.14300  0.00470  1.0000
  O   O2        1.0  0.87800  0.13400  0.13300  1.0000
  O   O3        1.0  0.97200  0.84600  0.20100  1.0000
  O   O4        1.0  0.11100  0.55100  0.21300  1.0000
  O   O5        1.0  0.71000  0.99800  0.30400  1.0000
  O   O6        1.0  0.82200  0.62900  0.31100  1.0000
  O   O7        1.0  0.33900  0.89900  0.40100  1.0000
  O   O8        1.0  0.61100  0.32000  0.40400  1.0000
  O   O9        1.0  0.08660  0.78400  0.48800  1.0000
  O   O10       1.0  0.91300  0.21600  0.51200  1.0000
  O   O11       1.0  0.38900  0.68000  0.59600  1.0000
  O   O12       1.0  0.66100  0.10100  0.59900  1.0000
  O   O13       1.0  0.17800  0.37100  0.68900  1.0000
  O   O14       1.0  0.29000  0.00218  0.69600  1.0000
  O   O15       1.0  0.88900  0.44900  0.78700  1.0000
  O   O16       1.0  0.02840  0.15400  0.79900  1.0000
  O   O17       1.0  0.12200  0.86600  0.86700  1.0000
  O   O18       1.0  0.68500  0.85700  0.99500  1.0000
  P   P1        1.0  0.80600  0.96500  0.14500  1.0000
  P   P2        1.0  0.99200  0.68600  0.29600  1.0000
  P   P3        1.0  0.71000  0.16800  0.46100  1.0000
  P   P4        1.0  0.29000  0.83200  0.53900  1.0000
  P   P5        1.0  0.00837  0.31400  0.70400  1.0000
  P   P6        1.0  0.19400  0.03510  0.85500  1.0000
