data_image0
_chemical_formula_structural       F36Sb4Sn12
_chemical_formula_sum              "F36 Sb4 Sn12"
_cell_length_a       4.36609
_cell_length_b       8.82368
_cell_length_c       20.51
_cell_angle_alpha    90
_cell_angle_beta     90
_cell_angle_gamma    90

_space_group_name_H-M_alt    "P 1"
_space_group_IT_number       1

loop_
  _space_group_symop_operation_xyz
  'x, y, z'

loop_
  _atom_site_type_symbol
  _atom_site_label
  _atom_site_symmetry_multiplicity
  _atom_site_fract_x
  _atom_site_fract_y
  _atom_site_fract_z
  _atom_site_occupancy
  F   F1        1.0  0.81600  0.47000  0.04960  1.0000
  F   F2        1.0  0.18400  0.97000  0.04960  1.0000
  F   F3        1.0  0.63100  0.18900  0.06330  1.0000
  F   F4        1.0  0.36900  0.68900  0.06330  1.0000
  F   F5        1.0  0.22600  0.12900  0.16000  1.0000
  F   F6        1.0  0.77400  0.62900  0.16000  1.0000
  F   F7        1.0  0.76200  0.32700  0.18500  1.0000
  F   F8        1.0  0.23800  0.82700  0.18500  1.0000
  F   F9        1.0  0.80200  0.06790  0.25000  1.0000
  F   F10       1.0  0.19800  0.56800  0.25000  1.0000
  F   F11       1.0  0.76200  0.32700  0.31500  1.0000
  F   F12       1.0  0.23800  0.82700  0.31500  1.0000
  F   F13       1.0  0.22600  0.12900  0.34000  1.0000
  F   F14       1.0  0.77400  0.62900  0.34000  1.0000
  F   F15       1.0  0.63100  0.18900  0.43700  1.0000
  F   F16       1.0  0.36900  0.68900  0.43700  1.0000
  F   F17       1.0  0.81600  0.47000  0.45000  1.0000
  F   F18       1.0  0.18400  0.97000  0.45000  1.0000
  F   F19       1.0  0.81600  0.02990  0.55000  1.0000
  F   F20       1.0  0.18400  0.53000  0.55000  1.0000
  F   F21       1.0  0.63100  0.31100  0.56300  1.0000
  F   F22       1.0  0.36900  0.81100  0.56300  1.0000
  F   F23       1.0  0.22600  0.37100  0.66000  1.0000
  F   F24       1.0  0.77400  0.87100  0.66000  1.0000
  F   F25       1.0  0.76200  0.17300  0.68500  1.0000
  F   F26       1.0  0.23800  0.67300  0.68500  1.0000
  F   F27       1.0  0.80200  0.43200  0.75000  1.0000
  F   F28       1.0  0.19800  0.93200  0.75000  1.0000
  F   F29       1.0  0.76200  0.17300  0.81500  1.0000
  F   F30       1.0  0.23800  0.67300  0.81500  1.0000
  F   F31       1.0  0.22600  0.37100  0.84000  1.0000
  F   F32       1.0  0.77400  0.87100  0.84000  1.0000
  F   F33       1.0  0.63100  0.31100  0.93700  1.0000
  F   F34       1.0  0.36900  0.81100  0.93700  1.0000
  F   F35       1.0  0.81600  0.02990  0.95000  1.0000
  F   F36       1.0  0.18400  0.53000  0.95000  1.0000
  Sb  Sb1       1.0  0.08110  0.24800  0.25000  1.0000
  Sb  Sb2       1.0  0.91900  0.74800  0.25000  1.0000
  Sb  Sb3       1.0  0.08110  0.25200  0.75000  1.0000
  Sb  Sb4       1.0  0.91900  0.75200  0.75000  1.0000
  Sn  Sn1       1.0  0.00563  0.25000  0.00000  1.0000
  Sn  Sn2       1.0  0.99400  0.75000  0.00000  1.0000
  Sn  Sn3       1.0  0.44700  0.47400  0.11900  1.0000
  Sn  Sn4       1.0  0.55300  0.97400  0.11900  1.0000
  Sn  Sn5       1.0  0.44700  0.47400  0.38100  1.0000
  Sn  Sn6       1.0  0.55300  0.97400  0.38100  1.0000
  Sn  Sn7       1.0  0.00563  0.25000  0.50000  1.0000
  Sn  Sn8       1.0  0.99400  0.75000  0.50000  1.0000
  Sn  Sn9       1.0  0.44700  0.02560  0.61900  1.0000
  Sn  Sn10      1.0  0.55300  0.52600  0.61900  1.0000
  Sn  Sn11      1.0  0.44700  0.02560  0.88100  1.0000
  Sn  Sn12      1.0  0.55300  0.52600  0.88100  1.0000
