data_image0
_chemical_formula_structural       Cu8Mo10O34
_chemical_formula_sum              "Cu8 Mo10 O34"
_cell_length_a       6.73783
_cell_length_b       9.56104
_cell_length_c       10.8544
_cell_angle_alpha    107.05
_cell_angle_beta     88.2008
_cell_angle_gamma    111.361

_space_group_name_H-M_alt    "P 1"
_space_group_IT_number       1

loop_
  _space_group_symop_operation_xyz
  'x, y, z'

loop_
  _atom_site_type_symbol
  _atom_site_label
  _atom_site_symmetry_multiplicity
  _atom_site_fract_x
  _atom_site_fract_y
  _atom_site_fract_z
  _atom_site_occupancy
  Cu  Cu1       1.0  0.52800  0.27400  0.05160  1.0000
  Cu  Cu2       1.0  0.69400  0.90000  0.30300  1.0000
  Cu  Cu3       1.0  0.75600  0.44200  0.35700  1.0000
  Cu  Cu4       1.0  0.29700  0.22400  0.44500  1.0000
  Cu  Cu5       1.0  0.70300  0.77600  0.55500  1.0000
  Cu  Cu6       1.0  0.24400  0.55800  0.64300  1.0000
  Cu  Cu7       1.0  0.30600  0.10000  0.69700  1.0000
  Cu  Cu8       1.0  0.47200  0.72600  0.94800  1.0000
  Mo  Mo1       1.0  0.86500  0.62100  0.02800  1.0000
  Mo  Mo2       1.0  0.24700  0.96400  0.15200  1.0000
  Mo  Mo3       1.0  0.97900  0.20400  0.19900  1.0000
  Mo  Mo4       1.0  0.35000  0.55600  0.33200  1.0000
  Mo  Mo5       1.0  0.13000  0.80900  0.39300  1.0000
  Mo  Mo6       1.0  0.87000  0.19100  0.60700  1.0000
  Mo  Mo7       1.0  0.65000  0.44400  0.66800  1.0000
  Mo  Mo8       1.0  0.02140  0.79600  0.80100  1.0000
  Mo  Mo9       1.0  0.75300  0.03610  0.84800  1.0000
  Mo  Mo10      1.0  0.13500  0.37900  0.97200  1.0000
  O   O1        1.0  0.94600  0.16100  0.00894  1.0000
  O   O2        1.0  0.80700  0.42600  0.03620  1.0000
  O   O3        1.0  0.63500  0.66100  0.06740  1.0000
  O   O4        1.0  0.47000  0.91800  0.09910  1.0000
  O   O5        1.0  0.29400  0.15500  0.13300  1.0000
  O   O6        1.0  0.15700  0.41800  0.15700  1.0000
  O   O7        1.0  0.05210  0.74900  0.18000  1.0000
  O   O8        1.0  0.91800  0.00736  0.20800  1.0000
  O   O9        1.0  0.74300  0.24000  0.23300  1.0000
  O   O10       1.0  0.56100  0.49900  0.26600  1.0000
  O   O11       1.0  0.40700  0.75000  0.30700  1.0000
  O   O12       1.0  0.27900  0.00937  0.33300  1.0000
  O   O13       1.0  0.16200  0.32900  0.35000  1.0000
  O   O14       1.0  0.04640  0.59700  0.37700  1.0000
  O   O15       1.0  0.87700  0.83200  0.41400  1.0000
  O   O16       1.0  0.73000  0.09620  0.45400  1.0000
  O   O17       1.0  0.58600  0.38400  0.49500  1.0000
  O   O18       1.0  0.41400  0.61600  0.50500  1.0000
  O   O19       1.0  0.27000  0.90400  0.54600  1.0000
  O   O20       1.0  0.12300  0.16800  0.58600  1.0000
  O   O21       1.0  0.95400  0.40300  0.62300  1.0000
  O   O22       1.0  0.83800  0.67100  0.65000  1.0000
  O   O23       1.0  0.72100  0.99100  0.66700  1.0000
  O   O24       1.0  0.59300  0.25000  0.69300  1.0000
  O   O25       1.0  0.43900  0.50100  0.73400  1.0000
  O   O26       1.0  0.25700  0.76000  0.76700  1.0000
  O   O27       1.0  0.08190  0.99300  0.79200  1.0000
  O   O28       1.0  0.94800  0.25100  0.82000  1.0000
  O   O29       1.0  0.84300  0.58200  0.84300  1.0000
  O   O30       1.0  0.70600  0.84500  0.86700  1.0000
  O   O31       1.0  0.53000  0.08160  0.90100  1.0000
  O   O32       1.0  0.36500  0.33900  0.93300  1.0000
  O   O33       1.0  0.19300  0.57400  0.96400  1.0000
  O   O34       1.0  0.05390  0.83900  0.99100  1.0000
