data_image0
_chemical_formula_structural       H20O22P4Zn4
_chemical_formula_sum              "H20 O22 P4 Zn4"
_cell_length_a       7.11157
_cell_length_b       7.16629
_cell_length_c       9.23459
_cell_angle_alpha    90.5083
_cell_angle_beta     90.037
_cell_angle_gamma    85.2636

_space_group_name_H-M_alt    "P 1"
_space_group_IT_number       1

loop_
  _space_group_symop_operation_xyz
  'x, y, z'

loop_
  _atom_site_type_symbol
  _atom_site_label
  _atom_site_symmetry_multiplicity
  _atom_site_fract_x
  _atom_site_fract_y
  _atom_site_fract_z
  _atom_site_occupancy
  H   H1        1.0  0.23600  0.90300  0.00835  1.0000
  H   H2        1.0  0.75200  0.73000  0.10200  1.0000
  H   H3        1.0  0.97400  0.82700  0.22000  1.0000
  H   H4        1.0  0.12200  0.33800  0.23400  1.0000
  H   H5        1.0  0.47400  0.14500  0.23700  1.0000
  H   H6        1.0  0.43600  0.93200  0.23900  1.0000
  H   H7        1.0  0.90400  0.36700  0.25200  1.0000
  H   H8        1.0  0.91700  0.98600  0.34500  1.0000
  H   H9        1.0  0.73900  0.21100  0.43500  1.0000
  H   H10       1.0  0.90800  0.69900  0.47100  1.0000
  H   H11       1.0  0.09160  0.30100  0.52900  1.0000
  H   H12       1.0  0.26100  0.78900  0.56500  1.0000
  H   H13       1.0  0.08280  0.01390  0.65500  1.0000
  H   H14       1.0  0.09560  0.63300  0.74800  1.0000
  H   H15       1.0  0.56400  0.06820  0.76100  1.0000
  H   H16       1.0  0.52600  0.85500  0.76300  1.0000
  H   H17       1.0  0.87800  0.66200  0.76600  1.0000
  H   H18       1.0  0.02560  0.17300  0.78000  1.0000
  H   H19       1.0  0.24800  0.27000  0.89800  1.0000
  H   H20       1.0  0.76400  0.09720  0.99200  1.0000
  O   O1        1.0  0.25300  0.56900  0.06160  1.0000
  O   O2        1.0  0.88900  0.70500  0.11800  1.0000
  O   O3        1.0  0.51000  0.75700  0.12500  1.0000
  O   O4        1.0  0.56700  0.29300  0.14600  1.0000
  O   O5        1.0  0.00347  0.31700  0.18100  1.0000
  O   O6        1.0  0.02820  0.92500  0.28900  1.0000
  O   O7        1.0  0.40400  0.05150  0.29300  1.0000
  O   O8        1.0  0.26900  0.44900  0.35500  1.0000
  O   O9        1.0  0.75300  0.43400  0.37900  1.0000
  O   O10       1.0  0.57100  0.72700  0.42900  1.0000
  O   O11       1.0  0.74700  0.07210  0.44600  1.0000
  O   O12       1.0  0.25300  0.92800  0.55400  1.0000
  O   O13       1.0  0.42900  0.27300  0.57100  1.0000
  O   O14       1.0  0.24600  0.56600  0.62100  1.0000
  O   O15       1.0  0.73100  0.55100  0.64500  1.0000
  O   O16       1.0  0.59600  0.94900  0.70700  1.0000
  O   O17       1.0  0.97200  0.07500  0.71100  1.0000
  O   O18       1.0  0.99700  0.68300  0.81900  1.0000
  O   O19       1.0  0.43300  0.70700  0.85400  1.0000
  O   O20       1.0  0.49000  0.24300  0.87500  1.0000
  O   O21       1.0  0.11000  0.29500  0.88200  1.0000
  O   O22       1.0  0.74700  0.43100  0.93800  1.0000
  P   P1        1.0  0.35500  0.73600  0.00759  1.0000
  P   P2        1.0  0.74500  0.60300  0.48500  1.0000
  P   P3        1.0  0.25500  0.39700  0.51500  1.0000
  P   P4        1.0  0.64500  0.26400  0.99200  1.0000
  Zn  Zn1       1.0  0.00000  0.50000  0.00000  1.0000
  Zn  Zn2       1.0  0.49600  0.53100  0.25900  1.0000
  Zn  Zn3       1.0  0.50000  0.00000  0.50000  1.0000
  Zn  Zn4       1.0  0.50400  0.46900  0.74100  1.0000
