data_image0
_chemical_formula_structural       H16Li2Na4O26P6
_chemical_formula_sum              "H16 Li2 Na4 O26 P6"
_cell_length_a       6.79416
_cell_length_b       9.10115
_cell_length_c       9.59035
_cell_angle_alpha    95.8584
_cell_angle_beta     104.262
_cell_angle_gamma    107.773

_space_group_name_H-M_alt    "P 1"
_space_group_IT_number       1

loop_
  _space_group_symop_operation_xyz
  'x, y, z'

loop_
  _atom_site_type_symbol
  _atom_site_label
  _atom_site_symmetry_multiplicity
  _atom_site_fract_x
  _atom_site_fract_y
  _atom_site_fract_z
  _atom_site_occupancy
  H   H1        1.0  0.31700  0.44900  0.22100  1.0000
  H   H2        1.0  0.20600  0.79100  0.27300  1.0000
  H   H3        1.0  0.43400  0.78000  0.29800  1.0000
  H   H4        1.0  0.09880  0.43700  0.32700  1.0000
  H   H5        1.0  0.97000  0.55000  0.33400  1.0000
  H   H6        1.0  0.75400  0.31200  0.34400  1.0000
  H   H7        1.0  0.47400  0.56000  0.37000  1.0000
  H   H8        1.0  0.74600  0.20700  0.46000  1.0000
  H   H9        1.0  0.25400  0.79300  0.54000  1.0000
  H   H10       1.0  0.52600  0.44000  0.63000  1.0000
  H   H11       1.0  0.24600  0.68800  0.65600  1.0000
  H   H12       1.0  0.03030  0.45000  0.66600  1.0000
  H   H13       1.0  0.90100  0.56300  0.67300  1.0000
  H   H14       1.0  0.56600  0.22000  0.70200  1.0000
  H   H15       1.0  0.79400  0.20900  0.72700  1.0000
  H   H16       1.0  0.68300  0.55100  0.77900  1.0000
  Li  Li1       1.0  0.38900  0.26600  0.38400  1.0000
  Li  Li2       1.0  0.61100  0.73400  0.61600  1.0000
  Na  Na1       1.0  0.81600  0.33900  0.03500  1.0000
  Na  Na2       1.0  0.43900  0.04690  0.15900  1.0000
  Na  Na3       1.0  0.56100  0.95300  0.84100  1.0000
  Na  Na4       1.0  0.18400  0.66100  0.96500  1.0000
  O   O1        1.0  0.19000  0.42000  0.03480  1.0000
  O   O2        1.0  0.47500  0.28200  0.06490  1.0000
  O   O3        1.0  0.92400  0.86300  0.08180  1.0000
  O   O4        1.0  0.76200  0.08300  0.09320  1.0000
  O   O5        1.0  0.68500  0.66300  0.18200  1.0000
  O   O6        1.0  0.32000  0.79900  0.22400  1.0000
  O   O7        1.0  0.15900  0.12100  0.23600  1.0000
  O   O8        1.0  0.94900  0.44000  0.29700  1.0000
  O   O9        1.0  0.83700  0.95100  0.30800  1.0000
  O   O10       1.0  0.35900  0.45600  0.32900  1.0000
  O   O11       1.0  0.64900  0.23000  0.37700  1.0000
  O   O12       1.0  0.03310  0.76000  0.38900  1.0000
  O   O13       1.0  0.66100  0.74300  0.43000  1.0000
  O   O14       1.0  0.33900  0.25700  0.57000  1.0000
  O   O15       1.0  0.96700  0.24000  0.61100  1.0000
  O   O16       1.0  0.35100  0.77000  0.62300  1.0000
  O   O17       1.0  0.64100  0.54400  0.67100  1.0000
  O   O18       1.0  0.16300  0.04880  0.69200  1.0000
  O   O19       1.0  0.05090  0.56000  0.70300  1.0000
  O   O20       1.0  0.84100  0.87900  0.76400  1.0000
  O   O21       1.0  0.68000  0.20100  0.77600  1.0000
  O   O22       1.0  0.31500  0.33700  0.81800  1.0000
  O   O23       1.0  0.23800  0.91700  0.90700  1.0000
  O   O24       1.0  0.07560  0.13700  0.91800  1.0000
  O   O25       1.0  0.52500  0.71800  0.93500  1.0000
  O   O26       1.0  0.81000  0.58000  0.96500  1.0000
  P   P1        1.0  0.72300  0.69800  0.02570  1.0000
  P   P2        1.0  0.92700  0.02260  0.17700  1.0000
  P   P3        1.0  0.81600  0.77800  0.34000  1.0000
  P   P4        1.0  0.18400  0.22200  0.66000  1.0000
  P   P5        1.0  0.07310  0.97700  0.82300  1.0000
  P   P6        1.0  0.27700  0.30200  0.97400  1.0000
