data_image0
_chemical_formula_structural       H8Na8O28P8
_chemical_formula_sum              "H8 Na8 O28 P8"
_cell_length_a       6.78627
_cell_length_b       6.99413
_cell_length_c       13.9862
_cell_angle_alpha    96.7592
_cell_angle_beta     75.9596
_cell_angle_gamma    119.022

_space_group_name_H-M_alt    "P 1"
_space_group_IT_number       1

loop_
  _space_group_symop_operation_xyz
  'x, y, z'

loop_
  _atom_site_type_symbol
  _atom_site_label
  _atom_site_symmetry_multiplicity
  _atom_site_fract_x
  _atom_site_fract_y
  _atom_site_fract_z
  _atom_site_occupancy
  H   H1        1.0  0.99200  0.75000  0.01510  1.0000
  H   H2        1.0  0.05350  0.10700  0.25000  1.0000
  H   H3        1.0  0.69600  0.39300  0.25000  1.0000
  H   H4        1.0  0.75800  0.75000  0.48500  1.0000
  H   H5        1.0  0.24200  0.25000  0.51500  1.0000
  H   H6        1.0  0.30400  0.60700  0.75000  1.0000
  H   H7        1.0  0.94600  0.89300  0.75000  1.0000
  H   H8        1.0  0.00757  0.25000  0.98500  1.0000
  Na  Na1       1.0  0.16600  0.53400  0.15300  1.0000
  Na  Na2       1.0  0.68200  0.96600  0.15300  1.0000
  Na  Na3       1.0  0.36900  0.53400  0.34700  1.0000
  Na  Na4       1.0  0.28400  0.96600  0.34700  1.0000
  Na  Na5       1.0  0.71600  0.03430  0.65300  1.0000
  Na  Na6       1.0  0.63100  0.46600  0.65300  1.0000
  Na  Na7       1.0  0.31800  0.03430  0.84700  1.0000
  Na  Na8       1.0  0.83400  0.46600  0.84700  1.0000
  O   O1        1.0  0.81600  0.59000  0.01090  1.0000
  O   O2        1.0  0.17300  0.91000  0.01090  1.0000
  O   O3        1.0  0.47300  0.25000  0.05400  1.0000
  O   O4        1.0  0.07080  0.10900  0.16300  1.0000
  O   O5        1.0  0.76700  0.39100  0.16300  1.0000
  O   O6        1.0  0.51900  0.57500  0.16900  1.0000
  O   O7        1.0  0.31200  0.92500  0.16900  1.0000
  O   O8        1.0  0.05600  0.57500  0.33100  1.0000
  O   O9        1.0  0.61300  0.92500  0.33100  1.0000
  O   O10       1.0  0.03800  0.10900  0.33700  1.0000
  O   O11       1.0  0.62500  0.39100  0.33700  1.0000
  O   O12       1.0  0.77700  0.25000  0.44600  1.0000
  O   O13       1.0  0.77400  0.59000  0.48900  1.0000
  O   O14       1.0  0.73700  0.91000  0.48900  1.0000
  O   O15       1.0  0.26300  0.08980  0.51100  1.0000
  O   O16       1.0  0.22600  0.41000  0.51100  1.0000
  O   O17       1.0  0.22300  0.75000  0.55400  1.0000
  O   O18       1.0  0.37500  0.60900  0.66300  1.0000
  O   O19       1.0  0.96200  0.89100  0.66300  1.0000
  O   O20       1.0  0.38700  0.07480  0.66900  1.0000
  O   O21       1.0  0.94400  0.42500  0.66900  1.0000
  O   O22       1.0  0.68800  0.07480  0.83100  1.0000
  O   O23       1.0  0.48100  0.42500  0.83100  1.0000
  O   O24       1.0  0.23300  0.60900  0.83700  1.0000
  O   O25       1.0  0.92900  0.89100  0.83700  1.0000
  O   O26       1.0  0.52700  0.75000  0.94600  1.0000
  O   O27       1.0  0.82700  0.08980  0.98900  1.0000
  O   O28       1.0  0.18400  0.41000  0.98900  1.0000
  P   P1        1.0  0.24800  0.03480  0.10400  1.0000
  P   P2        1.0  0.64800  0.46500  0.10400  1.0000
  P   P3        1.0  0.78600  0.03480  0.39600  1.0000
  P   P4        1.0  0.81800  0.46500  0.39600  1.0000
  P   P5        1.0  0.18200  0.53500  0.60400  1.0000
  P   P6        1.0  0.21400  0.96500  0.60400  1.0000
  P   P7        1.0  0.35200  0.53500  0.89600  1.0000
  P   P8        1.0  0.75200  0.96500  0.89600  1.0000
