data_image0
_chemical_formula_structural       Cl24N8O8P8S4
_chemical_formula_sum              "Cl24 N8 O8 P8 S4"
_cell_length_a       11.9165
_cell_length_b       7.76389
_cell_length_c       12.3931
_cell_angle_alpha    90
_cell_angle_beta     94.8982
_cell_angle_gamma    90

_space_group_name_H-M_alt    "P 1"
_space_group_IT_number       1

loop_
  _space_group_symop_operation_xyz
  'x, y, z'

loop_
  _atom_site_type_symbol
  _atom_site_label
  _atom_site_symmetry_multiplicity
  _atom_site_fract_x
  _atom_site_fract_y
  _atom_site_fract_z
  _atom_site_occupancy
  Cl  Cl1       1.0  0.14800  0.75000  0.07200  1.0000
  Cl  Cl2       1.0  0.13000  0.34200  0.07260  1.0000
  Cl  Cl3       1.0  0.48400  0.70800  0.09740  1.0000
  Cl  Cl4       1.0  0.66000  0.40700  0.16000  1.0000
  Cl  Cl5       1.0  0.40600  0.16700  0.16300  1.0000
  Cl  Cl6       1.0  0.97600  0.56200  0.21500  1.0000
  Cl  Cl7       1.0  0.02430  0.06210  0.28500  1.0000
  Cl  Cl8       1.0  0.59400  0.66700  0.33700  1.0000
  Cl  Cl9       1.0  0.34000  0.90700  0.34000  1.0000
  Cl  Cl10      1.0  0.51600  0.20800  0.40300  1.0000
  Cl  Cl11      1.0  0.87000  0.84200  0.42700  1.0000
  Cl  Cl12      1.0  0.85200  0.25000  0.42800  1.0000
  Cl  Cl13      1.0  0.14800  0.75000  0.57200  1.0000
  Cl  Cl14      1.0  0.13000  0.15800  0.57300  1.0000
  Cl  Cl15      1.0  0.48400  0.79200  0.59700  1.0000
  Cl  Cl16      1.0  0.66000  0.09330  0.66000  1.0000
  Cl  Cl17      1.0  0.40600  0.33300  0.66300  1.0000
  Cl  Cl18      1.0  0.97600  0.93800  0.71500  1.0000
  Cl  Cl19      1.0  0.02430  0.43800  0.78500  1.0000
  Cl  Cl20      1.0  0.59400  0.83300  0.83700  1.0000
  Cl  Cl21      1.0  0.34000  0.59300  0.84000  1.0000
  Cl  Cl22      1.0  0.51600  0.29200  0.90300  1.0000
  Cl  Cl23      1.0  0.87000  0.65800  0.92700  1.0000
  Cl  Cl24      1.0  0.85200  0.25000  0.92800  1.0000
  N   N1        1.0  0.73600  0.75500  0.15400  1.0000
  N   N2        1.0  0.76800  0.05680  0.24100  1.0000
  N   N3        1.0  0.23200  0.55700  0.25900  1.0000
  N   N4        1.0  0.26400  0.25500  0.34600  1.0000
  N   N5        1.0  0.73600  0.74500  0.65400  1.0000
  N   N6        1.0  0.76800  0.44300  0.74100  1.0000
  N   N7        1.0  0.23200  0.94300  0.75900  1.0000
  N   N8        1.0  0.26400  0.24500  0.84600  1.0000
  O   O1        1.0  0.65500  0.02930  0.06760  1.0000
  O   O2        1.0  0.85800  0.96200  0.07340  1.0000
  O   O3        1.0  0.14200  0.46200  0.42700  1.0000
  O   O4        1.0  0.34500  0.52900  0.43200  1.0000
  O   O5        1.0  0.65500  0.47100  0.56800  1.0000
  O   O6        1.0  0.85800  0.53800  0.57300  1.0000
  O   O7        1.0  0.14200  0.03790  0.92700  1.0000
  O   O8        1.0  0.34500  0.97100  0.93200  1.0000
  P   P1        1.0  0.13200  0.54900  0.16900  1.0000
  P   P2        1.0  0.63000  0.65400  0.18300  1.0000
  P   P3        1.0  0.37000  0.15400  0.31700  1.0000
  P   P4        1.0  0.86800  0.04940  0.33100  1.0000
  P   P5        1.0  0.13200  0.95100  0.66900  1.0000
  P   P6        1.0  0.63000  0.84600  0.68300  1.0000
  P   P7        1.0  0.37000  0.34600  0.81700  1.0000
  P   P8        1.0  0.86800  0.45100  0.83100  1.0000
  S   S1        1.0  0.75400  0.95700  0.12500  1.0000
  S   S2        1.0  0.24600  0.45700  0.37500  1.0000
  S   S3        1.0  0.75400  0.54300  0.62500  1.0000
  S   S4        1.0  0.24600  0.04320  0.87500  1.0000
