data_image0
_chemical_formula_structural       C8Ca4H16N8O8S8
_chemical_formula_sum              "C8 Ca4 H16 N8 O8 S8"
_cell_length_a       12.5854
_cell_length_b       7.71363
_cell_length_c       7.2335
_cell_angle_alpha    90
_cell_angle_beta     90
_cell_angle_gamma    90

_space_group_name_H-M_alt    "P 1"
_space_group_IT_number       1

loop_
  _space_group_symop_operation_xyz
  'x, y, z'

loop_
  _atom_site_type_symbol
  _atom_site_label
  _atom_site_symmetry_multiplicity
  _atom_site_fract_x
  _atom_site_fract_y
  _atom_site_fract_z
  _atom_site_occupancy
  C   C1        1.0  0.61200  0.75000  0.07350  1.0000
  C   C2        1.0  0.63500  0.25000  0.07840  1.0000
  C   C3        1.0  0.13500  0.25000  0.42200  1.0000
  C   C4        1.0  0.11200  0.75000  0.42700  1.0000
  C   C5        1.0  0.88800  0.25000  0.57300  1.0000
  C   C6        1.0  0.86500  0.75000  0.57800  1.0000
  C   C7        1.0  0.36500  0.75000  0.92200  1.0000
  C   C8        1.0  0.38800  0.25000  0.92700  1.0000
  Ca  Ca1       1.0  0.95700  0.25000  0.04010  1.0000
  Ca  Ca2       1.0  0.45700  0.25000  0.46000  1.0000
  Ca  Ca3       1.0  0.54300  0.75000  0.54000  1.0000
  Ca  Ca4       1.0  0.04250  0.75000  0.96000  1.0000
  H   H1        1.0  0.17000  0.07470  0.00256  1.0000
  H   H2        1.0  0.17000  0.42500  0.00256  1.0000
  H   H3        1.0  0.87600  0.58300  0.19700  1.0000
  H   H4        1.0  0.87600  0.91700  0.19700  1.0000
  H   H5        1.0  0.37600  0.58300  0.30300  1.0000
  H   H6        1.0  0.37600  0.91700  0.30300  1.0000
  H   H7        1.0  0.67000  0.07470  0.49700  1.0000
  H   H8        1.0  0.67000  0.42500  0.49700  1.0000
  H   H9        1.0  0.33000  0.57500  0.50300  1.0000
  H   H10       1.0  0.33000  0.92500  0.50300  1.0000
  H   H11       1.0  0.62400  0.08320  0.69700  1.0000
  H   H12       1.0  0.62400  0.41700  0.69700  1.0000
  H   H13       1.0  0.12400  0.08320  0.80300  1.0000
  H   H14       1.0  0.12400  0.41700  0.80300  1.0000
  H   H15       1.0  0.83000  0.57500  0.99700  1.0000
  H   H16       1.0  0.83000  0.92500  0.99700  1.0000
  N   N1        1.0  0.57600  0.25000  0.20600  1.0000
  N   N2        1.0  0.56100  0.75000  0.21100  1.0000
  N   N3        1.0  0.06120  0.75000  0.28900  1.0000
  N   N4        1.0  0.07580  0.25000  0.29400  1.0000
  N   N5        1.0  0.92400  0.75000  0.70600  1.0000
  N   N6        1.0  0.93900  0.25000  0.71100  1.0000
  N   N7        1.0  0.43900  0.25000  0.78900  1.0000
  N   N8        1.0  0.42400  0.75000  0.79400  1.0000
  O   O1        1.0  0.89500  0.54900  0.06910  1.0000
  O   O2        1.0  0.89500  0.95100  0.06910  1.0000
  O   O3        1.0  0.39500  0.54900  0.43100  1.0000
  O   O4        1.0  0.39500  0.95100  0.43100  1.0000
  O   O5        1.0  0.60500  0.04870  0.56900  1.0000
  O   O6        1.0  0.60500  0.45100  0.56900  1.0000
  O   O7        1.0  0.10500  0.04870  0.93100  1.0000
  O   O8        1.0  0.10500  0.45100  0.93100  1.0000
  S   S1        1.0  0.28100  0.75000  0.09330  1.0000
  S   S2        1.0  0.31200  0.25000  0.10900  1.0000
  S   S3        1.0  0.81200  0.25000  0.39100  1.0000
  S   S4        1.0  0.78100  0.75000  0.40700  1.0000
  S   S5        1.0  0.21900  0.25000  0.59300  1.0000
  S   S6        1.0  0.18800  0.75000  0.60900  1.0000
  S   S7        1.0  0.68800  0.75000  0.89100  1.0000
  S   S8        1.0  0.71900  0.25000  0.90700  1.0000
