data_image0
_chemical_formula_structural       La4Na8O28P4S8
_chemical_formula_sum              "La4 Na8 O28 P4 S8"
_cell_length_a       14.3289
_cell_length_b       5.35578
_cell_length_c       9.63025
_cell_angle_alpha    90
_cell_angle_beta     92.1187
_cell_angle_gamma    90

_space_group_name_H-M_alt    "P 1"
_space_group_IT_number       1

loop_
  _space_group_symop_operation_xyz
  'x, y, z'

loop_
  _atom_site_type_symbol
  _atom_site_label
  _atom_site_symmetry_multiplicity
  _atom_site_fract_x
  _atom_site_fract_y
  _atom_site_fract_z
  _atom_site_occupancy
  La  La1       1.0  0.77600  0.46600  0.02050  1.0000
  La  La2       1.0  0.22400  0.96600  0.47900  1.0000
  La  La3       1.0  0.77600  0.03420  0.52100  1.0000
  La  La4       1.0  0.22400  0.53400  0.97900  1.0000
  Na  Na1       1.0  0.00000  0.50000  0.00000  1.0000
  Na  Na2       1.0  0.50000  0.50000  0.00000  1.0000
  Na  Na3       1.0  0.59400  0.98500  0.18200  1.0000
  Na  Na4       1.0  0.40600  0.48500  0.31800  1.0000
  Na  Na5       1.0  0.00000  0.00000  0.50000  1.0000
  Na  Na6       1.0  0.50000  0.00000  0.50000  1.0000
  Na  Na7       1.0  0.59400  0.51500  0.68200  1.0000
  Na  Na8       1.0  0.40600  0.01470  0.81800  1.0000
  O   O1        1.0  0.41800  0.15200  0.05520  1.0000
  O   O2        1.0  0.38500  0.71400  0.09900  1.0000
  O   O3        1.0  0.90100  0.23200  0.10700  1.0000
  O   O4        1.0  0.88100  0.76100  0.11200  1.0000
  O   O5        1.0  0.74600  0.05890  0.15300  1.0000
  O   O6        1.0  0.12300  0.50900  0.16300  1.0000
  O   O7        1.0  0.58100  0.49600  0.20900  1.0000
  O   O8        1.0  0.41900  0.99600  0.29100  1.0000
  O   O9        1.0  0.87700  0.00940  0.33700  1.0000
  O   O10       1.0  0.25400  0.55900  0.34700  1.0000
  O   O11       1.0  0.11900  0.26100  0.38800  1.0000
  O   O12       1.0  0.09860  0.73200  0.39300  1.0000
  O   O13       1.0  0.61500  0.21400  0.40100  1.0000
  O   O14       1.0  0.58200  0.65200  0.44500  1.0000
  O   O15       1.0  0.41800  0.34800  0.55500  1.0000
  O   O16       1.0  0.38500  0.78600  0.59900  1.0000
  O   O17       1.0  0.90100  0.26800  0.60700  1.0000
  O   O18       1.0  0.88100  0.73900  0.61200  1.0000
  O   O19       1.0  0.74600  0.44100  0.65300  1.0000
  O   O20       1.0  0.12300  0.99100  0.66300  1.0000
  O   O21       1.0  0.58100  0.00396  0.70900  1.0000
  O   O22       1.0  0.41900  0.50400  0.79100  1.0000
  O   O23       1.0  0.87700  0.49100  0.83700  1.0000
  O   O24       1.0  0.25400  0.94100  0.84700  1.0000
  O   O25       1.0  0.11900  0.23900  0.88800  1.0000
  O   O26       1.0  0.09860  0.76800  0.89300  1.0000
  O   O27       1.0  0.61500  0.28600  0.90100  1.0000
  O   O28       1.0  0.58200  0.84800  0.94500  1.0000
  P   P1        1.0  0.85400  0.01020  0.17900  1.0000
  P   P2        1.0  0.14600  0.51000  0.32100  1.0000
  P   P3        1.0  0.85400  0.49000  0.67900  1.0000
  P   P4        1.0  0.14600  0.99000  0.82100  1.0000
  S   S1        1.0  0.37100  0.97600  0.15100  1.0000
  S   S2        1.0  0.23800  0.04980  0.16200  1.0000
  S   S3        1.0  0.76200  0.55000  0.33800  1.0000
  S   S4        1.0  0.62900  0.47600  0.34900  1.0000
  S   S5        1.0  0.37100  0.52400  0.65100  1.0000
  S   S6        1.0  0.23800  0.45000  0.66200  1.0000
  S   S7        1.0  0.76200  0.95000  0.83800  1.0000
  S   S8        1.0  0.62900  0.02400  0.84900  1.0000
