data_image0
_chemical_formula_structural       GaNb4S8
_chemical_formula_sum              "Ga1 Nb4 S8"
_cell_length_a       7.10787
_cell_length_b       7.10787
_cell_length_c       7.10787
_cell_angle_alpha    120
_cell_angle_beta     90
_cell_angle_gamma    120

_space_group_name_H-M_alt    "P 1"
_space_group_IT_number       1

loop_
  _space_group_symop_operation_xyz
  'x, y, z'

loop_
  _atom_site_type_symbol
  _atom_site_label
  _atom_site_symmetry_multiplicity
  _atom_site_fract_x
  _atom_site_fract_y
  _atom_site_fract_z
  _atom_site_occupancy
  Ga  Ga1       1.0  0.00000  0.00000  0.00000  1.0000
  Nb  Nb1       1.0  0.39500  0.78900  0.18400  1.0000
  Nb  Nb2       1.0  0.81600  0.21100  0.60500  1.0000
  Nb  Nb3       1.0  0.39500  0.21100  0.60500  1.0000
  Nb  Nb4       1.0  0.39500  0.78900  0.60500  1.0000
  S   S1        1.0  0.63300  0.26500  0.36700  1.0000
  S   S2        1.0  0.10200  0.73500  0.36700  1.0000
  S   S3        1.0  0.63300  0.73500  0.36700  1.0000
  S   S4        1.0  0.13300  0.26600  0.39900  1.0000
  S   S5        1.0  0.13300  0.26600  0.86700  1.0000
  S   S6        1.0  0.13300  0.73400  0.86700  1.0000
  S   S7        1.0  0.60100  0.73400  0.86700  1.0000
  S   S8        1.0  0.63300  0.26500  0.89800  1.0000
