data_image0
_chemical_formula_structural       O36Ta8Te8
_chemical_formula_sum              "O36 Ta8 Te8"
_cell_length_a       7.04819
_cell_length_b       7.42145
_cell_length_c       14.6998
_cell_angle_alpha    90
_cell_angle_beta     103.066
_cell_angle_gamma    90

_space_group_name_H-M_alt    "P 1"
_space_group_IT_number       1

loop_
  _space_group_symop_operation_xyz
  'x, y, z'

loop_
  _atom_site_type_symbol
  _atom_site_label
  _atom_site_symmetry_multiplicity
  _atom_site_fract_x
  _atom_site_fract_y
  _atom_site_fract_z
  _atom_site_occupancy
  O   O1        1.0  0.00000  0.00000  0.00000  1.0000
  O   O2        1.0  0.50000  0.50000  0.00000  1.0000
  O   O3        1.0  0.17700  0.32600  0.05010  1.0000
  O   O4        1.0  0.20800  0.70200  0.05100  1.0000
  O   O5        1.0  0.70400  0.05770  0.08330  1.0000
  O   O6        1.0  0.88200  0.41000  0.14300  1.0000
  O   O7        1.0  0.60300  0.67300  0.16600  1.0000
  O   O8        1.0  0.52700  0.30700  0.17600  1.0000
  O   O9        1.0  0.09250  0.08830  0.18800  1.0000
  O   O10       1.0  0.27000  0.53800  0.22300  1.0000
  O   O11       1.0  0.73000  0.03800  0.27700  1.0000
  O   O12       1.0  0.90700  0.58800  0.31200  1.0000
  O   O13       1.0  0.47300  0.80700  0.32400  1.0000
  O   O14       1.0  0.39700  0.17300  0.33400  1.0000
  O   O15       1.0  0.11800  0.91000  0.35700  1.0000
  O   O16       1.0  0.29600  0.55800  0.41700  1.0000
  O   O17       1.0  0.79200  0.20200  0.44900  1.0000
  O   O18       1.0  0.82300  0.82600  0.45000  1.0000
  O   O19       1.0  0.50000  0.00000  0.50000  1.0000
  O   O20       1.0  0.00000  0.50000  0.50000  1.0000
  O   O21       1.0  0.17700  0.17400  0.55000  1.0000
  O   O22       1.0  0.20800  0.79800  0.55100  1.0000
  O   O23       1.0  0.70400  0.44200  0.58300  1.0000
  O   O24       1.0  0.88200  0.08980  0.64300  1.0000
  O   O25       1.0  0.60300  0.82700  0.66600  1.0000
  O   O26       1.0  0.52700  0.19300  0.67600  1.0000
  O   O27       1.0  0.09250  0.41200  0.68800  1.0000
  O   O28       1.0  0.27000  0.96200  0.72300  1.0000
  O   O29       1.0  0.73000  0.46200  0.77700  1.0000
  O   O30       1.0  0.90700  0.91200  0.81200  1.0000
  O   O31       1.0  0.47300  0.69300  0.82400  1.0000
  O   O32       1.0  0.39700  0.32700  0.83400  1.0000
  O   O33       1.0  0.11800  0.59000  0.85700  1.0000
  O   O34       1.0  0.29600  0.94200  0.91700  1.0000
  O   O35       1.0  0.79200  0.29800  0.94900  1.0000
  O   O36       1.0  0.82300  0.67400  0.95000  1.0000
  Ta  Ta1       1.0  0.93900  0.20300  0.06580  1.0000
  Ta  Ta2       1.0  0.37100  0.50200  0.10100  1.0000
  Ta  Ta3       1.0  0.62900  0.00222  0.39900  1.0000
  Ta  Ta4       1.0  0.06060  0.70300  0.43400  1.0000
  Ta  Ta5       1.0  0.93900  0.29700  0.56600  1.0000
  Ta  Ta6       1.0  0.37100  0.99800  0.60100  1.0000
  Ta  Ta7       1.0  0.62900  0.49800  0.89900  1.0000
  Ta  Ta8       1.0  0.06060  0.79700  0.93400  1.0000
  Te  Te1       1.0  0.53200  0.05320  0.16500  1.0000
  Te  Te2       1.0  0.88100  0.65000  0.18500  1.0000
  Te  Te3       1.0  0.11900  0.15000  0.31500  1.0000
  Te  Te4       1.0  0.46800  0.55300  0.33500  1.0000
  Te  Te5       1.0  0.53200  0.44700  0.66500  1.0000
  Te  Te6       1.0  0.88100  0.85000  0.68500  1.0000
  Te  Te7       1.0  0.11900  0.35000  0.81500  1.0000
  Te  Te8       1.0  0.46800  0.94700  0.83500  1.0000
