data_image0
_chemical_formula_structural       C8F6H28N2O4V2
_chemical_formula_sum              "C8 F6 H28 N2 O4 V2"
_cell_length_a       6.75845
_cell_length_b       7.79878
_cell_length_c       8.71007
_cell_angle_alpha    65.4718
_cell_angle_beta     82.4871
_cell_angle_gamma    72.514

_space_group_name_H-M_alt    "P 1"
_space_group_IT_number       1

loop_
  _space_group_symop_operation_xyz
  'x, y, z'

loop_
  _atom_site_type_symbol
  _atom_site_label
  _atom_site_symmetry_multiplicity
  _atom_site_fract_x
  _atom_site_fract_y
  _atom_site_fract_z
  _atom_site_occupancy
  C   C1        1.0  0.25200  0.39200  0.11200  1.0000
  C   C2        1.0  0.96200  0.39200  0.31100  1.0000
  C   C3        1.0  0.24200  0.09260  0.35900  1.0000
  C   C4        1.0  0.30500  0.36500  0.39500  1.0000
  C   C5        1.0  0.69500  0.63500  0.60500  1.0000
  C   C6        1.0  0.75800  0.90700  0.64100  1.0000
  C   C7        1.0  0.03840  0.60800  0.68900  1.0000
  C   C8        1.0  0.74800  0.60800  0.88800  1.0000
  F   F1        1.0  0.03120  0.14300  0.01810  1.0000
  F   F2        1.0  0.64400  0.83300  0.20300  1.0000
  F   F3        1.0  0.02710  0.81100  0.29400  1.0000
  F   F4        1.0  0.97300  0.18900  0.70600  1.0000
  F   F5        1.0  0.35600  0.16700  0.79700  1.0000
  F   F6        1.0  0.96900  0.85700  0.98200  1.0000
  H   H1        1.0  0.17700  0.33900  0.04370  1.0000
  H   H2        1.0  0.20300  0.55200  0.06420  1.0000
  H   H3        1.0  0.42100  0.34000  0.10300  1.0000
  H   H4        1.0  0.46600  0.82900  0.12400  1.0000
  H   H5        1.0  0.23400  0.80600  0.17700  1.0000
  H   H6        1.0  0.88100  0.34800  0.23800  1.0000
  H   H7        1.0  0.92500  0.55100  0.26400  1.0000
  H   H8        1.0  0.15400  0.05450  0.28700  1.0000
  H   H9        1.0  0.40900  0.03640  0.34200  1.0000
  H   H10       1.0  0.25900  0.52500  0.35000  1.0000
  H   H11       1.0  0.47100  0.31000  0.37500  1.0000
  H   H12       1.0  0.92100  0.32900  0.44400  1.0000
  H   H13       1.0  0.73800  0.70000  0.47200  1.0000
  H   H14       1.0  0.20100  0.03540  0.49300  1.0000
  H   H15       1.0  0.79900  0.96500  0.50700  1.0000
  H   H16       1.0  0.26200  0.30000  0.52800  1.0000
  H   H17       1.0  0.07940  0.67100  0.55600  1.0000
  H   H18       1.0  0.52900  0.69000  0.62500  1.0000
  H   H19       1.0  0.74100  0.47500  0.65000  1.0000
  H   H20       1.0  0.59100  0.96400  0.65800  1.0000
  H   H21       1.0  0.84600  0.94600  0.71300  1.0000
  H   H22       1.0  0.07500  0.44900  0.73600  1.0000
  H   H23       1.0  0.11900  0.65200  0.76200  1.0000
  H   H24       1.0  0.76600  0.19400  0.82300  1.0000
  H   H25       1.0  0.53400  0.17100  0.87600  1.0000
  H   H26       1.0  0.57900  0.66000  0.89700  1.0000
  H   H27       1.0  0.79700  0.44800  0.93600  1.0000
  H   H28       1.0  0.82300  0.66100  0.95600  1.0000
  N   N1        1.0  0.19000  0.31100  0.29400  1.0000
  N   N2        1.0  0.81000  0.68900  0.70600  1.0000
  O   O1        1.0  0.34200  0.80900  0.08670  1.0000
  O   O2        1.0  0.70700  0.14900  0.24300  1.0000
  O   O3        1.0  0.29300  0.85100  0.75700  1.0000
  O   O4        1.0  0.65800  0.19100  0.91300  1.0000
  V   V1        1.0  0.81300  0.01280  0.13600  1.0000
  V   V2        1.0  0.18700  0.98700  0.86400  1.0000
