data_image0
_chemical_formula_structural       H4In2O28Rb6Si10
_chemical_formula_sum              "H4 In2 O28 Rb6 Si10"
_cell_length_a       7.3025
_cell_length_b       7.3025
_cell_length_c       13.8106
_cell_angle_alpha    98.1153
_cell_angle_beta     98.1153
_cell_angle_gamma    103.552

_space_group_name_H-M_alt    "P 1"
_space_group_IT_number       1

loop_
  _space_group_symop_operation_xyz
  'x, y, z'

loop_
  _atom_site_type_symbol
  _atom_site_label
  _atom_site_symmetry_multiplicity
  _atom_site_fract_x
  _atom_site_fract_y
  _atom_site_fract_z
  _atom_site_occupancy
  H   H1        1.0  0.50900  0.38800  0.28600  1.0000
  H   H2        1.0  0.39000  0.22900  0.36900  1.0000
  H   H3        1.0  0.38800  0.50900  0.78600  1.0000
  H   H4        1.0  0.22900  0.39000  0.86900  1.0000
  In  In1       1.0  0.60400  0.10200  0.17800  1.0000
  In  In2       1.0  0.10200  0.60400  0.67800  1.0000
  O   O1        1.0  0.52900  0.57200  0.00746  1.0000
  O   O2        1.0  0.46700  0.22000  0.06030  1.0000
  O   O3        1.0  0.72200  0.94800  0.06520  1.0000
  O   O4        1.0  0.26000  0.46800  0.11300  1.0000
  O   O5        1.0  0.85500  0.67100  0.13800  1.0000
  O   O6        1.0  0.35500  0.85900  0.15100  1.0000
  O   O7        1.0  0.85500  0.33900  0.20200  1.0000
  O   O8        1.0  0.15100  0.64900  0.26200  1.0000
  O   O9        1.0  0.50200  0.65500  0.27800  1.0000
  O   O10       1.0  0.76700  0.99000  0.28900  1.0000
  O   O11       1.0  0.49500  0.25400  0.29300  1.0000
  O   O12       1.0  0.85300  0.66000  0.33100  1.0000
  O   O13       1.0  0.30100  0.21400  0.42500  1.0000
  O   O14       1.0  0.69900  0.86000  0.45400  1.0000
  O   O15       1.0  0.57200  0.52900  0.50700  1.0000
  O   O16       1.0  0.22000  0.46700  0.56000  1.0000
  O   O17       1.0  0.94800  0.72200  0.56500  1.0000
  O   O18       1.0  0.46800  0.26000  0.61300  1.0000
  O   O19       1.0  0.67100  0.85500  0.63800  1.0000
  O   O20       1.0  0.85900  0.35500  0.65100  1.0000
  O   O21       1.0  0.33900  0.85500  0.70200  1.0000
  O   O22       1.0  0.64900  0.15100  0.76200  1.0000
  O   O23       1.0  0.65500  0.50200  0.77800  1.0000
  O   O24       1.0  0.99000  0.76700  0.78900  1.0000
  O   O25       1.0  0.25400  0.49500  0.79300  1.0000
  O   O26       1.0  0.66000  0.85300  0.83100  1.0000
  O   O27       1.0  0.21400  0.30100  0.92500  1.0000
  O   O28       1.0  0.86000  0.69900  0.95400  1.0000
  Rb  Rb1       1.0  0.10400  0.09820  0.20500  1.0000
  Rb  Rb2       1.0  0.85200  0.30800  0.44000  1.0000
  Rb  Rb3       1.0  0.26900  0.83000  0.47100  1.0000
  Rb  Rb4       1.0  0.09820  0.10400  0.70500  1.0000
  Rb  Rb5       1.0  0.30800  0.85200  0.94000  1.0000
  Rb  Rb6       1.0  0.83000  0.26900  0.97100  1.0000
  Si  Si1       1.0  0.37300  0.38300  0.02720  1.0000
  Si  Si2       1.0  0.73600  0.73200  0.04400  1.0000
  Si  Si3       1.0  0.32100  0.66700  0.19600  1.0000
  Si  Si4       1.0  0.91800  0.56600  0.22900  1.0000
  Si  Si5       1.0  0.70800  0.80200  0.33500  1.0000
  Si  Si6       1.0  0.38300  0.37300  0.52700  1.0000
  Si  Si7       1.0  0.73200  0.73600  0.54400  1.0000
  Si  Si8       1.0  0.66700  0.32100  0.69600  1.0000
  Si  Si9       1.0  0.56600  0.91800  0.72900  1.0000
  Si  Si10      1.0  0.80200  0.70800  0.83500  1.0000
