data_image0
_chemical_formula_structural       Cd12O32P8
_chemical_formula_sum              "Cd12 O32 P8"
_cell_length_a       7.61443
_cell_length_b       9.54743
_cell_length_c       9.54743
_cell_angle_alpha    108.977
_cell_angle_beta     90
_cell_angle_gamma    90

_space_group_name_H-M_alt    "P 1"
_space_group_IT_number       1

loop_
  _space_group_symop_operation_xyz
  'x, y, z'

loop_
  _atom_site_type_symbol
  _atom_site_label
  _atom_site_symmetry_multiplicity
  _atom_site_fract_x
  _atom_site_fract_y
  _atom_site_fract_z
  _atom_site_occupancy
  Cd  Cd1       1.0  0.44000  0.31600  0.03260  1.0000
  Cd  Cd2       1.0  0.00000  0.89300  0.10700  1.0000
  Cd  Cd3       1.0  0.94000  0.46700  0.18400  1.0000
  Cd  Cd4       1.0  0.44000  0.03260  0.31600  1.0000
  Cd  Cd5       1.0  0.50000  0.60700  0.39300  1.0000
  Cd  Cd6       1.0  0.94000  0.18400  0.46700  1.0000
  Cd  Cd7       1.0  0.05960  0.81600  0.53300  1.0000
  Cd  Cd8       1.0  0.50000  0.39300  0.60700  1.0000
  Cd  Cd9       1.0  0.56000  0.96700  0.68400  1.0000
  Cd  Cd10      1.0  0.05960  0.53300  0.81600  1.0000
  Cd  Cd11      1.0  0.00000  0.10700  0.89300  1.0000
  Cd  Cd12      1.0  0.56000  0.68400  0.96700  1.0000
  O   O1        1.0  0.08300  0.62600  0.08790  1.0000
  O   O2        1.0  0.86600  0.10600  0.10600  1.0000
  O   O3        1.0  0.52100  0.11700  0.11700  1.0000
  O   O4        1.0  0.41700  0.58800  0.12600  1.0000
  O   O5        1.0  0.19300  0.31900  0.15200  1.0000
  O   O6        1.0  0.72300  0.82300  0.15800  1.0000
  O   O7        1.0  0.27700  0.84200  0.17700  1.0000
  O   O8        1.0  0.69300  0.34800  0.18100  1.0000
  O   O9        1.0  0.19300  0.15200  0.31900  1.0000
  O   O10       1.0  0.77700  0.65800  0.32300  1.0000
  O   O11       1.0  0.22300  0.67700  0.34200  1.0000
  O   O12       1.0  0.69300  0.18100  0.34800  1.0000
  O   O13       1.0  0.91700  0.91200  0.37400  1.0000
  O   O14       1.0  0.02090  0.38300  0.38300  1.0000
  O   O15       1.0  0.36600  0.39400  0.39400  1.0000
  O   O16       1.0  0.58300  0.87400  0.41200  1.0000
  O   O17       1.0  0.41700  0.12600  0.58800  1.0000
  O   O18       1.0  0.63400  0.60600  0.60600  1.0000
  O   O19       1.0  0.97900  0.61700  0.61700  1.0000
  O   O20       1.0  0.08300  0.08790  0.62600  1.0000
  O   O21       1.0  0.30700  0.81900  0.65200  1.0000
  O   O22       1.0  0.77700  0.32300  0.65800  1.0000
  O   O23       1.0  0.22300  0.34200  0.67700  1.0000
  O   O24       1.0  0.80700  0.84800  0.68100  1.0000
  O   O25       1.0  0.30700  0.65200  0.81900  1.0000
  O   O26       1.0  0.72300  0.15800  0.82300  1.0000
  O   O27       1.0  0.27700  0.17700  0.84200  1.0000
  O   O28       1.0  0.80700  0.68100  0.84800  1.0000
  O   O29       1.0  0.58300  0.41200  0.87400  1.0000
  O   O30       1.0  0.47900  0.88300  0.88300  1.0000
  O   O31       1.0  0.13400  0.89400  0.89400  1.0000
  O   O32       1.0  0.91700  0.37400  0.91200  1.0000
  P   P1        1.0  0.25000  0.68300  0.18300  1.0000
  P   P2        1.0  0.69600  0.18500  0.18500  1.0000
  P   P3        1.0  0.19600  0.31500  0.31500  1.0000
  P   P4        1.0  0.75000  0.81700  0.31700  1.0000
  P   P5        1.0  0.25000  0.18300  0.68300  1.0000
  P   P6        1.0  0.80400  0.68500  0.68500  1.0000
  P   P7        1.0  0.30400  0.81500  0.81500  1.0000
  P   P8        1.0  0.75000  0.31700  0.81700  1.0000
