data_image0
_chemical_formula_structural       Al4F2H16K2O24P4
_chemical_formula_sum              "Al4 F2 H16 K2 O24 P4"
_cell_length_a       9.21646
_cell_length_b       9.65442
_cell_length_c       5.44346
_cell_angle_alpha    90
_cell_angle_beta     90
_cell_angle_gamma    90

_space_group_name_H-M_alt    "P 1"
_space_group_IT_number       1

loop_
  _space_group_symop_operation_xyz
  'x, y, z'

loop_
  _atom_site_type_symbol
  _atom_site_label
  _atom_site_symmetry_multiplicity
  _atom_site_fract_x
  _atom_site_fract_y
  _atom_site_fract_z
  _atom_site_occupancy
  Al  Al1       1.0  0.35600  0.11000  0.96800  1.0000
  Al  Al2       1.0  0.85600  0.39000  0.96800  1.0000
  Al  Al3       1.0  0.14400  0.61000  0.96800  1.0000
  Al  Al4       1.0  0.64400  0.89000  0.96800  1.0000
  F   F1        1.0  0.50000  0.00000  0.10500  1.0000
  F   F2        1.0  0.00000  0.50000  0.10500  1.0000
  H   H1        1.0  0.52100  0.23100  0.28400  1.0000
  H   H2        1.0  0.02100  0.26900  0.28400  1.0000
  H   H3        1.0  0.97900  0.73100  0.28400  1.0000
  H   H4        1.0  0.47900  0.76900  0.28400  1.0000
  H   H5        1.0  0.85300  0.22500  0.32300  1.0000
  H   H6        1.0  0.35300  0.27500  0.32300  1.0000
  H   H7        1.0  0.64700  0.72500  0.32300  1.0000
  H   H8        1.0  0.14700  0.77500  0.32300  1.0000
  H   H9        1.0  0.72700  0.04040  0.33400  1.0000
  H   H10       1.0  0.22700  0.46000  0.33400  1.0000
  H   H11       1.0  0.77300  0.54000  0.33400  1.0000
  H   H12       1.0  0.27300  0.96000  0.33400  1.0000
  H   H13       1.0  0.21300  0.11800  0.36000  1.0000
  H   H14       1.0  0.71300  0.38200  0.36000  1.0000
  H   H15       1.0  0.28700  0.61800  0.36000  1.0000
  H   H16       1.0  0.78700  0.88200  0.36000  1.0000
  K   K1        1.0  0.00000  0.00000  0.91600  1.0000
  K   K2        1.0  0.50000  0.50000  0.91600  1.0000
  O   O1        1.0  0.92900  0.24500  0.19600  1.0000
  O   O2        1.0  0.42900  0.25500  0.19600  1.0000
  O   O3        1.0  0.57100  0.74500  0.19600  1.0000
  O   O4        1.0  0.07130  0.75500  0.19600  1.0000
  O   O5        1.0  0.23400  0.04110  0.24300  1.0000
  O   O6        1.0  0.73400  0.45900  0.24300  1.0000
  O   O7        1.0  0.26600  0.54100  0.24300  1.0000
  O   O8        1.0  0.76600  0.95900  0.24300  1.0000
  O   O9        1.0  0.68500  0.21100  0.44100  1.0000
  O   O10       1.0  0.18500  0.28900  0.44100  1.0000
  O   O11       1.0  0.81500  0.71100  0.44100  1.0000
  O   O12       1.0  0.31500  0.78900  0.44100  1.0000
  O   O13       1.0  0.47700  0.17600  0.72800  1.0000
  O   O14       1.0  0.97700  0.32400  0.72800  1.0000
  O   O15       1.0  0.02250  0.67600  0.72800  1.0000
  O   O16       1.0  0.52300  0.82400  0.72800  1.0000
  O   O17       1.0  0.71100  0.03400  0.77400  1.0000
  O   O18       1.0  0.21100  0.46600  0.77400  1.0000
  O   O19       1.0  0.78900  0.53400  0.77400  1.0000
  O   O20       1.0  0.28900  0.96600  0.77400  1.0000
  O   O21       1.0  0.20000  0.21500  0.89200  1.0000
  O   O22       1.0  0.70000  0.28500  0.89200  1.0000
  O   O23       1.0  0.30000  0.71500  0.89200  1.0000
  O   O24       1.0  0.80000  0.78500  0.89200  1.0000
  P   P1        1.0  0.64400  0.17600  0.71100  1.0000
  P   P2        1.0  0.14400  0.32400  0.71100  1.0000
  P   P3        1.0  0.85600  0.67600  0.71100  1.0000
  P   P4        1.0  0.35600  0.82400  0.71100  1.0000
