data_image0
_chemical_formula_structural       Ba6Cu11F34
_chemical_formula_sum              "Ba6 Cu11 F34"
_cell_length_a       7.33939
_cell_length_b       9.83527
_cell_length_c       9.93323
_cell_angle_alpha    81.9601
_cell_angle_beta     72.3769
_cell_angle_gamma    71.0487

_space_group_name_H-M_alt    "P 1"
_space_group_IT_number       1

loop_
  _space_group_symop_operation_xyz
  'x, y, z'

loop_
  _atom_site_type_symbol
  _atom_site_label
  _atom_site_symmetry_multiplicity
  _atom_site_fract_x
  _atom_site_fract_y
  _atom_site_fract_z
  _atom_site_occupancy
  Ba  Ba1       1.0  0.31200  0.35000  0.02900  1.0000
  Ba  Ba2       1.0  0.64600  0.90800  0.27600  1.0000
  Ba  Ba3       1.0  0.20500  0.63700  0.35300  1.0000
  Ba  Ba4       1.0  0.79500  0.36300  0.64700  1.0000
  Ba  Ba5       1.0  0.35400  0.09220  0.72400  1.0000
  Ba  Ba6       1.0  0.68800  0.65000  0.97100  1.0000
  Cu  Cu1       1.0  0.10700  0.74700  0.02040  1.0000
  Cu  Cu2       1.0  0.20000  0.00726  0.18400  1.0000
  Cu  Cu3       1.0  0.69600  0.25500  0.28400  1.0000
  Cu  Cu4       1.0  0.81000  0.51400  0.29300  1.0000
  Cu  Cu5       1.0  0.27900  0.25700  0.38600  1.0000
  Cu  Cu6       1.0  0.00000  0.00000  0.50000  1.0000
  Cu  Cu7       1.0  0.72100  0.74300  0.61400  1.0000
  Cu  Cu8       1.0  0.19000  0.48600  0.70700  1.0000
  Cu  Cu9       1.0  0.30400  0.74500  0.71600  1.0000
  Cu  Cu10      1.0  0.80000  0.99300  0.81600  1.0000
  Cu  Cu11      1.0  0.89300  0.25300  0.98000  1.0000
  F   F1        1.0  0.14500  0.13900  0.01300  1.0000
  F   F2        1.0  0.33700  0.61100  0.07360  1.0000
  F   F3        1.0  0.45600  0.88400  0.09250  1.0000
  F   F4        1.0  0.87800  0.40700  0.11000  1.0000
  F   F5        1.0  0.72300  0.14800  0.12600  1.0000
  F   F6        1.0  0.94600  0.64600  0.17500  1.0000
  F   F7        1.0  0.05700  0.87200  0.17900  1.0000
  F   F8        1.0  0.33400  0.13400  0.23000  1.0000
  F   F9        1.0  0.45000  0.38400  0.24800  1.0000
  F   F10       1.0  0.56900  0.65200  0.26200  1.0000
  F   F11       1.0  0.94600  0.12700  0.29600  1.0000
  F   F12       1.0  0.06600  0.39200  0.31600  1.0000
  F   F13       1.0  0.25000  0.89300  0.38000  1.0000
  F   F14       1.0  0.67600  0.38000  0.42100  1.0000
  F   F15       1.0  0.51400  0.13300  0.44100  1.0000
  F   F16       1.0  0.79800  0.61200  0.46300  1.0000
  F   F17       1.0  0.88500  0.86000  0.47100  1.0000
  F   F18       1.0  0.11500  0.14000  0.52900  1.0000
  F   F19       1.0  0.20200  0.38800  0.53700  1.0000
  F   F20       1.0  0.48600  0.86700  0.55900  1.0000
  F   F21       1.0  0.32400  0.62000  0.57900  1.0000
  F   F22       1.0  0.75000  0.10700  0.62000  1.0000
  F   F23       1.0  0.93400  0.60800  0.68400  1.0000
  F   F24       1.0  0.05370  0.87300  0.70400  1.0000
  F   F25       1.0  0.43100  0.34800  0.73800  1.0000
  F   F26       1.0  0.55000  0.61600  0.75200  1.0000
  F   F27       1.0  0.66600  0.86600  0.77000  1.0000
  F   F28       1.0  0.94300  0.12800  0.82100  1.0000
  F   F29       1.0  0.05440  0.35400  0.82500  1.0000
  F   F30       1.0  0.27700  0.85200  0.87400  1.0000
  F   F31       1.0  0.12200  0.59300  0.89000  1.0000
  F   F32       1.0  0.54400  0.11600  0.90800  1.0000
  F   F33       1.0  0.66300  0.38900  0.92600  1.0000
  F   F34       1.0  0.85500  0.86100  0.98700  1.0000
