data_image0
_chemical_formula_structural       Al32Ni24
_chemical_formula_sum              "Al32 Ni24"
_cell_length_a       9.86648
_cell_length_b       9.86648
_cell_length_c       9.86648
_cell_angle_alpha    109.471
_cell_angle_beta     109.471
_cell_angle_gamma    109.471

_space_group_name_H-M_alt    "P 1"
_space_group_IT_number       1

loop_
  _space_group_symop_operation_xyz
  'x, y, z'

loop_
  _atom_site_type_symbol
  _atom_site_label
  _atom_site_symmetry_multiplicity
  _atom_site_fract_x
  _atom_site_fract_y
  _atom_site_fract_z
  _atom_site_occupancy
  Al  Al1       1.0  0.00000  0.00000  0.00000  1.0000
  Al  Al2       1.0  0.50000  0.00000  0.00000  1.0000
  Al  Al3       1.0  0.50000  0.50000  0.00000  1.0000
  Al  Al4       1.0  0.00000  0.50000  0.00000  1.0000
  Al  Al5       1.0  0.75000  0.75900  0.00896  1.0000
  Al  Al6       1.0  0.75900  0.25000  0.00896  1.0000
  Al  Al7       1.0  0.99100  0.25000  0.24100  1.0000
  Al  Al8       1.0  0.75000  0.99100  0.24100  1.0000
  Al  Al9       1.0  0.25900  0.00896  0.25000  1.0000
  Al  Al10      1.0  0.49100  0.24100  0.25000  1.0000
  Al  Al11      1.0  0.75900  0.50900  0.25000  1.0000
  Al  Al12      1.0  0.99100  0.74100  0.25000  1.0000
  Al  Al13      1.0  0.25000  0.50900  0.25900  1.0000
  Al  Al14      1.0  0.50900  0.75000  0.25900  1.0000
  Al  Al15      1.0  0.25000  0.74100  0.49100  1.0000
  Al  Al16      1.0  0.74100  0.75000  0.49100  1.0000
  Al  Al17      1.0  0.50000  0.00000  0.50000  1.0000
  Al  Al18      1.0  0.00000  0.50000  0.50000  1.0000
  Al  Al19      1.0  0.00000  0.00000  0.50000  1.0000
  Al  Al20      1.0  0.50000  0.50000  0.50000  1.0000
  Al  Al21      1.0  0.75000  0.25900  0.50900  1.0000
  Al  Al22      1.0  0.25900  0.25000  0.50900  1.0000
  Al  Al23      1.0  0.75000  0.49100  0.74100  1.0000
  Al  Al24      1.0  0.49100  0.25000  0.74100  1.0000
  Al  Al25      1.0  0.00896  0.25900  0.75000  1.0000
  Al  Al26      1.0  0.24100  0.49100  0.75000  1.0000
  Al  Al27      1.0  0.50900  0.75900  0.75000  1.0000
  Al  Al28      1.0  0.74100  0.99100  0.75000  1.0000
  Al  Al29      1.0  0.00896  0.75000  0.75900  1.0000
  Al  Al30      1.0  0.25000  0.00896  0.75900  1.0000
  Al  Al31      1.0  0.25000  0.24100  0.99100  1.0000
  Al  Al32      1.0  0.24100  0.75000  0.99100  1.0000
  Ni  Ni1       1.0  0.99400  0.75000  0.00628  1.0000
  Ni  Ni2       1.0  0.51300  0.25600  0.00628  1.0000
  Ni  Ni3       1.0  0.25600  0.50600  0.01260  1.0000
  Ni  Ni4       1.0  0.49400  0.48700  0.24400  1.0000
  Ni  Ni5       1.0  0.25000  0.75600  0.24400  1.0000
  Ni  Ni6       1.0  0.50600  0.99400  0.25000  1.0000
  Ni  Ni7       1.0  0.24400  0.25600  0.25000  1.0000
  Ni  Ni8       1.0  0.01260  0.00628  0.25600  1.0000
  Ni  Ni9       1.0  0.74400  0.25000  0.25600  1.0000
  Ni  Ni10      1.0  0.99400  0.24400  0.48700  1.0000
  Ni  Ni11      1.0  0.75000  0.50600  0.49400  1.0000
  Ni  Ni12      1.0  0.24400  0.98700  0.49400  1.0000
  Ni  Ni13      1.0  0.25000  0.49400  0.50600  1.0000
  Ni  Ni14      1.0  0.75600  0.01260  0.50600  1.0000
  Ni  Ni15      1.0  0.00628  0.75600  0.51300  1.0000
  Ni  Ni16      1.0  0.25600  0.75000  0.74400  1.0000
  Ni  Ni17      1.0  0.98700  0.99400  0.74400  1.0000
  Ni  Ni18      1.0  0.49400  0.00628  0.75000  1.0000
  Ni  Ni19      1.0  0.75600  0.74400  0.75000  1.0000
  Ni  Ni20      1.0  0.75000  0.24400  0.75600  1.0000
  Ni  Ni21      1.0  0.50600  0.51300  0.75600  1.0000
  Ni  Ni22      1.0  0.74400  0.49400  0.98700  1.0000
  Ni  Ni23      1.0  0.00628  0.25000  0.99400  1.0000
  Ni  Ni24      1.0  0.48700  0.74400  0.99400  1.0000
