data_image0
_chemical_formula_structural       In36K4Na12
_chemical_formula_sum              "In36 K4 Na12"
_cell_length_a       9.76772
_cell_length_b       9.76772
_cell_length_c       17.6673
_cell_angle_alpha    90
_cell_angle_beta     90
_cell_angle_gamma    117.987

_space_group_name_H-M_alt    "P 1"
_space_group_IT_number       1

loop_
  _space_group_symop_operation_xyz
  'x, y, z'

loop_
  _atom_site_type_symbol
  _atom_site_label
  _atom_site_symmetry_multiplicity
  _atom_site_fract_x
  _atom_site_fract_y
  _atom_site_fract_z
  _atom_site_occupancy
  In  In1       1.0  0.66300  0.33700  0.02260  1.0000
  In  In2       1.0  0.15900  0.32200  0.03720  1.0000
  In  In3       1.0  0.67800  0.84100  0.03720  1.0000
  In  In4       1.0  0.82600  0.17400  0.08620  1.0000
  In  In5       1.0  0.40500  0.29200  0.13100  1.0000
  In  In6       1.0  0.70800  0.59500  0.13100  1.0000
  In  In7       1.0  0.39600  0.60400  0.13900  1.0000
  In  In8       1.0  0.75800  0.24200  0.24500  1.0000
  In  In9       1.0  0.41400  0.08650  0.25000  1.0000
  In  In10      1.0  0.91400  0.58600  0.25000  1.0000
  In  In11      1.0  0.25800  0.74200  0.25500  1.0000
  In  In12      1.0  0.89600  0.10400  0.36100  1.0000
  In  In13      1.0  0.20800  0.09490  0.36900  1.0000
  In  In14      1.0  0.90500  0.79200  0.36900  1.0000
  In  In15      1.0  0.32600  0.67400  0.41400  1.0000
  In  In16      1.0  0.17800  0.34100  0.46300  1.0000
  In  In17      1.0  0.65900  0.82200  0.46300  1.0000
  In  In18      1.0  0.16300  0.83700  0.47700  1.0000
  In  In19      1.0  0.83700  0.16300  0.52300  1.0000
  In  In20      1.0  0.34100  0.17800  0.53700  1.0000
  In  In21      1.0  0.82200  0.65900  0.53700  1.0000
  In  In22      1.0  0.67400  0.32600  0.58600  1.0000
  In  In23      1.0  0.09490  0.20800  0.63100  1.0000
  In  In24      1.0  0.79200  0.90500  0.63100  1.0000
  In  In25      1.0  0.10400  0.89600  0.63900  1.0000
  In  In26      1.0  0.74200  0.25800  0.74500  1.0000
  In  In27      1.0  0.08650  0.41400  0.75000  1.0000
  In  In28      1.0  0.58600  0.91400  0.75000  1.0000
  In  In29      1.0  0.24200  0.75800  0.75500  1.0000
  In  In30      1.0  0.60400  0.39600  0.86100  1.0000
  In  In31      1.0  0.29200  0.40500  0.86900  1.0000
  In  In32      1.0  0.59500  0.70800  0.86900  1.0000
  In  In33      1.0  0.17400  0.82600  0.91400  1.0000
  In  In34      1.0  0.32200  0.15900  0.96300  1.0000
  In  In35      1.0  0.84100  0.67800  0.96300  1.0000
  In  In36      1.0  0.33700  0.66300  0.97700  1.0000
  K   K1        1.0  0.03460  0.96500  0.15900  1.0000
  K   K2        1.0  0.53500  0.46500  0.34100  1.0000
  K   K3        1.0  0.46500  0.53500  0.65900  1.0000
  K   K4        1.0  0.96500  0.03460  0.84100  1.0000
  Na  Na1       1.0  0.04020  0.57600  0.08950  1.0000
  Na  Na2       1.0  0.42400  0.96000  0.08950  1.0000
  Na  Na3       1.0  0.13400  0.36600  0.25000  1.0000
  Na  Na4       1.0  0.63400  0.86600  0.25000  1.0000
  Na  Na5       1.0  0.54000  0.07600  0.41100  1.0000
  Na  Na6       1.0  0.92400  0.46000  0.41100  1.0000
  Na  Na7       1.0  0.07600  0.54000  0.58900  1.0000
  Na  Na8       1.0  0.46000  0.92400  0.58900  1.0000
  Na  Na9       1.0  0.36600  0.13400  0.75000  1.0000
  Na  Na10      1.0  0.86600  0.63400  0.75000  1.0000
  Na  Na11      1.0  0.57600  0.04020  0.91100  1.0000
  Na  Na12      1.0  0.96000  0.42400  0.91100  1.0000
