data_image0
_chemical_formula_structural       C8Co2H8N4O20V8
_chemical_formula_sum              "C8 Co2 H8 N4 O20 V8"
_cell_length_a       6.97569
_cell_length_b       7.84464
_cell_length_c       11.5284
_cell_angle_alpha    90
_cell_angle_beta     90
_cell_angle_gamma    116.399

_space_group_name_H-M_alt    "P 1"
_space_group_IT_number       1

loop_
  _space_group_symop_operation_xyz
  'x, y, z'

loop_
  _atom_site_type_symbol
  _atom_site_label
  _atom_site_symmetry_multiplicity
  _atom_site_fract_x
  _atom_site_fract_y
  _atom_site_fract_z
  _atom_site_occupancy
  C   C1        1.0  0.22400  0.00000  0.15000  1.0000
  C   C2        1.0  0.42300  0.00000  0.15100  1.0000
  C   C3        1.0  0.42300  0.00000  0.34900  1.0000
  C   C4        1.0  0.22400  0.00000  0.35000  1.0000
  C   C5        1.0  0.77600  0.00000  0.65000  1.0000
  C   C6        1.0  0.57700  0.00000  0.65100  1.0000
  C   C7        1.0  0.57700  0.00000  0.84900  1.0000
  C   C8        1.0  0.77600  0.00000  0.85000  1.0000
  Co  Co1       1.0  0.82300  0.00000  0.25000  1.0000
  Co  Co2       1.0  0.17700  0.00000  0.75000  1.0000
  H   H1        1.0  0.14300  0.00000  0.06920  1.0000
  H   H2        1.0  0.51000  0.00000  0.07280  1.0000
  H   H3        1.0  0.51000  0.00000  0.42700  1.0000
  H   H4        1.0  0.14300  0.00000  0.43100  1.0000
  H   H5        1.0  0.85700  0.00000  0.56900  1.0000
  H   H6        1.0  0.49000  0.00000  0.57300  1.0000
  H   H7        1.0  0.49000  0.00000  0.92700  1.0000
  H   H8        1.0  0.85700  0.00000  0.93100  1.0000
  N   N1        1.0  0.12600  0.00000  0.25000  1.0000
  N   N2        1.0  0.52100  0.00000  0.25000  1.0000
  N   N3        1.0  0.47900  0.00000  0.75000  1.0000
  N   N4        1.0  0.87400  0.00000  0.75000  1.0000
  O   O1        1.0  0.35400  0.44600  0.06950  1.0000
  O   O2        1.0  0.90900  0.55400  0.06950  1.0000
  O   O3        1.0  0.91400  0.19400  0.12100  1.0000
  O   O4        1.0  0.72000  0.80600  0.12100  1.0000
  O   O5        1.0  0.62600  0.48400  0.25000  1.0000
  O   O6        1.0  0.14300  0.51600  0.25000  1.0000
  O   O7        1.0  0.91400  0.19400  0.37900  1.0000
  O   O8        1.0  0.72000  0.80600  0.37900  1.0000
  O   O9        1.0  0.35400  0.44600  0.43000  1.0000
  O   O10       1.0  0.90900  0.55400  0.43000  1.0000
  O   O11       1.0  0.09120  0.44600  0.57000  1.0000
  O   O12       1.0  0.64600  0.55400  0.57000  1.0000
  O   O13       1.0  0.28000  0.19400  0.62100  1.0000
  O   O14       1.0  0.08630  0.80600  0.62100  1.0000
  O   O15       1.0  0.85700  0.48400  0.75000  1.0000
  O   O16       1.0  0.37400  0.51600  0.75000  1.0000
  O   O17       1.0  0.28000  0.19400  0.87900  1.0000
  O   O18       1.0  0.08630  0.80600  0.87900  1.0000
  O   O19       1.0  0.09120  0.44600  0.93000  1.0000
  O   O20       1.0  0.64600  0.55400  0.93000  1.0000
  V   V1        1.0  0.07720  0.42400  0.10400  1.0000
  V   V2        1.0  0.65300  0.57600  0.10400  1.0000
  V   V3        1.0  0.07720  0.42400  0.39600  1.0000
  V   V4        1.0  0.65300  0.57600  0.39600  1.0000
  V   V5        1.0  0.34700  0.42400  0.60400  1.0000
  V   V6        1.0  0.92300  0.57600  0.60400  1.0000
  V   V7        1.0  0.34700  0.42400  0.89600  1.0000
  V   V8        1.0  0.92300  0.57600  0.89600  1.0000
