data_image0
_chemical_formula_structural       Ag30Rb6S18
_chemical_formula_sum              "Ag30 Rb6 S18"
_cell_length_a       13.6499
_cell_length_b       13.65
_cell_length_c       8.15025
_cell_angle_alpha    90
_cell_angle_beta     90
_cell_angle_gamma    120

_space_group_name_H-M_alt    "P 1"
_space_group_IT_number       1

loop_
  _space_group_symop_operation_xyz
  'x, y, z'

loop_
  _atom_site_type_symbol
  _atom_site_label
  _atom_site_symmetry_multiplicity
  _atom_site_fract_x
  _atom_site_fract_y
  _atom_site_fract_z
  _atom_site_occupancy
  Ag  Ag1       1.0  0.33100  0.03320  0.00000  1.0000
  Ag  Ag2       1.0  0.96700  0.29800  0.00000  1.0000
  Ag  Ag3       1.0  0.32800  0.36900  0.00000  1.0000
  Ag  Ag4       1.0  0.70200  0.66900  0.00000  1.0000
  Ag  Ag5       1.0  0.04140  0.67200  0.00000  1.0000
  Ag  Ag6       1.0  0.63100  0.95900  0.00000  1.0000
  Ag  Ag7       1.0  0.51800  0.51800  0.24900  1.0000
  Ag  Ag8       1.0  0.00063  0.48200  0.25000  1.0000
  Ag  Ag9       1.0  0.48200  0.99900  0.25000  1.0000
  Ag  Ag10      1.0  0.79700  0.13000  0.25000  1.0000
  Ag  Ag11      1.0  0.33300  0.20300  0.25000  1.0000
  Ag  Ag12      1.0  0.87000  0.66700  0.25000  1.0000
  Ag  Ag13      1.0  0.14900  0.33400  0.25100  1.0000
  Ag  Ag14      1.0  0.18500  0.85100  0.25100  1.0000
  Ag  Ag15      1.0  0.66600  0.81500  0.25100  1.0000
  Ag  Ag16      1.0  0.33500  0.03500  0.50000  1.0000
  Ag  Ag17      1.0  0.96500  0.30000  0.50000  1.0000
  Ag  Ag18      1.0  0.33900  0.37500  0.50000  1.0000
  Ag  Ag19      1.0  0.03600  0.66100  0.50000  1.0000
  Ag  Ag20      1.0  0.70000  0.66500  0.50000  1.0000
  Ag  Ag21      1.0  0.62500  0.96400  0.50000  1.0000
  Ag  Ag22      1.0  0.66600  0.81500  0.74900  1.0000
  Ag  Ag23      1.0  0.18500  0.85100  0.74900  1.0000
  Ag  Ag24      1.0  0.14900  0.33400  0.74900  1.0000
  Ag  Ag25      1.0  0.87000  0.66700  0.75000  1.0000
  Ag  Ag26      1.0  0.79700  0.13000  0.75000  1.0000
  Ag  Ag27      1.0  0.33300  0.20300  0.75000  1.0000
  Ag  Ag28      1.0  0.48200  0.99900  0.75000  1.0000
  Ag  Ag29      1.0  0.00063  0.48200  0.75100  1.0000
  Ag  Ag30      1.0  0.51800  0.51800  0.75100  1.0000
  Rb  Rb1       1.0  0.66700  0.33300  0.24900  1.0000
  Rb  Rb2       1.0  0.33300  0.66700  0.25000  1.0000
  Rb  Rb3       1.0  0.00000  0.00000  0.25100  1.0000
  Rb  Rb4       1.0  0.00000  0.00000  0.74900  1.0000
  Rb  Rb5       1.0  0.33300  0.66700  0.75000  1.0000
  Rb  Rb6       1.0  0.66700  0.33300  0.75100  1.0000
  S   S1        1.0  0.75300  0.19500  0.00000  1.0000
  S   S2        1.0  0.11400  0.22700  0.00000  1.0000
  S   S3        1.0  0.44200  0.24700  0.00000  1.0000
  S   S4        1.0  0.10900  0.53000  0.00000  1.0000
  S   S5        1.0  0.80500  0.55800  0.00000  1.0000
  S   S6        1.0  0.47000  0.58000  0.00000  1.0000
  S   S7        1.0  0.11300  0.88600  0.00000  1.0000
  S   S8        1.0  0.77300  0.88700  0.00000  1.0000
  S   S9        1.0  0.42000  0.89100  0.00000  1.0000
  S   S10       1.0  0.86200  0.08690  0.50000  1.0000
  S   S11       1.0  0.55400  0.10600  0.50000  1.0000
  S   S12       1.0  0.22500  0.13800  0.50000  1.0000
  S   S13       1.0  0.19700  0.44300  0.50000  1.0000
  S   S14       1.0  0.55300  0.44600  0.50000  1.0000
  S   S15       1.0  0.89400  0.44700  0.50000  1.0000
  S   S16       1.0  0.55700  0.75400  0.50000  1.0000
  S   S17       1.0  0.91300  0.77500  0.50000  1.0000
  S   S18       1.0  0.24600  0.80300  0.50000  1.0000
