data_image0
_chemical_formula_structural       B8Ca4O32Si8
_chemical_formula_sum              "B8 Ca4 O32 Si8"
_cell_length_a       7.98486
_cell_length_b       8.73612
_cell_length_c       7.70971
_cell_angle_alpha    90
_cell_angle_beta     90
_cell_angle_gamma    90

_space_group_name_H-M_alt    "P 1"
_space_group_IT_number       1

loop_
  _space_group_symop_operation_xyz
  'x, y, z'

loop_
  _atom_site_type_symbol
  _atom_site_label
  _atom_site_symmetry_multiplicity
  _atom_site_fract_x
  _atom_site_fract_y
  _atom_site_fract_z
  _atom_site_occupancy
  B   B1        1.0  0.75500  0.07950  0.07950  1.0000
  B   B2        1.0  0.25500  0.42100  0.07950  1.0000
  B   B3        1.0  0.75500  0.07950  0.42100  1.0000
  B   B4        1.0  0.25500  0.42100  0.42100  1.0000
  B   B5        1.0  0.74500  0.57900  0.57900  1.0000
  B   B6        1.0  0.24500  0.92100  0.57900  1.0000
  B   B7        1.0  0.74500  0.57900  0.92100  1.0000
  B   B8        1.0  0.24500  0.92100  0.92100  1.0000
  Ca  Ca1       1.0  0.38100  0.07660  0.25000  1.0000
  Ca  Ca2       1.0  0.88100  0.42300  0.25000  1.0000
  Ca  Ca3       1.0  0.11900  0.57700  0.75000  1.0000
  Ca  Ca4       1.0  0.61900  0.92300  0.75000  1.0000
  O   O1        1.0  0.30600  0.56900  0.00199  1.0000
  O   O2        1.0  0.80600  0.93100  0.00199  1.0000
  O   O3        1.0  0.87700  0.63300  0.04470  1.0000
  O   O4        1.0  0.37700  0.86700  0.04470  1.0000
  O   O5        1.0  0.89600  0.18700  0.08150  1.0000
  O   O6        1.0  0.39600  0.31300  0.08150  1.0000
  O   O7        1.0  0.67800  0.06810  0.25000  1.0000
  O   O8        1.0  0.17800  0.43200  0.25000  1.0000
  O   O9        1.0  0.52000  0.66000  0.25000  1.0000
  O   O10       1.0  0.02050  0.84000  0.25000  1.0000
  O   O11       1.0  0.89600  0.18700  0.41900  1.0000
  O   O12       1.0  0.39600  0.31300  0.41900  1.0000
  O   O13       1.0  0.87700  0.63300  0.45500  1.0000
  O   O14       1.0  0.37700  0.86700  0.45500  1.0000
  O   O15       1.0  0.30600  0.56900  0.49800  1.0000
  O   O16       1.0  0.80600  0.93100  0.49800  1.0000
  O   O17       1.0  0.19400  0.06880  0.50200  1.0000
  O   O18       1.0  0.69400  0.43100  0.50200  1.0000
  O   O19       1.0  0.62300  0.13300  0.54500  1.0000
  O   O20       1.0  0.12300  0.36700  0.54500  1.0000
  O   O21       1.0  0.60400  0.68700  0.58100  1.0000
  O   O22       1.0  0.10400  0.81300  0.58100  1.0000
  O   O23       1.0  0.98000  0.16000  0.75000  1.0000
  O   O24       1.0  0.48000  0.34000  0.75000  1.0000
  O   O25       1.0  0.82200  0.56800  0.75000  1.0000
  O   O26       1.0  0.32200  0.93200  0.75000  1.0000
  O   O27       1.0  0.60400  0.68700  0.91900  1.0000
  O   O28       1.0  0.10400  0.81300  0.91900  1.0000
  O   O29       1.0  0.62300  0.13300  0.95500  1.0000
  O   O30       1.0  0.12300  0.36700  0.95500  1.0000
  O   O31       1.0  0.19400  0.06880  0.99800  1.0000
  O   O32       1.0  0.69400  0.43100  0.99800  1.0000
  Si  Si1       1.0  0.45000  0.69200  0.05550  1.0000
  Si  Si2       1.0  0.95000  0.80800  0.05550  1.0000
  Si  Si3       1.0  0.45000  0.69200  0.44400  1.0000
  Si  Si4       1.0  0.95000  0.80800  0.44400  1.0000
  Si  Si5       1.0  0.05010  0.19200  0.55500  1.0000
  Si  Si6       1.0  0.55000  0.30800  0.55500  1.0000
  Si  Si7       1.0  0.05010  0.19200  0.94400  1.0000
  Si  Si8       1.0  0.55000  0.30800  0.94400  1.0000
