data_image0
_chemical_formula_structural       H4PdTi2
_chemical_formula_sum              "H4 Pd1 Ti2"
_cell_length_a       2.91282
_cell_length_b       2.91282
_cell_length_c       6.91919
_cell_angle_alpha    102.151
_cell_angle_beta     102.151
_cell_angle_gamma    90

_space_group_name_H-M_alt    "P 1"
_space_group_IT_number       1

loop_
  _space_group_symop_operation_xyz
  'x, y, z'

loop_
  _atom_site_type_symbol
  _atom_site_label
  _atom_site_symmetry_multiplicity
  _atom_site_fract_x
  _atom_site_fract_y
  _atom_site_fract_z
  _atom_site_occupancy
  H   H1        1.0  0.13200  0.13200  0.26400  1.0000
  H   H2        1.0  0.75000  0.25000  0.50000  1.0000
  H   H3        1.0  0.25000  0.75000  0.50000  1.0000
  H   H4        1.0  0.86800  0.86800  0.73600  1.0000
  Pd  Pd1       1.0  0.00000  0.00000  0.00000  1.0000
  Ti  Ti1       1.0  0.65400  0.65400  0.30700  1.0000
  Ti  Ti2       1.0  0.34600  0.34600  0.69300  1.0000
