data_image0
_chemical_formula_structural       B6Th
_chemical_formula_sum              "B6 Th1"
_cell_length_a       4.1029
_cell_length_b       4.1029
_cell_length_c       4.1029
_cell_angle_alpha    90
_cell_angle_beta     90
_cell_angle_gamma    90

_space_group_name_H-M_alt    "P 1"
_space_group_IT_number       1

loop_
  _space_group_symop_operation_xyz
  'x, y, z'

loop_
  _atom_site_type_symbol
  _atom_site_label
  _atom_site_symmetry_multiplicity
  _atom_site_fract_x
  _atom_site_fract_y
  _atom_site_fract_z
  _atom_site_occupancy
  B   B1        1.0  0.30300  0.00000  0.00000  1.0000
  B   B2        1.0  0.69700  0.00000  0.00000  1.0000
  B   B3        1.0  0.00000  0.30300  0.00000  1.0000
  B   B4        1.0  0.00000  0.69700  0.00000  1.0000
  B   B5        1.0  0.00000  0.00000  0.30300  1.0000
  B   B6        1.0  0.00000  0.00000  0.69700  1.0000
  Th  Th1       1.0  0.50000  0.50000  0.50000  1.0000
