data_image0
_chemical_formula_structural       Cd3N42Tl8
_chemical_formula_sum              "Cd3 N42 Tl8"
_cell_length_a       8.4991
_cell_length_b       10.4032
_cell_length_c       11.4252
_cell_angle_alpha    100.66
_cell_angle_beta     107.303
_cell_angle_gamma    113.676

_space_group_name_H-M_alt    "P 1"
_space_group_IT_number       1

loop_
  _space_group_symop_operation_xyz
  'x, y, z'

loop_
  _atom_site_type_symbol
  _atom_site_label
  _atom_site_symmetry_multiplicity
  _atom_site_fract_x
  _atom_site_fract_y
  _atom_site_fract_z
  _atom_site_occupancy
  Cd  Cd1       1.0  0.20100  0.64000  0.13600  1.0000
  Cd  Cd2       1.0  0.50000  0.00000  0.50000  1.0000
  Cd  Cd3       1.0  0.79900  0.36000  0.86400  1.0000
  N   N1        1.0  0.89900  0.60100  0.00056  1.0000
  N   N2        1.0  0.32100  0.76700  0.00921  1.0000
  N   N3        1.0  0.79100  0.64400  0.01580  1.0000
  N   N4        1.0  0.68900  0.68900  0.02850  1.0000
  N   N5        1.0  0.47300  0.87400  0.07660  1.0000
  N   N6        1.0  0.62300  0.97800  0.14000  1.0000
  N   N7        1.0  0.14900  0.98800  0.14600  1.0000
  N   N8        1.0  0.20800  0.93000  0.21300  1.0000
  N   N9        1.0  0.48600  0.65300  0.25200  1.0000
  N   N10       1.0  0.05550  0.51400  0.25500  1.0000
  N   N11       1.0  0.92700  0.53200  0.26200  1.0000
  N   N12       1.0  0.80100  0.54700  0.27000  1.0000
  N   N13       1.0  0.26700  0.86700  0.27800  1.0000
  N   N14       1.0  0.44500  0.54200  0.27900  1.0000
  N   N15       1.0  0.40400  0.43300  0.30600  1.0000
  N   N16       1.0  0.84700  0.27900  0.38100  1.0000
  N   N17       1.0  0.80500  0.17300  0.41400  1.0000
  N   N18       1.0  0.18400  0.19100  0.44400  1.0000
  N   N19       1.0  0.76200  0.06550  0.44600  1.0000
  N   N20       1.0  0.32800  0.19700  0.45000  1.0000
  N   N21       1.0  0.47300  0.20400  0.45500  1.0000
  N   N22       1.0  0.52700  0.79600  0.54500  1.0000
  N   N23       1.0  0.67200  0.80300  0.55000  1.0000
  N   N24       1.0  0.23800  0.93400  0.55400  1.0000
  N   N25       1.0  0.81600  0.80900  0.55600  1.0000
  N   N26       1.0  0.19500  0.82700  0.58600  1.0000
  N   N27       1.0  0.15300  0.72100  0.61900  1.0000
  N   N28       1.0  0.59600  0.56700  0.69400  1.0000
  N   N29       1.0  0.55500  0.45800  0.72100  1.0000
  N   N30       1.0  0.73300  0.13300  0.72200  1.0000
  N   N31       1.0  0.19900  0.45300  0.73000  1.0000
  N   N32       1.0  0.07260  0.46800  0.73800  1.0000
  N   N33       1.0  0.94500  0.48600  0.74500  1.0000
  N   N34       1.0  0.51400  0.34700  0.74800  1.0000
  N   N35       1.0  0.79200  0.07010  0.78700  1.0000
  N   N36       1.0  0.85100  0.01180  0.85400  1.0000
  N   N37       1.0  0.37700  0.02150  0.86000  1.0000
  N   N38       1.0  0.52700  0.12600  0.92300  1.0000
  N   N39       1.0  0.31100  0.31100  0.97200  1.0000
  N   N40       1.0  0.20900  0.35600  0.98400  1.0000
  N   N41       1.0  0.67900  0.23300  0.99100  1.0000
  N   N42       1.0  0.10100  0.39900  0.99900  1.0000
  Tl  Tl1       1.0  0.97100  0.19800  0.15300  1.0000
  Tl  Tl2       1.0  0.50200  0.23800  0.18100  1.0000
  Tl  Tl3       1.0  0.85200  0.85700  0.31500  1.0000
  Tl  Tl4       1.0  0.24000  0.49600  0.49100  1.0000
  Tl  Tl5       1.0  0.76000  0.50400  0.50900  1.0000
  Tl  Tl6       1.0  0.14800  0.14300  0.68500  1.0000
  Tl  Tl7       1.0  0.49800  0.76200  0.81900  1.0000
  Tl  Tl8       1.0  0.02940  0.80200  0.84700  1.0000
