data_image0
_chemical_formula_structural       H8K8O28P8
_chemical_formula_sum              "H8 K8 O28 P8"
_cell_length_a       8.01425
_cell_length_b       8.08939
_cell_length_c       11.0413
_cell_angle_alpha    97.3494
_cell_angle_beta     95.6129
_cell_angle_gamma    88.9259

_space_group_name_H-M_alt    "P 1"
_space_group_IT_number       1

loop_
  _space_group_symop_operation_xyz
  'x, y, z'

loop_
  _atom_site_type_symbol
  _atom_site_label
  _atom_site_symmetry_multiplicity
  _atom_site_fract_x
  _atom_site_fract_y
  _atom_site_fract_z
  _atom_site_occupancy
  H   H1        1.0  0.90200  0.56100  0.14000  1.0000
  H   H2        1.0  0.72900  0.51800  0.17800  1.0000
  H   H3        1.0  0.97700  0.69800  0.32100  1.0000
  H   H4        1.0  0.92500  0.88300  0.33700  1.0000
  H   H5        1.0  0.07540  0.11700  0.66300  1.0000
  H   H6        1.0  0.02350  0.30200  0.67900  1.0000
  H   H7        1.0  0.27100  0.48200  0.82200  1.0000
  H   H8        1.0  0.09830  0.43900  0.86000  1.0000
  K   K1        1.0  0.25200  0.70000  0.05480  1.0000
  K   K2        1.0  0.71400  0.87800  0.07150  1.0000
  K   K3        1.0  0.61300  0.70300  0.43200  1.0000
  K   K4        1.0  0.82300  0.22300  0.45000  1.0000
  K   K5        1.0  0.17700  0.77700  0.55000  1.0000
  K   K6        1.0  0.38700  0.29700  0.56800  1.0000
  K   K7        1.0  0.28600  0.12200  0.92800  1.0000
  K   K8        1.0  0.74800  0.30000  0.94500  1.0000
  O   O1        1.0  0.01620  0.19100  0.07360  1.0000
  O   O2        1.0  0.55100  0.18800  0.09640  1.0000
  O   O3        1.0  0.78100  0.56700  0.11200  1.0000
  O   O4        1.0  0.34400  0.38800  0.18900  1.0000
  O   O5        1.0  0.22700  0.02650  0.19200  1.0000
  O   O6        1.0  0.09730  0.57500  0.22300  1.0000
  O   O7        1.0  0.48100  0.85700  0.23800  1.0000
  O   O8        1.0  0.92500  0.04280  0.25100  1.0000
  O   O9        1.0  0.65000  0.40900  0.28100  1.0000
  O   O10       1.0  0.11000  0.29100  0.30300  1.0000
  O   O11       1.0  0.47900  0.17100  0.31700  1.0000
  O   O12       1.0  0.91900  0.78000  0.37700  1.0000
  O   O13       1.0  0.30000  0.51900  0.41000  1.0000
  O   O14       1.0  0.31200  0.98200  0.41900  1.0000
  O   O15       1.0  0.68800  0.01820  0.58100  1.0000
  O   O16       1.0  0.70000  0.48100  0.59000  1.0000
  O   O17       1.0  0.08070  0.22000  0.62300  1.0000
  O   O18       1.0  0.52100  0.82900  0.68300  1.0000
  O   O19       1.0  0.89000  0.70900  0.69700  1.0000
  O   O20       1.0  0.35000  0.59100  0.71900  1.0000
  O   O21       1.0  0.07500  0.95700  0.74900  1.0000
  O   O22       1.0  0.51900  0.14300  0.76200  1.0000
  O   O23       1.0  0.90300  0.42500  0.77700  1.0000
  O   O24       1.0  0.77300  0.97300  0.80800  1.0000
  O   O25       1.0  0.65600  0.61200  0.81100  1.0000
  O   O26       1.0  0.21900  0.43300  0.88800  1.0000
  O   O27       1.0  0.44900  0.81200  0.90400  1.0000
  O   O28       1.0  0.98400  0.80900  0.92600  1.0000
  P   P1        1.0  0.05320  0.13600  0.19700  1.0000
  P   P2        1.0  0.52100  0.28900  0.21500  1.0000
  P   P3        1.0  0.21200  0.45800  0.28700  1.0000
  P   P4        1.0  0.37600  0.99300  0.29800  1.0000
  P   P5        1.0  0.62400  0.00704  0.70200  1.0000
  P   P6        1.0  0.78800  0.54200  0.71300  1.0000
  P   P7        1.0  0.47900  0.71100  0.78500  1.0000
  P   P8        1.0  0.94700  0.86400  0.80300  1.0000
