data_image0
_chemical_formula_structural       Gd2Mo8Na10O32
_chemical_formula_sum              "Gd2 Mo8 Na10 O32"
_cell_length_a       9.83727
_cell_length_b       9.83727
_cell_length_c       9.83727
_cell_angle_alpha    109.343
_cell_angle_beta     109.536
_cell_angle_gamma    109.536

_space_group_name_H-M_alt    "P 1"
_space_group_IT_number       1

loop_
  _space_group_symop_operation_xyz
  'x, y, z'

loop_
  _atom_site_type_symbol
  _atom_site_label
  _atom_site_symmetry_multiplicity
  _atom_site_fract_x
  _atom_site_fract_y
  _atom_site_fract_z
  _atom_site_occupancy
  Gd  Gd1       1.0  0.75000  0.37500  0.12500  1.0000
  Gd  Gd2       1.0  0.25000  0.62500  0.87500  1.0000
  Mo  Mo1       1.0  0.97600  0.70900  0.04570  1.0000
  Mo  Mo2       1.0  0.66400  0.73300  0.20900  1.0000
  Mo  Mo3       1.0  0.52400  0.06940  0.23300  1.0000
  Mo  Mo4       1.0  0.16400  0.45400  0.43100  1.0000
  Mo  Mo5       1.0  0.83600  0.54600  0.56900  1.0000
  Mo  Mo6       1.0  0.47600  0.93100  0.76700  1.0000
  Mo  Mo7       1.0  0.33600  0.26700  0.79100  1.0000
  Mo  Mo8       1.0  0.02370  0.29100  0.95400  1.0000
  Na  Na1       1.0  0.83400  0.03570  0.11100  1.0000
  Na  Na2       1.0  0.42400  0.38900  0.22300  1.0000
  Na  Na3       1.0  0.33400  0.72300  0.29800  1.0000
  Na  Na4       1.0  0.25000  0.12500  0.37500  1.0000
  Na  Na5       1.0  0.07560  0.79800  0.46400  1.0000
  Na  Na6       1.0  0.92400  0.20200  0.53600  1.0000
  Na  Na7       1.0  0.75000  0.87500  0.62500  1.0000
  Na  Na8       1.0  0.66600  0.27700  0.70200  1.0000
  Na  Na9       1.0  0.57600  0.61100  0.77700  1.0000
  Na  Na10      1.0  0.16600  0.96400  0.88900  1.0000
  O   O1        1.0  0.48500  0.35400  0.00828  1.0000
  O   O2        1.0  0.85600  0.80600  0.01540  1.0000
  O   O3        1.0  0.15400  0.50800  0.02290  1.0000
  O   O4        1.0  0.92400  0.26900  0.07520  1.0000
  O   O5        1.0  0.65400  0.13100  0.14600  1.0000
  O   O6        1.0  0.42400  0.84800  0.15500  1.0000
  O   O7        1.0  0.36300  0.12200  0.19500  1.0000
  O   O8        1.0  0.80600  0.65500  0.23100  1.0000
  O   O9        1.0  0.13700  0.83200  0.25900  1.0000
  O   O10       1.0  0.79100  0.95000  0.30600  1.0000
  O   O11       1.0  0.57300  0.69500  0.33200  1.0000
  O   O12       1.0  0.29100  0.48500  0.34000  1.0000
  O   O13       1.0  0.69400  0.42500  0.34800  1.0000
  O   O14       1.0  0.01470  0.52300  0.36900  1.0000
  O   O15       1.0  0.07280  0.24100  0.37800  1.0000
  O   O16       1.0  0.64400  0.16000  0.45000  1.0000
  O   O17       1.0  0.35600  0.84000  0.55000  1.0000
  O   O18       1.0  0.92700  0.75900  0.62200  1.0000
  O   O19       1.0  0.98500  0.47700  0.63100  1.0000
  O   O20       1.0  0.30600  0.57500  0.65200  1.0000
  O   O21       1.0  0.70900  0.51500  0.66000  1.0000
  O   O22       1.0  0.42700  0.30500  0.66800  1.0000
  O   O23       1.0  0.20900  0.04960  0.69400  1.0000
  O   O24       1.0  0.86300  0.16800  0.74100  1.0000
  O   O25       1.0  0.19400  0.34500  0.76900  1.0000
  O   O26       1.0  0.63700  0.87800  0.80500  1.0000
  O   O27       1.0  0.57600  0.15200  0.84500  1.0000
  O   O28       1.0  0.34600  0.86900  0.85400  1.0000
  O   O29       1.0  0.07640  0.73100  0.92500  1.0000
  O   O30       1.0  0.84600  0.49200  0.97700  1.0000
  O   O31       1.0  0.14400  0.19400  0.98500  1.0000
  O   O32       1.0  0.51500  0.64600  0.99200  1.0000
