data_image0
_chemical_formula_structural       I2K8P42
_chemical_formula_sum              "I2 K8 P42"
_cell_length_a       9.81833
_cell_length_b       12.7738
_cell_length_c       12.7738
_cell_angle_alpha    118.296
_cell_angle_beta     90
_cell_angle_gamma    90

_space_group_name_H-M_alt    "P 1"
_space_group_IT_number       1

loop_
  _space_group_symop_operation_xyz
  'x, y, z'

loop_
  _atom_site_type_symbol
  _atom_site_label
  _atom_site_symmetry_multiplicity
  _atom_site_fract_x
  _atom_site_fract_y
  _atom_site_fract_z
  _atom_site_occupancy
  I   I1        1.0  0.25000  0.40100  0.40100  1.0000
  I   I2        1.0  0.75000  0.59900  0.59900  1.0000
  K   K1        1.0  0.25000  0.24800  0.07150  1.0000
  K   K2        1.0  0.25000  0.07150  0.24800  1.0000
  K   K3        1.0  0.00000  0.62000  0.38000  1.0000
  K   K4        1.0  0.50000  0.62000  0.38000  1.0000
  K   K5        1.0  0.00000  0.38000  0.62000  1.0000
  K   K6        1.0  0.50000  0.38000  0.62000  1.0000
  K   K7        1.0  0.75000  0.92800  0.75200  1.0000
  K   K8        1.0  0.75000  0.75200  0.92800  1.0000
  P   P1        1.0  0.57500  0.30900  0.00742  1.0000
  P   P2        1.0  0.92500  0.30900  0.00742  1.0000
  P   P3        1.0  0.75000  0.03740  0.03740  1.0000
  P   P4        1.0  0.25000  0.49300  0.05490  1.0000
  P   P5        1.0  0.58300  0.50300  0.06110  1.0000
  P   P6        1.0  0.91700  0.50300  0.06110  1.0000
  P   P7        1.0  0.25000  0.77100  0.12100  1.0000
  P   P8        1.0  0.58500  0.14500  0.14500  1.0000
  P   P9        1.0  0.91500  0.14500  0.14500  1.0000
  P   P10       1.0  0.63400  0.33100  0.18200  1.0000
  P   P11       1.0  0.86600  0.33100  0.18200  1.0000
  P   P12       1.0  0.25000  0.66500  0.21100  1.0000
  P   P13       1.0  0.75000  0.87900  0.22900  1.0000
  P   P14       1.0  0.57500  0.00742  0.30900  1.0000
  P   P15       1.0  0.92500  0.00742  0.30900  1.0000
  P   P16       1.0  0.63400  0.18200  0.33100  1.0000
  P   P17       1.0  0.86600  0.18200  0.33100  1.0000
  P   P18       1.0  0.75000  0.78900  0.33500  1.0000
  P   P19       1.0  0.25000  0.05490  0.49300  1.0000
  P   P20       1.0  0.08350  0.93900  0.49700  1.0000
  P   P21       1.0  0.41700  0.93900  0.49700  1.0000
  P   P22       1.0  0.58300  0.06110  0.50300  1.0000
  P   P23       1.0  0.91700  0.06110  0.50300  1.0000
  P   P24       1.0  0.75000  0.94500  0.50700  1.0000
  P   P25       1.0  0.25000  0.21100  0.66500  1.0000
  P   P26       1.0  0.13400  0.81800  0.66900  1.0000
  P   P27       1.0  0.36600  0.81800  0.66900  1.0000
  P   P28       1.0  0.07470  0.99300  0.69100  1.0000
  P   P29       1.0  0.42500  0.99300  0.69100  1.0000
  P   P30       1.0  0.25000  0.12100  0.77100  1.0000
  P   P31       1.0  0.75000  0.33500  0.78900  1.0000
  P   P32       1.0  0.13400  0.66900  0.81800  1.0000
  P   P33       1.0  0.36600  0.66900  0.81800  1.0000
  P   P34       1.0  0.08530  0.85500  0.85500  1.0000
  P   P35       1.0  0.41500  0.85500  0.85500  1.0000
  P   P36       1.0  0.75000  0.22900  0.87900  1.0000
  P   P37       1.0  0.08350  0.49700  0.93900  1.0000
  P   P38       1.0  0.41700  0.49700  0.93900  1.0000
  P   P39       1.0  0.75000  0.50700  0.94500  1.0000
  P   P40       1.0  0.25000  0.96300  0.96300  1.0000
  P   P41       1.0  0.07470  0.69100  0.99300  1.0000
  P   P42       1.0  0.42500  0.69100  0.99300  1.0000
