data_image0
_chemical_formula_structural       O24P16S12
_chemical_formula_sum              "O24 P16 S12"
_cell_length_a       15.2448
_cell_length_b       8.12968
_cell_length_c       9.41991
_cell_angle_alpha    90
_cell_angle_beta     127.272
_cell_angle_gamma    90

_space_group_name_H-M_alt    "P 1"
_space_group_IT_number       1

loop_
  _space_group_symop_operation_xyz
  'x, y, z'

loop_
  _atom_site_type_symbol
  _atom_site_label
  _atom_site_symmetry_multiplicity
  _atom_site_fract_x
  _atom_site_fract_y
  _atom_site_fract_z
  _atom_site_occupancy
  O   O1        1.0  0.63400  0.61100  0.02610  1.0000
  O   O2        1.0  0.75700  0.39600  0.03760  1.0000
  O   O3        1.0  0.11100  0.91600  0.12800  1.0000
  O   O4        1.0  0.23600  0.13400  0.13700  1.0000
  O   O5        1.0  0.83600  0.67200  0.18600  1.0000
  O   O6        1.0  0.68500  0.35600  0.21400  1.0000
  O   O7        1.0  0.31500  0.85600  0.28600  1.0000
  O   O8        1.0  0.16400  0.17200  0.31400  1.0000
  O   O9        1.0  0.76400  0.63400  0.36300  1.0000
  O   O10       1.0  0.88900  0.41600  0.37200  1.0000
  O   O11       1.0  0.24300  0.89600  0.46200  1.0000
  O   O12       1.0  0.36600  0.11100  0.47400  1.0000
  O   O13       1.0  0.63400  0.88900  0.52600  1.0000
  O   O14       1.0  0.75700  0.10400  0.53800  1.0000
  O   O15       1.0  0.11100  0.58400  0.62800  1.0000
  O   O16       1.0  0.23600  0.36600  0.63700  1.0000
  O   O17       1.0  0.83600  0.82800  0.68600  1.0000
  O   O18       1.0  0.68500  0.14400  0.71400  1.0000
  O   O19       1.0  0.31500  0.64400  0.78600  1.0000
  O   O20       1.0  0.16400  0.32800  0.81400  1.0000
  O   O21       1.0  0.76400  0.86600  0.86300  1.0000
  O   O22       1.0  0.88900  0.08420  0.87200  1.0000
  O   O23       1.0  0.24300  0.60400  0.96200  1.0000
  O   O24       1.0  0.36600  0.38900  0.97400  1.0000
  P   P1        1.0  0.64300  0.41200  0.01830  1.0000
  P   P2        1.0  0.20600  0.93300  0.09040  1.0000
  P   P3        1.0  0.73300  0.72600  0.18600  1.0000
  P   P4        1.0  0.87300  0.48200  0.19700  1.0000
  P   P5        1.0  0.12700  0.98200  0.30300  1.0000
  P   P6        1.0  0.26700  0.22600  0.31400  1.0000
  P   P7        1.0  0.79400  0.43300  0.41000  1.0000
  P   P8        1.0  0.35700  0.91200  0.48200  1.0000
  P   P9        1.0  0.64300  0.08840  0.51800  1.0000
  P   P10       1.0  0.20600  0.56700  0.59000  1.0000
  P   P11       1.0  0.73300  0.77400  0.68600  1.0000
  P   P12       1.0  0.87300  0.01790  0.69700  1.0000
  P   P13       1.0  0.12700  0.51800  0.80300  1.0000
  P   P14       1.0  0.26700  0.27400  0.81400  1.0000
  P   P15       1.0  0.79400  0.06670  0.91000  1.0000
  P   P16       1.0  0.35700  0.58800  0.98200  1.0000
  S   S1        1.0  0.70100  0.95200  0.16400  1.0000
  S   S2        1.0  0.47900  0.69500  0.18000  1.0000
  S   S3        1.0  0.99000  0.45200  0.18200  1.0000
  S   S4        1.0  0.01020  0.95200  0.31800  1.0000
  S   S5        1.0  0.52100  0.19500  0.32000  1.0000
  S   S6        1.0  0.29900  0.45200  0.33600  1.0000
  S   S7        1.0  0.70100  0.54800  0.66400  1.0000
  S   S8        1.0  0.47900  0.80500  0.68000  1.0000
  S   S9        1.0  0.99000  0.04780  0.68200  1.0000
  S   S10       1.0  0.01020  0.54800  0.81800  1.0000
  S   S11       1.0  0.52100  0.30500  0.82000  1.0000
  S   S12       1.0  0.29900  0.04790  0.83600  1.0000
