data_image0
_chemical_formula_structural       I8Nb8Te34
_chemical_formula_sum              "I8 Nb8 Te34"
_cell_length_a       8.54435
_cell_length_b       9.32709
_cell_length_c       26.5836
_cell_angle_alpha    91.2677
_cell_angle_beta     99.2479
_cell_angle_gamma    62.7393

_space_group_name_H-M_alt    "P 1"
_space_group_IT_number       1

loop_
  _space_group_symop_operation_xyz
  'x, y, z'

loop_
  _atom_site_type_symbol
  _atom_site_label
  _atom_site_symmetry_multiplicity
  _atom_site_fract_x
  _atom_site_fract_y
  _atom_site_fract_z
  _atom_site_occupancy
  I   I1        1.0  0.08090  0.65500  0.05560  1.0000
  I   I2        1.0  0.60700  0.59100  0.20500  1.0000
  I   I3        1.0  0.99300  0.90900  0.29500  1.0000
  I   I4        1.0  0.68000  0.84500  0.44400  1.0000
  I   I5        1.0  0.32000  0.15500  0.55600  1.0000
  I   I6        1.0  0.00706  0.09100  0.70500  1.0000
  I   I7        1.0  0.39300  0.40900  0.79500  1.0000
  I   I8        1.0  0.91900  0.34500  0.94400  1.0000
  Nb  Nb1       1.0  0.46400  0.06170  0.05740  1.0000
  Nb  Nb2       1.0  0.44700  0.17400  0.17200  1.0000
  Nb  Nb3       1.0  0.44900  0.32600  0.32800  1.0000
  Nb  Nb4       1.0  0.46800  0.43800  0.44300  1.0000
  Nb  Nb5       1.0  0.53200  0.56200  0.55700  1.0000
  Nb  Nb6       1.0  0.55100  0.67400  0.67200  1.0000
  Nb  Nb7       1.0  0.55300  0.82600  0.82800  1.0000
  Nb  Nb8       1.0  0.53600  0.93800  0.94300  1.0000
  Te  Te1       1.0  0.74900  0.04560  0.00979  1.0000
  Te  Te2       1.0  0.60600  0.73200  0.03020  1.0000
  Te  Te3       1.0  0.13600  0.28600  0.09270  1.0000
  Te  Te4       1.0  0.50500  0.34400  0.09940  1.0000
  Te  Te5       1.0  0.30100  0.96800  0.13300  1.0000
  Te  Te6       1.0  0.74300  0.90300  0.14600  1.0000
  Te  Te7       1.0  0.79500  0.16800  0.17800  1.0000
  Te  Te8       1.0  0.33600  0.46900  0.22500  1.0000
  Te  Te9       1.0  0.20400  0.25000  0.25000  1.0000
  Te  Te10      1.0  0.58000  0.03060  0.27500  1.0000
  Te  Te11      1.0  0.78400  0.33200  0.32200  1.0000
  Te  Te12      1.0  0.50000  0.59700  0.35400  1.0000
  Te  Te13      1.0  0.13600  0.53200  0.36700  1.0000
  Te  Te14      1.0  0.75000  0.15600  0.40100  1.0000
  Te  Te15      1.0  0.32900  0.21400  0.40700  1.0000
  Te  Te16      1.0  0.30700  0.76800  0.47000  1.0000
  Te  Te17      1.0  0.78500  0.45400  0.49000  1.0000
  Te  Te18      1.0  0.21500  0.54600  0.51000  1.0000
  Te  Te19      1.0  0.69300  0.23200  0.53000  1.0000
  Te  Te20      1.0  0.67100  0.78600  0.59300  1.0000
  Te  Te21      1.0  0.25000  0.84400  0.59900  1.0000
  Te  Te22      1.0  0.86400  0.46800  0.63300  1.0000
  Te  Te23      1.0  0.50000  0.40300  0.64600  1.0000
  Te  Te24      1.0  0.21600  0.66800  0.67800  1.0000
  Te  Te25      1.0  0.42000  0.96900  0.72500  1.0000
  Te  Te26      1.0  0.79600  0.75000  0.75000  1.0000
  Te  Te27      1.0  0.66400  0.53100  0.77500  1.0000
  Te  Te28      1.0  0.20500  0.83200  0.82200  1.0000
  Te  Te29      1.0  0.25700  0.09740  0.85400  1.0000
  Te  Te30      1.0  0.69900  0.03170  0.86700  1.0000
  Te  Te31      1.0  0.49500  0.65600  0.90100  1.0000
  Te  Te32      1.0  0.86400  0.71400  0.90700  1.0000
  Te  Te33      1.0  0.39400  0.26800  0.97000  1.0000
  Te  Te34      1.0  0.25100  0.95400  0.99000  1.0000
