data_image0
_chemical_formula_structural       B16Cu2Dy4O32
_chemical_formula_sum              "B16 Cu2 Dy4 O32"
_cell_length_a       10.2177
_cell_length_b       8.39015
_cell_length_c       6.10869
_cell_angle_alpha    90
_cell_angle_beta     90.4207
_cell_angle_gamma    90

_space_group_name_H-M_alt    "P 1"
_space_group_IT_number       1

loop_
  _space_group_symop_operation_xyz
  'x, y, z'

loop_
  _atom_site_type_symbol
  _atom_site_label
  _atom_site_symmetry_multiplicity
  _atom_site_fract_x
  _atom_site_fract_y
  _atom_site_fract_z
  _atom_site_occupancy
  B   B1        1.0  0.80600  0.00396  0.00604  1.0000
  B   B2        1.0  0.00000  0.18400  0.11500  1.0000
  B   B3        1.0  0.38300  0.81000  0.11800  1.0000
  B   B4        1.0  0.62700  0.80700  0.12400  1.0000
  B   B5        1.0  0.37300  0.30700  0.37600  1.0000
  B   B6        1.0  0.61700  0.31000  0.38200  1.0000
  B   B7        1.0  0.00000  0.68400  0.38500  1.0000
  B   B8        1.0  0.19400  0.50400  0.49400  1.0000
  B   B9        1.0  0.80600  0.49600  0.50600  1.0000
  B   B10       1.0  0.00000  0.31600  0.61500  1.0000
  B   B11       1.0  0.38300  0.69000  0.61800  1.0000
  B   B12       1.0  0.62700  0.69300  0.62400  1.0000
  B   B13       1.0  0.37300  0.19300  0.87600  1.0000
  B   B14       1.0  0.61700  0.19000  0.88200  1.0000
  B   B15       1.0  0.00000  0.81600  0.88500  1.0000
  B   B16       1.0  0.19400  0.99600  0.99400  1.0000
  Cu  Cu1       1.0  0.50000  0.50000  0.00000  1.0000
  Cu  Cu2       1.0  0.50000  0.00000  0.50000  1.0000
  Dy  Dy1       1.0  0.81800  0.49300  0.00517  1.0000
  Dy  Dy2       1.0  0.18200  0.99300  0.49500  1.0000
  Dy  Dy3       1.0  0.81800  0.00744  0.50500  1.0000
  Dy  Dy4       1.0  0.18200  0.50700  0.99500  1.0000
  O   O1        1.0  0.36400  0.65700  0.06310  1.0000
  O   O2        1.0  0.00807  0.33900  0.06420  1.0000
  O   O3        1.0  0.64200  0.65300  0.06700  1.0000
  O   O4        1.0  0.10900  0.08670  0.14300  1.0000
  O   O5        1.0  0.27500  0.90900  0.15100  1.0000
  O   O6        1.0  0.50500  0.87800  0.15100  1.0000
  O   O7        1.0  0.87800  0.11400  0.15400  1.0000
  O   O8        1.0  0.73600  0.90300  0.16000  1.0000
  O   O9        1.0  0.26400  0.40300  0.34000  1.0000
  O   O10       1.0  0.12200  0.61400  0.34600  1.0000
  O   O11       1.0  0.49500  0.37800  0.34900  1.0000
  O   O12       1.0  0.72500  0.40900  0.34900  1.0000
  O   O13       1.0  0.89100  0.58700  0.35700  1.0000
  O   O14       1.0  0.35800  0.15300  0.43300  1.0000
  O   O15       1.0  0.99200  0.83900  0.43600  1.0000
  O   O16       1.0  0.63600  0.15700  0.43700  1.0000
  O   O17       1.0  0.36400  0.84300  0.56300  1.0000
  O   O18       1.0  0.00807  0.16100  0.56400  1.0000
  O   O19       1.0  0.64200  0.84700  0.56700  1.0000
  O   O20       1.0  0.10900  0.41300  0.64300  1.0000
  O   O21       1.0  0.27500  0.59100  0.65100  1.0000
  O   O22       1.0  0.50500  0.62200  0.65100  1.0000
  O   O23       1.0  0.87800  0.38600  0.65400  1.0000
  O   O24       1.0  0.73600  0.59700  0.66000  1.0000
  O   O25       1.0  0.26400  0.09650  0.84000  1.0000
  O   O26       1.0  0.12200  0.88600  0.84600  1.0000
  O   O27       1.0  0.49500  0.12200  0.84900  1.0000
  O   O28       1.0  0.72500  0.09080  0.84900  1.0000
  O   O29       1.0  0.89100  0.91300  0.85700  1.0000
  O   O30       1.0  0.35800  0.34700  0.93300  1.0000
  O   O31       1.0  0.99200  0.66100  0.93600  1.0000
  O   O32       1.0  0.63600  0.34300  0.93700  1.0000
