data_image0
_chemical_formula_structural       Ba8Cl34Eu7
_chemical_formula_sum              "Ba8 Cl34 Eu7"
_cell_length_a       11.5854
_cell_length_b       11.5854
_cell_length_c       13.0838
_cell_angle_alpha    116.279
_cell_angle_beta     116.279
_cell_angle_gamma    90

_space_group_name_H-M_alt    "P 1"
_space_group_IT_number       1

loop_
  _space_group_symop_operation_xyz
  'x, y, z'

loop_
  _atom_site_type_symbol
  _atom_site_label
  _atom_site_symmetry_multiplicity
  _atom_site_fract_x
  _atom_site_fract_y
  _atom_site_fract_z
  _atom_site_occupancy
  Ba  Ba1       1.0  0.00828  0.48800  0.31400  1.0000
  Ba  Ba2       1.0  0.48800  0.30600  0.31400  1.0000
  Ba  Ba3       1.0  0.82600  0.00828  0.31400  1.0000
  Ba  Ba4       1.0  0.30600  0.82600  0.31400  1.0000
  Ba  Ba5       1.0  0.17400  0.99200  0.68600  1.0000
  Ba  Ba6       1.0  0.99200  0.51200  0.68600  1.0000
  Ba  Ba7       1.0  0.69400  0.17400  0.68600  1.0000
  Ba  Ba8       1.0  0.51200  0.69400  0.68600  1.0000
  Cl  Cl1       1.0  0.35400  0.22700  0.00000  1.0000
  Cl  Cl2       1.0  0.77300  0.35400  0.00000  1.0000
  Cl  Cl3       1.0  0.22700  0.64600  0.00000  1.0000
  Cl  Cl4       1.0  0.64600  0.77300  0.00000  1.0000
  Cl  Cl5       1.0  0.27500  0.99700  0.14000  1.0000
  Cl  Cl6       1.0  0.14300  0.27500  0.14000  1.0000
  Cl  Cl7       1.0  0.99700  0.86500  0.14000  1.0000
  Cl  Cl8       1.0  0.86500  0.14300  0.14000  1.0000
  Cl  Cl9       1.0  0.57900  0.07940  0.15900  1.0000
  Cl  Cl10      1.0  0.07940  0.57900  0.15900  1.0000
  Cl  Cl11      1.0  0.41900  0.55600  0.25800  1.0000
  Cl  Cl12      1.0  0.70200  0.41900  0.25800  1.0000
  Cl  Cl13      1.0  0.55600  0.83900  0.25800  1.0000
  Cl  Cl14      1.0  0.83900  0.70200  0.25800  1.0000
  Cl  Cl15      1.0  0.13600  0.02410  0.44500  1.0000
  Cl  Cl16      1.0  0.02410  0.30800  0.44500  1.0000
  Cl  Cl17      1.0  0.42100  0.13600  0.44500  1.0000
  Cl  Cl18      1.0  0.30800  0.42100  0.44500  1.0000
  Cl  Cl19      1.0  0.75000  0.25000  0.50000  1.0000
  Cl  Cl20      1.0  0.25000  0.75000  0.50000  1.0000
  Cl  Cl21      1.0  0.69200  0.57900  0.55500  1.0000
  Cl  Cl22      1.0  0.57900  0.86400  0.55500  1.0000
  Cl  Cl23      1.0  0.97600  0.69200  0.55500  1.0000
  Cl  Cl24      1.0  0.86400  0.97600  0.55500  1.0000
  Cl  Cl25      1.0  0.16100  0.29800  0.74200  1.0000
  Cl  Cl26      1.0  0.44400  0.16100  0.74200  1.0000
  Cl  Cl27      1.0  0.29800  0.58100  0.74200  1.0000
  Cl  Cl28      1.0  0.58100  0.44400  0.74200  1.0000
  Cl  Cl29      1.0  0.92100  0.42100  0.84100  1.0000
  Cl  Cl30      1.0  0.42100  0.92100  0.84100  1.0000
  Cl  Cl31      1.0  0.00272  0.13500  0.86000  1.0000
  Cl  Cl32      1.0  0.72500  0.00272  0.86000  1.0000
  Cl  Cl33      1.0  0.13500  0.85700  0.86000  1.0000
  Cl  Cl34      1.0  0.85700  0.72500  0.86000  1.0000
  Eu  Eu1       1.0  0.00000  0.00000  0.00000  1.0000
  Eu  Eu2       1.0  0.59500  0.18500  0.00000  1.0000
  Eu  Eu3       1.0  0.18500  0.40500  0.00000  1.0000
  Eu  Eu4       1.0  0.81500  0.59500  0.00000  1.0000
  Eu  Eu5       1.0  0.40500  0.81500  0.00000  1.0000
  Eu  Eu6       1.0  0.69700  0.69700  0.39400  1.0000
  Eu  Eu7       1.0  0.30300  0.30300  0.60600  1.0000
