data_image0
_chemical_formula_structural       Cs8O32P8V4
_chemical_formula_sum              "Cs8 O32 P8 V4"
_cell_length_a       12.9921
_cell_length_b       7.23208
_cell_length_c       9.54516
_cell_angle_alpha    90
_cell_angle_beta     90
_cell_angle_gamma    90

_space_group_name_H-M_alt    "P 1"
_space_group_IT_number       1

loop_
  _space_group_symop_operation_xyz
  'x, y, z'

loop_
  _atom_site_type_symbol
  _atom_site_label
  _atom_site_symmetry_multiplicity
  _atom_site_fract_x
  _atom_site_fract_y
  _atom_site_fract_z
  _atom_site_occupancy
  Cs  Cs1       1.0  0.60000  0.75000  0.08190  1.0000
  Cs  Cs2       1.0  0.09980  0.25000  0.12800  1.0000
  Cs  Cs3       1.0  0.60000  0.25000  0.37200  1.0000
  Cs  Cs4       1.0  0.09980  0.75000  0.41800  1.0000
  Cs  Cs5       1.0  0.90000  0.25000  0.58200  1.0000
  Cs  Cs6       1.0  0.40000  0.75000  0.62800  1.0000
  Cs  Cs7       1.0  0.90000  0.75000  0.87200  1.0000
  Cs  Cs8       1.0  0.40000  0.25000  0.91800  1.0000
  O   O1        1.0  0.09290  0.75000  0.05000  1.0000
  O   O2        1.0  0.28600  0.55900  0.09150  1.0000
  O   O3        1.0  0.28600  0.94100  0.09150  1.0000
  O   O4        1.0  0.77800  0.06500  0.16500  1.0000
  O   O5        1.0  0.77800  0.43500  0.16500  1.0000
  O   O6        1.0  0.84200  0.75000  0.19700  1.0000
  O   O7        1.0  0.45400  0.01900  0.21300  1.0000
  O   O8        1.0  0.45400  0.48100  0.21300  1.0000
  O   O9        1.0  0.95400  0.01900  0.28700  1.0000
  O   O10       1.0  0.95400  0.48100  0.28700  1.0000
  O   O11       1.0  0.34200  0.75000  0.30300  1.0000
  O   O12       1.0  0.27800  0.06500  0.33500  1.0000
  O   O13       1.0  0.27800  0.43500  0.33500  1.0000
  O   O14       1.0  0.78600  0.55900  0.40800  1.0000
  O   O15       1.0  0.78600  0.94100  0.40800  1.0000
  O   O16       1.0  0.59300  0.75000  0.45000  1.0000
  O   O17       1.0  0.40700  0.25000  0.55000  1.0000
  O   O18       1.0  0.21400  0.05940  0.59200  1.0000
  O   O19       1.0  0.21400  0.44100  0.59200  1.0000
  O   O20       1.0  0.72200  0.56500  0.66500  1.0000
  O   O21       1.0  0.72200  0.93500  0.66500  1.0000
  O   O22       1.0  0.65800  0.25000  0.69700  1.0000
  O   O23       1.0  0.04620  0.51900  0.71300  1.0000
  O   O24       1.0  0.04620  0.98100  0.71300  1.0000
  O   O25       1.0  0.54600  0.51900  0.78700  1.0000
  O   O26       1.0  0.54600  0.98100  0.78700  1.0000
  O   O27       1.0  0.15800  0.25000  0.80300  1.0000
  O   O28       1.0  0.22200  0.56500  0.83500  1.0000
  O   O29       1.0  0.22200  0.93500  0.83500  1.0000
  O   O30       1.0  0.71400  0.05940  0.90800  1.0000
  O   O31       1.0  0.71400  0.44100  0.90800  1.0000
  O   O32       1.0  0.90700  0.25000  0.95000  1.0000
  P   P1        1.0  0.34500  0.54500  0.23200  1.0000
  P   P2        1.0  0.34500  0.95500  0.23200  1.0000
  P   P3        1.0  0.84500  0.54500  0.26800  1.0000
  P   P4        1.0  0.84500  0.95500  0.26800  1.0000
  P   P5        1.0  0.15500  0.04460  0.73200  1.0000
  P   P6        1.0  0.15500  0.45500  0.73200  1.0000
  P   P7        1.0  0.65500  0.04460  0.76800  1.0000
  P   P8        1.0  0.65500  0.45500  0.76800  1.0000
  V   V1        1.0  0.79000  0.25000  0.01330  1.0000
  V   V2        1.0  0.29000  0.25000  0.48700  1.0000
  V   V3        1.0  0.71000  0.75000  0.51300  1.0000
  V   V4        1.0  0.21000  0.75000  0.98700  1.0000
