data_image0
_chemical_formula_structural       Cd8Ge10H2Li2O30
_chemical_formula_sum              "Cd8 Ge10 H2 Li2 O30"
_cell_length_a       7.05529
_cell_length_b       7.93277
_cell_length_c       12.7263
_cell_angle_alpha    68.2874
_cell_angle_beta     95.555
_cell_angle_gamma    94.2232

_space_group_name_H-M_alt    "P 1"
_space_group_IT_number       1

loop_
  _space_group_symop_operation_xyz
  'x, y, z'

loop_
  _atom_site_type_symbol
  _atom_site_label
  _atom_site_symmetry_multiplicity
  _atom_site_fract_x
  _atom_site_fract_y
  _atom_site_fract_z
  _atom_site_occupancy
  Cd  Cd1       1.0  0.27600  0.72100  0.02140  1.0000
  Cd  Cd2       1.0  0.05690  0.95000  0.15000  1.0000
  Cd  Cd3       1.0  0.81500  0.20300  0.26300  1.0000
  Cd  Cd4       1.0  0.13500  0.87800  0.44200  1.0000
  Cd  Cd5       1.0  0.86500  0.12200  0.55800  1.0000
  Cd  Cd6       1.0  0.18500  0.79700  0.73700  1.0000
  Cd  Cd7       1.0  0.94300  0.05050  0.85000  1.0000
  Cd  Cd8       1.0  0.72400  0.27900  0.97900  1.0000
  Ge  Ge1       1.0  0.77900  0.63900  0.04200  1.0000
  Ge  Ge2       1.0  0.57100  0.85300  0.17400  1.0000
  Ge  Ge3       1.0  0.29900  0.28700  0.22500  1.0000
  Ge  Ge4       1.0  0.10400  0.50700  0.35100  1.0000
  Ge  Ge5       1.0  0.64300  0.78000  0.44300  1.0000
  Ge  Ge6       1.0  0.35700  0.22000  0.55700  1.0000
  Ge  Ge7       1.0  0.89600  0.49300  0.64900  1.0000
  Ge  Ge8       1.0  0.70100  0.71300  0.77500  1.0000
  Ge  Ge9       1.0  0.42900  0.14700  0.82600  1.0000
  Ge  Ge10      1.0  0.22100  0.36100  0.95800  1.0000
  H   H1        1.0  0.52500  0.19600  0.39400  1.0000
  H   H2        1.0  0.47500  0.80400  0.60600  1.0000
  Li  Li1       1.0  0.67100  0.46100  0.40200  1.0000
  Li  Li2       1.0  0.32900  0.53900  0.59800  1.0000
  O   O1        1.0  0.96500  0.80200  0.02440  1.0000
  O   O2        1.0  0.36500  0.34900  0.08520  1.0000
  O   O3        1.0  0.85000  0.41600  0.09390  1.0000
  O   O4        1.0  0.35100  0.92600  0.10500  1.0000
  O   O5        1.0  0.60300  0.67000  0.12400  1.0000
  O   O6        1.0  0.74700  0.02700  0.15100  1.0000
  O   O7        1.0  0.22800  0.49300  0.23600  1.0000
  O   O8        1.0  0.12200  0.11500  0.26800  1.0000
  O   O9        1.0  0.51200  0.20400  0.30600  1.0000
  O   O10       1.0  0.05030  0.72900  0.32100  1.0000
  O   O11       1.0  0.57200  0.72100  0.32200  1.0000
  O   O12       1.0  0.90100  0.36100  0.37900  1.0000
  O   O13       1.0  0.81800  0.95000  0.43700  1.0000
  O   O14       1.0  0.26900  0.44100  0.47400  1.0000
  O   O15       1.0  0.56400  0.21100  0.49500  1.0000
  O   O16       1.0  0.43600  0.78900  0.50500  1.0000
  O   O17       1.0  0.73100  0.55900  0.52600  1.0000
  O   O18       1.0  0.18200  0.04980  0.56300  1.0000
  O   O19       1.0  0.09890  0.63900  0.62100  1.0000
  O   O20       1.0  0.42800  0.27900  0.67800  1.0000
  O   O21       1.0  0.95000  0.27100  0.67900  1.0000
  O   O22       1.0  0.48800  0.79600  0.69400  1.0000
  O   O23       1.0  0.87800  0.88500  0.73200  1.0000
  O   O24       1.0  0.77200  0.50700  0.76400  1.0000
  O   O25       1.0  0.25300  0.97300  0.84900  1.0000
  O   O26       1.0  0.39700  0.33000  0.87600  1.0000
  O   O27       1.0  0.64900  0.07420  0.89500  1.0000
  O   O28       1.0  0.15000  0.58400  0.90600  1.0000
  O   O29       1.0  0.63500  0.65100  0.91500  1.0000
  O   O30       1.0  0.03490  0.19800  0.97600  1.0000
