data_image0
_chemical_formula_structural       H14NaO24P8Sc3
_chemical_formula_sum              "H14 Na1 O24 P8 Sc3"
_cell_length_a       7.16615
_cell_length_b       9.57413
_cell_length_c       9.52188
_cell_angle_alpha    115.364
_cell_angle_beta     100.933
_cell_angle_gamma    101.519

_space_group_name_H-M_alt    "P 1"
_space_group_IT_number       1

loop_
  _space_group_symop_operation_xyz
  'x, y, z'

loop_
  _atom_site_type_symbol
  _atom_site_label
  _atom_site_symmetry_multiplicity
  _atom_site_fract_x
  _atom_site_fract_y
  _atom_site_fract_z
  _atom_site_occupancy
  H   H1        1.0  0.96500  0.07770  0.09930  1.0000
  H   H2        1.0  0.85900  0.79500  0.16600  1.0000
  H   H3        1.0  0.50400  0.59400  0.18200  1.0000
  H   H4        1.0  0.52800  0.86600  0.31100  1.0000
  H   H5        1.0  0.00837  0.43600  0.37300  1.0000
  H   H6        1.0  0.27100  0.77900  0.43800  1.0000
  H   H7        1.0  0.24100  0.28700  0.48600  1.0000
  H   H8        1.0  0.75900  0.71300  0.51400  1.0000
  H   H9        1.0  0.72900  0.22100  0.56200  1.0000
  H   H10       1.0  0.99200  0.56400  0.62700  1.0000
  H   H11       1.0  0.47200  0.13400  0.68900  1.0000
  H   H12       1.0  0.49600  0.40600  0.81800  1.0000
  H   H13       1.0  0.14100  0.20500  0.83400  1.0000
  H   H14       1.0  0.03480  0.92200  0.90100  1.0000
  Na  Na1       1.0  0.00000  0.00000  0.50000  1.0000
  O   O1        1.0  0.35500  0.13100  0.03220  1.0000
  O   O2        1.0  0.21100  0.73000  0.10800  1.0000
  O   O3        1.0  0.82100  0.60800  0.14400  1.0000
  O   O4        1.0  0.14900  0.44800  0.17000  1.0000
  O   O5        1.0  0.88600  0.91600  0.22600  1.0000
  O   O6        1.0  0.73300  0.13200  0.24200  1.0000
  O   O7        1.0  0.66400  0.43000  0.25800  1.0000
  O   O8        1.0  0.34300  0.04040  0.28700  1.0000
  O   O9        1.0  0.28600  0.34100  0.35700  1.0000
  O   O10       1.0  0.25100  0.87200  0.41600  1.0000
  O   O11       1.0  0.78900  0.73800  0.42500  1.0000
  O   O12       1.0  0.32200  0.64400  0.47000  1.0000
  O   O13       1.0  0.67800  0.35600  0.53000  1.0000
  O   O14       1.0  0.21100  0.26200  0.57500  1.0000
  O   O15       1.0  0.74900  0.12800  0.58400  1.0000
  O   O16       1.0  0.71400  0.65900  0.64300  1.0000
  O   O17       1.0  0.65700  0.96000  0.71300  1.0000
  O   O18       1.0  0.33600  0.57000  0.74200  1.0000
  O   O19       1.0  0.26700  0.86800  0.75800  1.0000
  O   O20       1.0  0.11400  0.08370  0.77400  1.0000
  O   O21       1.0  0.85100  0.55200  0.83000  1.0000
  O   O22       1.0  0.17900  0.39200  0.85600  1.0000
  O   O23       1.0  0.78900  0.27000  0.89200  1.0000
  O   O24       1.0  0.64500  0.86900  0.96800  1.0000
  P   P1        1.0  0.80000  0.00000  0.12700  1.0000
  P   P2        1.0  0.69100  0.58500  0.24700  1.0000
  P   P3        1.0  0.33300  0.87600  0.27400  1.0000
  P   P4        1.0  0.19100  0.46700  0.34100  1.0000
  P   P5        1.0  0.80900  0.53300  0.65900  1.0000
  P   P6        1.0  0.66700  0.12400  0.72600  1.0000
  P   P7        1.0  0.30900  0.41500  0.75300  1.0000
  P   P8        1.0  0.20000  1.00000  0.87300  1.0000
  Sc  Sc1       1.0  0.00000  0.50000  0.00000  1.0000
  Sc  Sc2       1.0  0.50700  0.23500  0.27600  1.0000
  Sc  Sc3       1.0  0.49300  0.76500  0.72400  1.0000
