data_image0
_chemical_formula_structural       H4Na4O28Se8Zn8
_chemical_formula_sum              "H4 Na4 O28 Se8 Zn8"
_cell_length_a       13.2535
_cell_length_b       6.02259
_cell_length_c       8.31293
_cell_angle_alpha    90
_cell_angle_beta     90
_cell_angle_gamma    90

_space_group_name_H-M_alt    "P 1"
_space_group_IT_number       1

loop_
  _space_group_symop_operation_xyz
  'x, y, z'

loop_
  _atom_site_type_symbol
  _atom_site_label
  _atom_site_symmetry_multiplicity
  _atom_site_fract_x
  _atom_site_fract_y
  _atom_site_fract_z
  _atom_site_occupancy
  H   H1        1.0  0.83700  0.25000  0.03530  1.0000
  H   H2        1.0  0.33700  0.25000  0.46500  1.0000
  H   H3        1.0  0.66300  0.75000  0.53500  1.0000
  H   H4        1.0  0.16300  0.75000  0.96500  1.0000
  Na  Na1       1.0  0.24700  0.25000  0.12500  1.0000
  Na  Na2       1.0  0.74700  0.25000  0.37500  1.0000
  Na  Na3       1.0  0.25300  0.75000  0.62500  1.0000
  Na  Na4       1.0  0.75300  0.75000  0.87500  1.0000
  O   O1        1.0  0.40800  0.25000  0.03080  1.0000
  O   O2        1.0  0.10300  0.75000  0.03390  1.0000
  O   O3        1.0  0.89200  0.75000  0.03970  1.0000
  O   O4        1.0  0.74700  0.53700  0.19800  1.0000
  O   O5        1.0  0.74700  0.96300  0.19800  1.0000
  O   O6        1.0  0.51600  0.02630  0.24500  1.0000
  O   O7        1.0  0.51600  0.47400  0.24500  1.0000
  O   O8        1.0  0.01620  0.02630  0.25500  1.0000
  O   O9        1.0  0.01620  0.47400  0.25500  1.0000
  O   O10       1.0  0.24700  0.53700  0.30200  1.0000
  O   O11       1.0  0.24700  0.96300  0.30200  1.0000
  O   O12       1.0  0.39200  0.75000  0.46000  1.0000
  O   O13       1.0  0.60300  0.75000  0.46600  1.0000
  O   O14       1.0  0.90800  0.25000  0.46900  1.0000
  O   O15       1.0  0.09220  0.75000  0.53100  1.0000
  O   O16       1.0  0.39700  0.25000  0.53400  1.0000
  O   O17       1.0  0.60800  0.25000  0.54000  1.0000
  O   O18       1.0  0.75300  0.03710  0.69800  1.0000
  O   O19       1.0  0.75300  0.46300  0.69800  1.0000
  O   O20       1.0  0.98400  0.52600  0.74500  1.0000
  O   O21       1.0  0.98400  0.97400  0.74500  1.0000
  O   O22       1.0  0.48400  0.52600  0.75500  1.0000
  O   O23       1.0  0.48400  0.97400  0.75500  1.0000
  O   O24       1.0  0.25300  0.03710  0.80200  1.0000
  O   O25       1.0  0.25300  0.46300  0.80200  1.0000
  O   O26       1.0  0.10800  0.25000  0.96000  1.0000
  O   O27       1.0  0.89700  0.25000  0.96600  1.0000
  O   O28       1.0  0.59200  0.75000  0.96900  1.0000
  Se  Se1       1.0  0.52600  0.25000  0.11400  1.0000
  Se  Se2       1.0  0.83200  0.75000  0.22900  1.0000
  Se  Se3       1.0  0.33200  0.75000  0.27100  1.0000
  Se  Se4       1.0  0.02610  0.25000  0.38600  1.0000
  Se  Se5       1.0  0.97400  0.75000  0.61400  1.0000
  Se  Se6       1.0  0.66800  0.25000  0.72900  1.0000
  Se  Se7       1.0  0.16800  0.25000  0.77100  1.0000
  Se  Se8       1.0  0.47400  0.75000  0.88600  1.0000
  Zn  Zn1       1.0  0.00000  0.00000  0.00000  1.0000
  Zn  Zn2       1.0  0.00000  0.50000  0.00000  1.0000
  Zn  Zn3       1.0  0.61500  0.75000  0.21500  1.0000
  Zn  Zn4       1.0  0.11500  0.75000  0.28500  1.0000
  Zn  Zn5       1.0  0.50000  0.00000  0.50000  1.0000
  Zn  Zn6       1.0  0.50000  0.50000  0.50000  1.0000
  Zn  Zn7       1.0  0.88500  0.25000  0.71500  1.0000
  Zn  Zn8       1.0  0.38500  0.25000  0.78500  1.0000
