data_image0
_chemical_formula_structural       Cu2Ni2O2Te2
_chemical_formula_sum              "Cu2 Ni2 O2 Te2"
_cell_length_a       3.15961
_cell_length_b       5.55935
_cell_length_c       6.77923
_cell_angle_alpha    90
_cell_angle_beta     76.5241
_cell_angle_gamma    90

_space_group_name_H-M_alt    "P 1"
_space_group_IT_number       1

loop_
  _space_group_symop_operation_xyz
  'x, y, z'

loop_
  _atom_site_type_symbol
  _atom_site_label
  _atom_site_symmetry_multiplicity
  _atom_site_fract_x
  _atom_site_fract_y
  _atom_site_fract_z
  _atom_site_occupancy
  Cu  Cu1       1.0  0.46000  0.75000  0.07990  1.0000
  Cu  Cu2       1.0  0.54000  0.25000  0.92000  1.0000
  Ni  Ni1       1.0  0.88500  0.25000  0.23000  1.0000
  Ni  Ni2       1.0  0.11500  0.75000  0.77000  1.0000
  O   O1        1.0  0.00000  0.00000  0.00000  1.0000
  O   O2        1.0  0.00000  0.50000  0.00000  1.0000
  Te  Te1       1.0  0.77600  0.75000  0.44700  1.0000
  Te  Te2       1.0  0.22400  0.25000  0.55300  1.0000
