data_image0
_chemical_formula_structural       Mo8Na8O32Pu2
_chemical_formula_sum              "Mo8 Na8 O32 Pu2"
_cell_length_a       9.80729
_cell_length_b       9.80729
_cell_length_c       9.80729
_cell_angle_alpha    106.954
_cell_angle_beta     110.744
_cell_angle_gamma    110.744

_space_group_name_H-M_alt    "P 1"
_space_group_IT_number       1

loop_
  _space_group_symop_operation_xyz
  'x, y, z'

loop_
  _atom_site_type_symbol
  _atom_site_label
  _atom_site_symmetry_multiplicity
  _atom_site_fract_x
  _atom_site_fract_y
  _atom_site_fract_z
  _atom_site_occupancy
  Mo  Mo1       1.0  0.33800  0.05730  0.03700  1.0000
  Mo  Mo2       1.0  0.48000  0.53700  0.19900  1.0000
  Mo  Mo3       1.0  0.16200  0.69900  0.22000  1.0000
  Mo  Mo4       1.0  0.98000  0.28000  0.44300  1.0000
  Mo  Mo5       1.0  0.02020  0.72000  0.55700  1.0000
  Mo  Mo6       1.0  0.83800  0.30100  0.78000  1.0000
  Mo  Mo7       1.0  0.52000  0.46300  0.80100  1.0000
  Mo  Mo8       1.0  0.66200  0.94300  0.96300  1.0000
  Na  Na1       1.0  0.08850  0.26500  0.12900  1.0000
  Na  Na2       1.0  0.86400  0.82300  0.23500  1.0000
  Na  Na3       1.0  0.58900  0.95900  0.32300  1.0000
  Na  Na4       1.0  0.63600  0.37100  0.45900  1.0000
  Na  Na5       1.0  0.36400  0.62900  0.54100  1.0000
  Na  Na6       1.0  0.41100  0.04090  0.67700  1.0000
  Na  Na7       1.0  0.13600  0.17700  0.76500  1.0000
  Na  Na8       1.0  0.91100  0.73500  0.87100  1.0000
  O   O1        1.0  0.21000  0.14800  0.01200  1.0000
  O   O2        1.0  0.66000  0.53300  0.02130  1.0000
  O   O3        1.0  0.51100  0.87300  0.03270  1.0000
  O   O4        1.0  0.81400  0.16500  0.09260  1.0000
  O   O5        1.0  0.01150  0.47900  0.13900  1.0000
  O   O6        1.0  0.31400  0.72100  0.14900  1.0000
  O   O7        1.0  0.06310  0.80700  0.16200  1.0000
  O   O8        1.0  0.57200  0.40700  0.22100  1.0000
  O   O9        1.0  0.43700  0.09900  0.24400  1.0000
  O   O10       1.0  0.36400  0.51200  0.30200  1.0000
  O   O11       1.0  0.64500  0.74400  0.30700  1.0000
  O   O12       1.0  0.92800  0.64900  0.33500  1.0000
  O   O13       1.0  0.86400  0.06280  0.35200  1.0000
  O   O14       1.0  0.84000  0.36100  0.37300  1.0000
  O   O15       1.0  0.14500  0.33800  0.40100  1.0000
  O   O16       1.0  0.29000  0.80200  0.43700  1.0000
  O   O17       1.0  0.71000  0.19800  0.56300  1.0000
  O   O18       1.0  0.85500  0.66200  0.59900  1.0000
  O   O19       1.0  0.16000  0.63900  0.62700  1.0000
  O   O20       1.0  0.13600  0.93700  0.64800  1.0000
  O   O21       1.0  0.07190  0.35100  0.66500  1.0000
  O   O22       1.0  0.35500  0.25600  0.69300  1.0000
  O   O23       1.0  0.63600  0.48800  0.69800  1.0000
  O   O24       1.0  0.56300  0.90100  0.75600  1.0000
  O   O25       1.0  0.42800  0.59300  0.77900  1.0000
  O   O26       1.0  0.93700  0.19300  0.83800  1.0000
  O   O27       1.0  0.68600  0.27900  0.85100  1.0000
  O   O28       1.0  0.98900  0.52100  0.86100  1.0000
  O   O29       1.0  0.18600  0.83500  0.90700  1.0000
  O   O30       1.0  0.48900  0.12700  0.96700  1.0000
  O   O31       1.0  0.34000  0.46700  0.97900  1.0000
  O   O32       1.0  0.79000  0.85200  0.98800  1.0000
  Pu  Pu1       1.0  0.75000  0.37500  0.12500  1.0000
  Pu  Pu2       1.0  0.25000  0.62500  0.87500  1.0000
