data_image0
_chemical_formula_structural       O36Se8V8
_chemical_formula_sum              "O36 Se8 V8"
_cell_length_a       8.02626
_cell_length_b       10.3236
_cell_length_c       8.25283
_cell_angle_alpha    90
_cell_angle_beta     103.087
_cell_angle_gamma    90

_space_group_name_H-M_alt    "P 1"
_space_group_IT_number       1

loop_
  _space_group_symop_operation_xyz
  'x, y, z'

loop_
  _atom_site_type_symbol
  _atom_site_label
  _atom_site_symmetry_multiplicity
  _atom_site_fract_x
  _atom_site_fract_y
  _atom_site_fract_z
  _atom_site_occupancy
  O   O1        1.0  0.79900  0.96800  0.06090  1.0000
  O   O2        1.0  0.33100  0.82300  0.06950  1.0000
  O   O3        1.0  0.05930  0.40400  0.10500  1.0000
  O   O4        1.0  0.70700  0.55000  0.11100  1.0000
  O   O5        1.0  0.51500  0.04150  0.15200  1.0000
  O   O6        1.0  0.95200  0.18500  0.20100  1.0000
  O   O7        1.0  0.21600  0.64000  0.22100  1.0000
  O   O8        1.0  0.64500  0.27600  0.22500  1.0000
  O   O9        1.0  0.10700  0.92600  0.24800  1.0000
  O   O10       1.0  0.39300  0.42600  0.25200  1.0000
  O   O11       1.0  0.85500  0.77600  0.27500  1.0000
  O   O12       1.0  0.28400  0.14000  0.27900  1.0000
  O   O13       1.0  0.54800  0.68500  0.29900  1.0000
  O   O14       1.0  0.98500  0.54200  0.34800  1.0000
  O   O15       1.0  0.79300  0.05000  0.38900  1.0000
  O   O16       1.0  0.44100  0.90400  0.39500  1.0000
  O   O17       1.0  0.16900  0.32300  0.43000  1.0000
  O   O18       1.0  0.70100  0.46800  0.43900  1.0000
  O   O19       1.0  0.29900  0.53200  0.56100  1.0000
  O   O20       1.0  0.83100  0.67700  0.57000  1.0000
  O   O21       1.0  0.55900  0.09590  0.60500  1.0000
  O   O22       1.0  0.20700  0.95000  0.61100  1.0000
  O   O23       1.0  0.01550  0.45800  0.65200  1.0000
  O   O24       1.0  0.45200  0.31500  0.70100  1.0000
  O   O25       1.0  0.71600  0.86000  0.72100  1.0000
  O   O26       1.0  0.14500  0.22400  0.72500  1.0000
  O   O27       1.0  0.60700  0.57400  0.74800  1.0000
  O   O28       1.0  0.89300  0.07410  0.75200  1.0000
  O   O29       1.0  0.35500  0.72400  0.77500  1.0000
  O   O30       1.0  0.78400  0.36000  0.77900  1.0000
  O   O31       1.0  0.04780  0.81500  0.79900  1.0000
  O   O32       1.0  0.48500  0.95800  0.84800  1.0000
  O   O33       1.0  0.29300  0.45000  0.88900  1.0000
  O   O34       1.0  0.94100  0.59600  0.89500  1.0000
  O   O35       1.0  0.66900  0.17700  0.93000  1.0000
  O   O36       1.0  0.20100  0.03200  0.93900  1.0000
  Se  Se1       1.0  0.94500  0.84100  0.12100  1.0000
  Se  Se2       1.0  0.38600  0.66000  0.12500  1.0000
  Se  Se3       1.0  0.11400  0.16000  0.37500  1.0000
  Se  Se4       1.0  0.55500  0.34100  0.37900  1.0000
  Se  Se5       1.0  0.44500  0.65900  0.62100  1.0000
  Se  Se6       1.0  0.88600  0.84000  0.62500  1.0000
  Se  Se7       1.0  0.61400  0.34000  0.87500  1.0000
  Se  Se8       1.0  0.05510  0.15900  0.87900  1.0000
  V   V1        1.0  0.73000  0.10400  0.20100  1.0000
  V   V2        1.0  0.34500  0.96700  0.22200  1.0000
  V   V3        1.0  0.15500  0.46700  0.27800  1.0000
  V   V4        1.0  0.77000  0.60400  0.29900  1.0000
  V   V5        1.0  0.23000  0.39600  0.70100  1.0000
  V   V6        1.0  0.84500  0.53300  0.72200  1.0000
  V   V7        1.0  0.65500  0.03280  0.77800  1.0000
  V   V8        1.0  0.27000  0.89600  0.79900  1.0000
