data_image0
_chemical_formula_structural       B10H16K2O24
_chemical_formula_sum              "B10 H16 K2 O24"
_cell_length_a       7.07914
_cell_length_b       7.07914
_cell_length_c       10.4567
_cell_angle_alpha    90
_cell_angle_beta     90
_cell_angle_gamma    96.9543

_space_group_name_H-M_alt    "P 1"
_space_group_IT_number       1

loop_
  _space_group_symop_operation_xyz
  'x, y, z'

loop_
  _atom_site_type_symbol
  _atom_site_label
  _atom_site_symmetry_multiplicity
  _atom_site_fract_x
  _atom_site_fract_y
  _atom_site_fract_z
  _atom_site_occupancy
  B   B1        1.0  0.59400  0.59400  0.00000  1.0000
  B   B2        1.0  0.59000  0.76700  0.20600  1.0000
  B   B3        1.0  0.57700  0.42700  0.21200  1.0000
  B   B4        1.0  0.07730  0.92700  0.28800  1.0000
  B   B5        1.0  0.09010  0.26700  0.29400  1.0000
  B   B6        1.0  0.09440  0.09440  0.50000  1.0000
  B   B7        1.0  0.26700  0.09010  0.70600  1.0000
  B   B8        1.0  0.92700  0.07730  0.71200  1.0000
  B   B9        1.0  0.42700  0.57700  0.78800  1.0000
  B   B10       1.0  0.76700  0.59000  0.79400  1.0000
  H   H1        1.0  0.47000  0.21900  0.03550  1.0000
  H   H2        1.0  0.30400  0.06780  0.08290  1.0000
  H   H3        1.0  0.07700  0.40500  0.13000  1.0000
  H   H4        1.0  0.06910  0.64200  0.23900  1.0000
  H   H5        1.0  0.56900  0.14200  0.26100  1.0000
  H   H6        1.0  0.57700  0.90500  0.37000  1.0000
  H   H7        1.0  0.80400  0.56800  0.41700  1.0000
  H   H8        1.0  0.97000  0.71900  0.46500  1.0000
  H   H9        1.0  0.71900  0.97000  0.53500  1.0000
  H   H10       1.0  0.56800  0.80400  0.58300  1.0000
  H   H11       1.0  0.90500  0.57700  0.63000  1.0000
  H   H12       1.0  0.14200  0.56900  0.73900  1.0000
  H   H13       1.0  0.64200  0.06910  0.76100  1.0000
  H   H14       1.0  0.40500  0.07700  0.87000  1.0000
  H   H15       1.0  0.06780  0.30400  0.91700  1.0000
  H   H16       1.0  0.21900  0.47000  0.96500  1.0000
  K   K1        1.0  0.94100  0.94100  0.00000  1.0000
  K   K2        1.0  0.44100  0.44100  0.50000  1.0000
  O   O1        1.0  0.39800  0.09130  0.01530  1.0000
  O   O2        1.0  0.60400  0.76700  0.07720  1.0000
  O   O3        1.0  0.58000  0.42100  0.08160  1.0000
  O   O4        1.0  0.06090  0.77500  0.20800  1.0000
  O   O5        1.0  0.08470  0.09960  0.22300  1.0000
  O   O6        1.0  0.08510  0.43000  0.22600  1.0000
  O   O7        1.0  0.58500  0.93000  0.27400  1.0000
  O   O8        1.0  0.58500  0.60000  0.27700  1.0000
  O   O9        1.0  0.56100  0.27500  0.29200  1.0000
  O   O10       1.0  0.08040  0.92100  0.41800  1.0000
  O   O11       1.0  0.10400  0.26700  0.42300  1.0000
  O   O12       1.0  0.89800  0.59100  0.48500  1.0000
  O   O13       1.0  0.59100  0.89800  0.51500  1.0000
  O   O14       1.0  0.26700  0.10400  0.57700  1.0000
  O   O15       1.0  0.92100  0.08040  0.58200  1.0000
  O   O16       1.0  0.27500  0.56100  0.70800  1.0000
  O   O17       1.0  0.60000  0.58500  0.72300  1.0000
  O   O18       1.0  0.93000  0.58500  0.72600  1.0000
  O   O19       1.0  0.43000  0.08510  0.77400  1.0000
  O   O20       1.0  0.09960  0.08470  0.77700  1.0000
  O   O21       1.0  0.77500  0.06090  0.79200  1.0000
  O   O22       1.0  0.42100  0.58000  0.91800  1.0000
  O   O23       1.0  0.76700  0.60400  0.92300  1.0000
  O   O24       1.0  0.09130  0.39800  0.98500  1.0000
