data_image0
_chemical_formula_structural       Mo8Na8O32Th2
_chemical_formula_sum              "Mo8 Na8 O32 Th2"
_cell_length_a       9.92758
_cell_length_b       9.92758
_cell_length_c       9.92758
_cell_angle_alpha    111.149
_cell_angle_beta     106.166
_cell_angle_gamma    111.149

_space_group_name_H-M_alt    "P 1"
_space_group_IT_number       1

loop_
  _space_group_symop_operation_xyz
  'x, y, z'

loop_
  _atom_site_type_symbol
  _atom_site_label
  _atom_site_symmetry_multiplicity
  _atom_site_fract_x
  _atom_site_fract_y
  _atom_site_fract_z
  _atom_site_occupancy
  Mo  Mo1       1.0  0.54100  0.33200  0.05890  1.0000
  Mo  Mo2       1.0  0.94100  0.98200  0.27300  1.0000
  Mo  Mo3       1.0  0.27300  0.83200  0.29100  1.0000
  Mo  Mo4       1.0  0.29100  0.51800  0.45900  1.0000
  Mo  Mo5       1.0  0.70900  0.48200  0.54100  1.0000
  Mo  Mo6       1.0  0.72700  0.16800  0.70900  1.0000
  Mo  Mo7       1.0  0.05890  0.01830  0.72700  1.0000
  Mo  Mo8       1.0  0.45900  0.66800  0.94100  1.0000
  Na  Na1       1.0  0.18100  0.40600  0.04110  1.0000
  Na  Na2       1.0  0.27500  0.14000  0.18100  1.0000
  Na  Na3       1.0  0.63500  0.09400  0.27500  1.0000
  Na  Na4       1.0  0.95900  0.64000  0.36500  1.0000
  Na  Na5       1.0  0.04110  0.36000  0.63500  1.0000
  Na  Na6       1.0  0.36500  0.90600  0.72500  1.0000
  Na  Na7       1.0  0.72500  0.86000  0.81900  1.0000
  Na  Na8       1.0  0.81900  0.59400  0.95900  1.0000
  O   O1        1.0  0.85000  0.87200  0.05780  1.0000
  O   O2        1.0  0.74400  0.44000  0.09800  1.0000
  O   O3        1.0  0.46800  0.47700  0.12900  1.0000
  O   O4        1.0  0.52200  0.20800  0.15000  1.0000
  O   O5        1.0  0.58700  0.81500  0.16000  1.0000
  O   O6        1.0  0.05780  0.70800  0.18600  1.0000
  O   O7        1.0  0.34200  0.94000  0.19600  1.0000
  O   O8        1.0  0.19600  0.35400  0.25600  1.0000
  O   O9        1.0  0.34500  0.68500  0.27100  1.0000
  O   O10       1.0  0.90200  0.14600  0.34200  1.0000
  O   O11       1.0  0.16000  0.07370  0.34500  1.0000
  O   O12       1.0  0.87100  0.83900  0.34800  1.0000
  O   O13       1.0  0.72900  0.57400  0.41300  1.0000
  O   O14       1.0  0.49200  0.33900  0.46800  1.0000
  O   O15       1.0  0.18600  0.62800  0.47800  1.0000
  O   O16       1.0  0.65200  0.02340  0.49200  1.0000
  O   O17       1.0  0.34800  0.97700  0.50800  1.0000
  O   O18       1.0  0.81400  0.37200  0.52200  1.0000
  O   O19       1.0  0.50800  0.66100  0.53200  1.0000
  O   O20       1.0  0.27100  0.42600  0.58700  1.0000
  O   O21       1.0  0.12900  0.16100  0.65200  1.0000
  O   O22       1.0  0.84000  0.92600  0.65500  1.0000
  O   O23       1.0  0.09800  0.85400  0.65800  1.0000
  O   O24       1.0  0.65500  0.31500  0.72900  1.0000
  O   O25       1.0  0.80400  0.64600  0.74400  1.0000
  O   O26       1.0  0.65800  0.06010  0.80400  1.0000
  O   O27       1.0  0.94200  0.29200  0.81400  1.0000
  O   O28       1.0  0.41300  0.18500  0.84000  1.0000
  O   O29       1.0  0.47800  0.79200  0.85000  1.0000
  O   O30       1.0  0.53200  0.52300  0.87100  1.0000
  O   O31       1.0  0.25600  0.56000  0.90200  1.0000
  O   O32       1.0  0.15000  0.12800  0.94200  1.0000
  Th  Th1       1.0  0.62500  0.75000  0.37500  1.0000
  Th  Th2       1.0  0.37500  0.25000  0.62500  1.0000
