data_image0
_chemical_formula_structural       Fe2O2Sr2Te2
_chemical_formula_sum              "Fe2 O2 Sr2 Te2"
_cell_length_a       4.24028
_cell_length_b       6.22295
_cell_length_c       7.07544
_cell_angle_alpha    90
_cell_angle_beta     72.5635
_cell_angle_gamma    90

_space_group_name_H-M_alt    "P 1"
_space_group_IT_number       1

loop_
  _space_group_symop_operation_xyz
  'x, y, z'

loop_
  _atom_site_type_symbol
  _atom_site_label
  _atom_site_symmetry_multiplicity
  _atom_site_fract_x
  _atom_site_fract_y
  _atom_site_fract_z
  _atom_site_occupancy
  Fe  Fe1       1.0  0.91300  0.25000  0.17400  1.0000
  Fe  Fe2       1.0  0.08690  0.75000  0.82600  1.0000
  O   O1        1.0  0.00000  0.00000  0.00000  1.0000
  O   O2        1.0  0.00000  0.50000  0.00000  1.0000
  Sr  Sr1       1.0  0.40000  0.75000  0.20000  1.0000
  Sr  Sr2       1.0  0.60000  0.25000  0.80000  1.0000
  Te  Te1       1.0  0.29400  0.25000  0.41100  1.0000
  Te  Te2       1.0  0.70600  0.75000  0.58900  1.0000
