data_image0
_chemical_formula_structural       Ho4K8O32P4W4
_chemical_formula_sum              "Ho4 K8 O32 P4 W4"
_cell_length_a       6.83805
_cell_length_b       11.9873
_cell_length_c       11.9873
_cell_angle_alpha    109.286
_cell_angle_beta     106.572
_cell_angle_gamma    106.572

_space_group_name_H-M_alt    "P 1"
_space_group_IT_number       1

loop_
  _space_group_symop_operation_xyz
  'x, y, z'

loop_
  _atom_site_type_symbol
  _atom_site_label
  _atom_site_symmetry_multiplicity
  _atom_site_fract_x
  _atom_site_fract_y
  _atom_site_fract_z
  _atom_site_occupancy
  Ho  Ho1       1.0  0.42500  0.17500  0.17500  1.0000
  Ho  Ho2       1.0  0.07490  0.32500  0.32500  1.0000
  Ho  Ho3       1.0  0.92500  0.67500  0.67500  1.0000
  Ho  Ho4       1.0  0.57500  0.82500  0.82500  1.0000
  K   K1        1.0  0.38800  0.76300  0.07710  1.0000
  K   K2        1.0  0.04810  0.92300  0.23700  1.0000
  K   K3        1.0  0.88800  0.57700  0.26300  1.0000
  K   K4        1.0  0.54800  0.73700  0.42300  1.0000
  K   K5        1.0  0.45200  0.26300  0.57700  1.0000
  K   K6        1.0  0.11200  0.42300  0.73700  1.0000
  K   K7        1.0  0.95200  0.07710  0.76300  1.0000
  K   K8        1.0  0.61200  0.23700  0.92300  1.0000
  O   O1        1.0  0.72400  0.93100  0.05600  1.0000
  O   O2        1.0  0.23800  0.94400  0.06950  1.0000
  O   O3        1.0  0.92700  0.65100  0.08450  1.0000
  O   O4        1.0  0.43400  0.33400  0.10600  1.0000
  O   O5        1.0  0.72700  0.15900  0.14300  1.0000
  O   O6        1.0  0.42700  0.58500  0.15100  1.0000
  O   O7        1.0  0.07570  0.14300  0.15900  1.0000
  O   O8        1.0  0.06560  0.39400  0.16600  1.0000
  O   O9        1.0  0.50600  0.10600  0.33400  1.0000
  O   O10       1.0  0.77300  0.35700  0.34100  1.0000
  O   O11       1.0  0.69200  0.91500  0.34900  1.0000
  O   O12       1.0  0.42400  0.34100  0.35700  1.0000
  O   O13       1.0  0.99400  0.16600  0.39400  1.0000
  O   O14       1.0  0.19200  0.84900  0.41500  1.0000
  O   O15       1.0  0.22400  0.55600  0.43100  1.0000
  O   O16       1.0  0.73800  0.56900  0.44400  1.0000
  O   O17       1.0  0.26200  0.43100  0.55600  1.0000
  O   O18       1.0  0.77600  0.44400  0.56900  1.0000
  O   O19       1.0  0.80800  0.15100  0.58500  1.0000
  O   O20       1.0  0.00592  0.83400  0.60600  1.0000
  O   O21       1.0  0.57600  0.65900  0.64300  1.0000
  O   O22       1.0  0.30800  0.08450  0.65100  1.0000
  O   O23       1.0  0.22700  0.64300  0.65900  1.0000
  O   O24       1.0  0.49400  0.89400  0.66600  1.0000
  O   O25       1.0  0.93400  0.60600  0.83400  1.0000
  O   O26       1.0  0.92400  0.85700  0.84100  1.0000
  O   O27       1.0  0.57300  0.41500  0.84900  1.0000
  O   O28       1.0  0.27300  0.84100  0.85700  1.0000
  O   O29       1.0  0.56600  0.66600  0.89400  1.0000
  O   O30       1.0  0.07290  0.34900  0.91500  1.0000
  O   O31       1.0  0.76200  0.05600  0.93100  1.0000
  O   O32       1.0  0.27600  0.06950  0.94400  1.0000
  P   P1        1.0  0.81900  0.06930  0.06930  1.0000
  P   P2        1.0  0.68100  0.43100  0.43100  1.0000
  P   P3        1.0  0.31900  0.56900  0.56900  1.0000
  P   P4        1.0  0.18100  0.93100  0.93100  1.0000
  W   W1        1.0  0.25000  0.41600  0.08440  1.0000
  W   W2        1.0  0.75000  0.08440  0.41600  1.0000
  W   W3        1.0  0.25000  0.91600  0.58400  1.0000
  W   W4        1.0  0.75000  0.58400  0.91600  1.0000
