data_image0
_chemical_formula_structural       Ho4I12O36
_chemical_formula_sum              "Ho4 I12 O36"
_cell_length_a       8.60511
_cell_length_b       5.85404
_cell_length_c       14.7627
_cell_angle_alpha    90
_cell_angle_beta     97.1283
_cell_angle_gamma    90

_space_group_name_H-M_alt    "P 1"
_space_group_IT_number       1

loop_
  _space_group_symop_operation_xyz
  'x, y, z'

loop_
  _atom_site_type_symbol
  _atom_site_label
  _atom_site_symmetry_multiplicity
  _atom_site_fract_x
  _atom_site_fract_y
  _atom_site_fract_z
  _atom_site_occupancy
  Ho  Ho1       1.0  0.95900  0.77800  0.10200  1.0000
  Ho  Ho2       1.0  0.54100  0.27800  0.39800  1.0000
  Ho  Ho3       1.0  0.45900  0.72200  0.60200  1.0000
  Ho  Ho4       1.0  0.04100  0.22200  0.89800  1.0000
  I   I1        1.0  0.66200  0.15500  0.02370  1.0000
  I   I2        1.0  0.22600  0.31200  0.14900  1.0000
  I   I3        1.0  0.62000  0.59800  0.20100  1.0000
  I   I4        1.0  0.88000  0.09840  0.29900  1.0000
  I   I5        1.0  0.27400  0.81200  0.35100  1.0000
  I   I6        1.0  0.83800  0.65500  0.47600  1.0000
  I   I7        1.0  0.16200  0.34500  0.52400  1.0000
  I   I8        1.0  0.72600  0.18800  0.64900  1.0000
  I   I9        1.0  0.12000  0.90200  0.70100  1.0000
  I   I10       1.0  0.38000  0.40200  0.79900  1.0000
  I   I11       1.0  0.77400  0.68800  0.85100  1.0000
  I   I12       1.0  0.33800  0.84500  0.97600  1.0000
  O   O1        1.0  0.13900  0.88600  0.01030  1.0000
  O   O2        1.0  0.14400  0.39100  0.03310  1.0000
  O   O3        1.0  0.41400  0.07650  0.05860  1.0000
  O   O4        1.0  0.45100  0.58900  0.11000  1.0000
  O   O5        1.0  0.72400  0.96800  0.12300  1.0000
  O   O6        1.0  0.77500  0.50000  0.13500  1.0000
  O   O7        1.0  0.07450  0.10300  0.17400  1.0000
  O   O8        1.0  0.13700  0.56200  0.19700  1.0000
  O   O9        1.0  0.58600  0.30900  0.24200  1.0000
  O   O10       1.0  0.91400  0.80900  0.25800  1.0000
  O   O11       1.0  0.36300  0.06240  0.30300  1.0000
  O   O12       1.0  0.42500  0.60300  0.32600  1.0000
  O   O13       1.0  0.72500  0.00000  0.36500  1.0000
  O   O14       1.0  0.77600  0.46800  0.37700  1.0000
  O   O15       1.0  0.04860  0.08940  0.39000  1.0000
  O   O16       1.0  0.08610  0.57600  0.44100  1.0000
  O   O17       1.0  0.35600  0.89100  0.46700  1.0000
  O   O18       1.0  0.36100  0.38600  0.49000  1.0000
  O   O19       1.0  0.63900  0.61400  0.51000  1.0000
  O   O20       1.0  0.64400  0.10900  0.53300  1.0000
  O   O21       1.0  0.91400  0.42400  0.55900  1.0000
  O   O22       1.0  0.95100  0.91100  0.61000  1.0000
  O   O23       1.0  0.22400  0.53200  0.62300  1.0000
  O   O24       1.0  0.27500  0.00017  0.63500  1.0000
  O   O25       1.0  0.57500  0.39700  0.67400  1.0000
  O   O26       1.0  0.63700  0.93800  0.69700  1.0000
  O   O27       1.0  0.08590  0.19100  0.74200  1.0000
  O   O28       1.0  0.41400  0.69100  0.75800  1.0000
  O   O29       1.0  0.86300  0.43800  0.80300  1.0000
  O   O30       1.0  0.92500  0.89700  0.82600  1.0000
  O   O31       1.0  0.22500  0.50000  0.86500  1.0000
  O   O32       1.0  0.27600  0.03180  0.87700  1.0000
  O   O33       1.0  0.54900  0.41100  0.89000  1.0000
  O   O34       1.0  0.58600  0.92400  0.94100  1.0000
  O   O35       1.0  0.85600  0.60900  0.96700  1.0000
  O   O36       1.0  0.86100  0.11400  0.99000  1.0000
