data_image0
_chemical_formula_structural       Cr4O32P8Pb6
_chemical_formula_sum              "Cr4 O32 P8 Pb6"
_cell_length_a       8.94674
_cell_length_b       8.99317
_cell_length_c       9.24512
_cell_angle_alpha    90
_cell_angle_beta     116.56
_cell_angle_gamma    90

_space_group_name_H-M_alt    "P 1"
_space_group_IT_number       1

loop_
  _space_group_symop_operation_xyz
  'x, y, z'

loop_
  _atom_site_type_symbol
  _atom_site_label
  _atom_site_symmetry_multiplicity
  _atom_site_fract_x
  _atom_site_fract_y
  _atom_site_fract_z
  _atom_site_occupancy
  Cr  Cr1       1.0  0.24800  0.63100  0.24400  1.0000
  Cr  Cr2       1.0  0.75200  0.13100  0.25600  1.0000
  Cr  Cr3       1.0  0.24800  0.86900  0.74400  1.0000
  Cr  Cr4       1.0  0.75200  0.36900  0.75600  1.0000
  O   O1        1.0  0.15900  0.58700  0.00633  1.0000
  O   O2        1.0  0.60600  0.15300  0.02120  1.0000
  O   O3        1.0  0.31400  0.04430  0.13100  1.0000
  O   O4        1.0  0.10100  0.25200  0.13400  1.0000
  O   O5        1.0  0.09120  0.79500  0.23100  1.0000
  O   O6        1.0  0.92000  0.99800  0.24000  1.0000
  O   O7        1.0  0.61400  0.95300  0.24400  1.0000
  O   O8        1.0  0.41200  0.78400  0.24900  1.0000
  O   O9        1.0  0.58800  0.28400  0.25100  1.0000
  O   O10       1.0  0.38600  0.45300  0.25600  1.0000
  O   O11       1.0  0.08020  0.49800  0.26000  1.0000
  O   O12       1.0  0.90900  0.29500  0.26900  1.0000
  O   O13       1.0  0.89900  0.75200  0.36600  1.0000
  O   O14       1.0  0.68600  0.54400  0.36900  1.0000
  O   O15       1.0  0.39400  0.65300  0.47900  1.0000
  O   O16       1.0  0.84100  0.08720  0.49400  1.0000
  O   O17       1.0  0.15900  0.91300  0.50600  1.0000
  O   O18       1.0  0.60600  0.34700  0.52100  1.0000
  O   O19       1.0  0.31400  0.45600  0.63100  1.0000
  O   O20       1.0  0.10100  0.24800  0.63400  1.0000
  O   O21       1.0  0.09120  0.70500  0.73100  1.0000
  O   O22       1.0  0.92000  0.50200  0.74000  1.0000
  O   O23       1.0  0.61400  0.54700  0.74400  1.0000
  O   O24       1.0  0.41200  0.71600  0.74900  1.0000
  O   O25       1.0  0.58800  0.21600  0.75100  1.0000
  O   O26       1.0  0.38600  0.04690  0.75600  1.0000
  O   O27       1.0  0.08020  0.00224  0.76000  1.0000
  O   O28       1.0  0.90900  0.20500  0.76900  1.0000
  O   O29       1.0  0.89900  0.74800  0.86600  1.0000
  O   O30       1.0  0.68600  0.95600  0.86900  1.0000
  O   O31       1.0  0.39400  0.84700  0.97900  1.0000
  O   O32       1.0  0.84100  0.41300  0.99400  1.0000
  P   P1        1.0  0.42600  0.91100  0.14300  1.0000
  P   P2        1.0  0.98100  0.36200  0.15700  1.0000
  P   P3        1.0  0.01900  0.86200  0.34300  1.0000
  P   P4        1.0  0.57400  0.41100  0.35700  1.0000
  P   P5        1.0  0.42600  0.58900  0.64300  1.0000
  P   P6        1.0  0.98100  0.13800  0.65700  1.0000
  P   P7        1.0  0.01900  0.63800  0.84300  1.0000
  P   P8        1.0  0.57400  0.08870  0.85700  1.0000
  Pb  Pb1       1.0  0.00000  0.00000  0.00000  1.0000
  Pb  Pb2       1.0  0.30000  0.29400  0.02030  1.0000
  Pb  Pb3       1.0  0.70000  0.79400  0.48000  1.0000
  Pb  Pb4       1.0  0.00000  0.50000  0.50000  1.0000
  Pb  Pb5       1.0  0.30000  0.20600  0.52000  1.0000
  Pb  Pb6       1.0  0.70000  0.70600  0.98000  1.0000
