data_image0
_chemical_formula_structural       Al8Ba2Na4O32Si8
_chemical_formula_sum              "Al8 Ba2 Na4 O32 Si8"
_cell_length_a       8.44338
_cell_length_b       9.98141
_cell_length_c       10.6214
_cell_angle_alpha    118.026
_cell_angle_beta     113.42
_cell_angle_gamma    90

_space_group_name_H-M_alt    "P 1"
_space_group_IT_number       1

loop_
  _space_group_symop_operation_xyz
  'x, y, z'

loop_
  _atom_site_type_symbol
  _atom_site_label
  _atom_site_symmetry_multiplicity
  _atom_site_fract_x
  _atom_site_fract_y
  _atom_site_fract_z
  _atom_site_occupancy
  Al  Al1       1.0  0.13400  0.25000  0.12600  1.0000
  Al  Al2       1.0  0.63400  0.37500  0.12600  1.0000
  Al  Al3       1.0  0.49100  0.75000  0.12600  1.0000
  Al  Al4       1.0  0.99100  0.87500  0.12600  1.0000
  Al  Al5       1.0  0.08970  0.26200  0.62300  1.0000
  Al  Al6       1.0  0.53300  0.36100  0.62300  1.0000
  Al  Al7       1.0  0.03330  0.76200  0.62300  1.0000
  Al  Al8       1.0  0.59000  0.86100  0.62300  1.0000
  Ba  Ba1       1.0  0.65500  0.15500  0.30900  1.0000
  Ba  Ba2       1.0  0.15500  0.65500  0.30900  1.0000
  Na  Na1       1.0  0.36600  0.08100  0.80700  1.0000
  Na  Na2       1.0  0.86600  0.22600  0.80700  1.0000
  Na  Na3       1.0  0.94100  0.58100  0.80700  1.0000
  Na  Na4       1.0  0.44100  0.72600  0.80700  1.0000
  O   O1        1.0  0.64700  0.17900  0.05730  1.0000
  O   O2        1.0  0.14700  0.37800  0.05730  1.0000
  O   O3        1.0  0.91000  0.67900  0.05730  1.0000
  O   O4        1.0  0.41000  0.87800  0.05730  1.0000
  O   O5        1.0  0.28700  0.13100  0.11700  1.0000
  O   O6        1.0  0.78700  0.48600  0.11700  1.0000
  O   O7        1.0  0.33000  0.63100  0.11700  1.0000
  O   O8        1.0  0.83000  0.98600  0.11700  1.0000
  O   O9        1.0  0.15400  0.36900  0.31600  1.0000
  O   O10       1.0  0.65400  0.44700  0.31600  1.0000
  O   O11       1.0  0.66200  0.86900  0.31600  1.0000
  O   O12       1.0  0.16200  0.94700  0.31600  1.0000
  O   O13       1.0  0.47700  0.15700  0.49400  1.0000
  O   O14       1.0  0.01770  0.33700  0.49400  1.0000
  O   O15       1.0  0.51800  0.65700  0.49400  1.0000
  O   O16       1.0  0.97700  0.83700  0.49400  1.0000
  O   O17       1.0  0.90200  0.12100  0.55200  1.0000
  O   O18       1.0  0.64900  0.43000  0.55200  1.0000
  O   O19       1.0  0.14900  0.62100  0.55200  1.0000
  O   O20       1.0  0.40200  0.93000  0.55200  1.0000
  O   O21       1.0  0.26500  0.17000  0.62500  1.0000
  O   O22       1.0  0.36000  0.45500  0.62500  1.0000
  O   O23       1.0  0.86000  0.67000  0.62500  1.0000
  O   O24       1.0  0.76500  0.95500  0.62500  1.0000
  O   O25       1.0  0.12100  0.40400  0.81500  1.0000
  O   O26       1.0  0.69400  0.41100  0.81500  1.0000
  O   O27       1.0  0.19400  0.90400  0.81500  1.0000
  O   O28       1.0  0.62100  0.91100  0.81500  1.0000
  O   O29       1.0  0.92000  0.13500  0.98700  1.0000
  O   O30       1.0  0.42000  0.35200  0.98700  1.0000
  O   O31       1.0  0.56800  0.63500  0.98700  1.0000
  O   O32       1.0  0.06750  0.85200  0.98700  1.0000
  Si  Si1       1.0  0.32600  0.05170  0.49200  1.0000
  Si  Si2       1.0  0.16600  0.44000  0.49200  1.0000
  Si  Si3       1.0  0.66600  0.55200  0.49200  1.0000
  Si  Si4       1.0  0.82600  0.94000  0.49200  1.0000
  Si  Si5       1.0  0.76100  0.05200  0.99400  1.0000
  Si  Si6       1.0  0.26100  0.44200  0.99400  1.0000
  Si  Si7       1.0  0.73300  0.55200  0.99400  1.0000
  Si  Si8       1.0  0.23300  0.94200  0.99400  1.0000
