data_image0
_chemical_formula_structural       I12Lu4O36
_chemical_formula_sum              "I12 Lu4 O36"
_cell_length_a       8.54326
_cell_length_b       5.91135
_cell_length_c       14.6249
_cell_angle_alpha    90
_cell_angle_beta     97.2118
_cell_angle_gamma    90

_space_group_name_H-M_alt    "P 1"
_space_group_IT_number       1

loop_
  _space_group_symop_operation_xyz
  'x, y, z'

loop_
  _atom_site_type_symbol
  _atom_site_label
  _atom_site_symmetry_multiplicity
  _atom_site_fract_x
  _atom_site_fract_y
  _atom_site_fract_z
  _atom_site_occupancy
  I   I1        1.0  0.16400  0.65800  0.02290  1.0000
  I   I2        1.0  0.72500  0.80700  0.14700  1.0000
  I   I3        1.0  0.12000  0.09780  0.20200  1.0000
  I   I4        1.0  0.38000  0.59800  0.29800  1.0000
  I   I5        1.0  0.77500  0.30700  0.35300  1.0000
  I   I6        1.0  0.33600  0.15800  0.47700  1.0000
  I   I7        1.0  0.66400  0.84200  0.52300  1.0000
  I   I8        1.0  0.22500  0.69300  0.64700  1.0000
  I   I9        1.0  0.62000  0.40200  0.70200  1.0000
  I   I10       1.0  0.88000  0.90200  0.79800  1.0000
  I   I11       1.0  0.27500  0.19300  0.85300  1.0000
  I   I12       1.0  0.83600  0.34200  0.97700  1.0000
  Lu  Lu1       1.0  0.46000  0.28000  0.10500  1.0000
  Lu  Lu2       1.0  0.04040  0.78000  0.39500  1.0000
  Lu  Lu3       1.0  0.96000  0.22000  0.60500  1.0000
  Lu  Lu4       1.0  0.54000  0.72000  0.89500  1.0000
  O   O1        1.0  0.63800  0.36800  0.01410  1.0000
  O   O2        1.0  0.64900  0.87200  0.02790  1.0000
  O   O3        1.0  0.91400  0.56700  0.06180  1.0000
  O   O4        1.0  0.95200  0.08630  0.10800  1.0000
  O   O5        1.0  0.23100  0.46800  0.12200  1.0000
  O   O6        1.0  0.28000  0.00274  0.13600  1.0000
  O   O7        1.0  0.57500  0.59700  0.17400  1.0000
  O   O8        1.0  0.63200  0.05700  0.19200  1.0000
  O   O9        1.0  0.08450  0.80900  0.24100  1.0000
  O   O10       1.0  0.41500  0.30900  0.25900  1.0000
  O   O11       1.0  0.86800  0.55700  0.30800  1.0000
  O   O12       1.0  0.92500  0.09710  0.32600  1.0000
  O   O13       1.0  0.22000  0.50300  0.36400  1.0000
  O   O14       1.0  0.26900  0.96800  0.37800  1.0000
  O   O15       1.0  0.54800  0.58600  0.39200  1.0000
  O   O16       1.0  0.58600  0.06660  0.43800  1.0000
  O   O17       1.0  0.85100  0.37200  0.47200  1.0000
  O   O18       1.0  0.86200  0.86800  0.48600  1.0000
  O   O19       1.0  0.13800  0.13200  0.51400  1.0000
  O   O20       1.0  0.14900  0.62800  0.52800  1.0000
  O   O21       1.0  0.41400  0.93300  0.56200  1.0000
  O   O22       1.0  0.45200  0.41400  0.60800  1.0000
  O   O23       1.0  0.73100  0.03160  0.62200  1.0000
  O   O24       1.0  0.78000  0.49700  0.63600  1.0000
  O   O25       1.0  0.07520  0.90300  0.67400  1.0000
  O   O26       1.0  0.13200  0.44300  0.69200  1.0000
  O   O27       1.0  0.58500  0.69100  0.74100  1.0000
  O   O28       1.0  0.91500  0.19100  0.75900  1.0000
  O   O29       1.0  0.36800  0.94300  0.80800  1.0000
  O   O30       1.0  0.42500  0.40300  0.82600  1.0000
  O   O31       1.0  0.72000  0.99700  0.86400  1.0000
  O   O32       1.0  0.76900  0.53200  0.87800  1.0000
  O   O33       1.0  0.04760  0.91400  0.89200  1.0000
  O   O34       1.0  0.08570  0.43300  0.93800  1.0000
  O   O35       1.0  0.35100  0.12800  0.97200  1.0000
  O   O36       1.0  0.36200  0.63200  0.98600  1.0000
