data_image0
_chemical_formula_structural       In8P12S36
_chemical_formula_sum              "In8 P12 S36"
_cell_length_a       6.94252
_cell_length_b       10.6741
_cell_length_c       18.4703
_cell_angle_alpha    90
_cell_angle_beta     107.466
_cell_angle_gamma    90

_space_group_name_H-M_alt    "P 1"
_space_group_IT_number       1

loop_
  _space_group_symop_operation_xyz
  'x, y, z'

loop_
  _atom_site_type_symbol
  _atom_site_label
  _atom_site_symmetry_multiplicity
  _atom_site_fract_x
  _atom_site_fract_y
  _atom_site_fract_z
  _atom_site_occupancy
  In  In1       1.0  0.00214  0.32000  0.01170  1.0000
  In  In2       1.0  0.99800  0.84900  0.17600  1.0000
  In  In3       1.0  0.00205  0.34900  0.32400  1.0000
  In  In4       1.0  0.99800  0.82000  0.48800  1.0000
  In  In5       1.0  0.00214  0.18000  0.51200  1.0000
  In  In6       1.0  0.99800  0.65100  0.67600  1.0000
  In  In7       1.0  0.00205  0.15100  0.82400  1.0000
  In  In8       1.0  0.99800  0.68000  0.98800  1.0000
  P   P1        1.0  0.17100  0.00342  0.01530  1.0000
  P   P2        1.0  0.82900  0.50800  0.14700  1.0000
  P   P3        1.0  0.17100  0.51300  0.18600  1.0000
  P   P4        1.0  0.82900  0.01290  0.31400  1.0000
  P   P5        1.0  0.17100  0.00835  0.35300  1.0000
  P   P6        1.0  0.82900  0.50300  0.48500  1.0000
  P   P7        1.0  0.17000  0.49700  0.51500  1.0000
  P   P8        1.0  0.82900  0.99200  0.64700  1.0000
  P   P9        1.0  0.17100  0.98700  0.68600  1.0000
  P   P10       1.0  0.82900  0.48700  0.81400  1.0000
  P   P11       1.0  0.17100  0.49200  0.85300  1.0000
  P   P12       1.0  0.82900  0.99700  0.98500  1.0000
  S   S1        1.0  0.75300  0.01090  0.08180  1.0000
  S   S2        1.0  0.25400  0.84100  0.08210  1.0000
  S   S3        1.0  0.75100  0.67400  0.08360  1.0000
  S   S4        1.0  0.24700  0.50500  0.08370  1.0000
  S   S5        1.0  0.26400  0.15500  0.08540  1.0000
  S   S6        1.0  0.74000  0.34600  0.08620  1.0000
  S   S7        1.0  0.74700  0.51800  0.24300  1.0000
  S   S8        1.0  0.26200  0.35100  0.24400  1.0000
  S   S9        1.0  0.25900  0.67400  0.24600  1.0000
  S   S10       1.0  0.74100  0.17400  0.25400  1.0000
  S   S11       1.0  0.73800  0.85100  0.25600  1.0000
  S   S12       1.0  0.25300  0.01790  0.25700  1.0000
  S   S13       1.0  0.26000  0.84600  0.41400  1.0000
  S   S14       1.0  0.73600  0.65500  0.41500  1.0000
  S   S15       1.0  0.75300  0.00500  0.41600  1.0000
  S   S16       1.0  0.24900  0.17400  0.41600  1.0000
  S   S17       1.0  0.74600  0.34100  0.41800  1.0000
  S   S18       1.0  0.24700  0.51100  0.41800  1.0000
  S   S19       1.0  0.75300  0.48900  0.58200  1.0000
  S   S20       1.0  0.25400  0.65900  0.58200  1.0000
  S   S21       1.0  0.75100  0.82600  0.58400  1.0000
  S   S22       1.0  0.24700  0.99500  0.58400  1.0000
  S   S23       1.0  0.26400  0.34500  0.58500  1.0000
  S   S24       1.0  0.74000  0.15400  0.58600  1.0000
  S   S25       1.0  0.74700  0.98200  0.74300  1.0000
  S   S26       1.0  0.26200  0.14900  0.74400  1.0000
  S   S27       1.0  0.25900  0.82600  0.74600  1.0000
  S   S28       1.0  0.74100  0.32600  0.75400  1.0000
  S   S29       1.0  0.73800  0.64900  0.75600  1.0000
  S   S30       1.0  0.25300  0.48200  0.75700  1.0000
  S   S31       1.0  0.26000  0.65400  0.91400  1.0000
  S   S32       1.0  0.73600  0.84500  0.91500  1.0000
  S   S33       1.0  0.75300  0.49500  0.91600  1.0000
  S   S34       1.0  0.24900  0.32600  0.91600  1.0000
  S   S35       1.0  0.74600  0.15900  0.91800  1.0000
  S   S36       1.0  0.24700  0.98900  0.91800  1.0000
