data_image0
_chemical_formula_structural       Ca2Mn6O30Si10Zn2
_chemical_formula_sum              "Ca2 Mn6 O30 Si10 Zn2"
_cell_length_a       6.70077
_cell_length_b       7.68533
_cell_length_c       11.706
_cell_angle_alpha    105.267
_cell_angle_beta     92.0092
_cell_angle_gamma    93.3966

_space_group_name_H-M_alt    "P 1"
_space_group_IT_number       1

loop_
  _space_group_symop_operation_xyz
  'x, y, z'

loop_
  _atom_site_type_symbol
  _atom_site_label
  _atom_site_symmetry_multiplicity
  _atom_site_fract_x
  _atom_site_fract_y
  _atom_site_fract_z
  _atom_site_occupancy
  Ca  Ca1       1.0  0.36800  0.95300  0.30600  1.0000
  Ca  Ca2       1.0  0.63200  0.04700  0.69400  1.0000
  Mn  Mn1       1.0  0.03630  0.11500  0.14600  1.0000
  Mn  Mn2       1.0  0.81100  0.49000  0.27200  1.0000
  Mn  Mn3       1.0  0.12400  0.31800  0.44200  1.0000
  Mn  Mn4       1.0  0.87600  0.68200  0.55800  1.0000
  Mn  Mn5       1.0  0.18900  0.51000  0.72800  1.0000
  Mn  Mn6       1.0  0.96400  0.88500  0.85400  1.0000
  O   O1        1.0  0.55400  0.73800  0.00624  1.0000
  O   O2        1.0  0.94700  0.83800  0.03800  1.0000
  O   O3        1.0  0.81500  0.54500  0.10000  1.0000
  O   O4        1.0  0.74000  0.19800  0.12600  1.0000
  O   O5        1.0  0.34600  0.06760  0.14600  1.0000
  O   O6        1.0  0.25300  0.67600  0.17700  1.0000
  O   O7        1.0  0.48900  0.42100  0.22000  1.0000
  O   O8        1.0  0.70100  0.86000  0.22300  1.0000
  O   O9        1.0  0.10700  0.39800  0.26700  1.0000
  O   O10       1.0  0.04050  0.04560  0.32200  1.0000
  O   O11       1.0  0.37100  0.68600  0.38300  1.0000
  O   O12       1.0  0.89500  0.74900  0.39100  1.0000
  O   O13       1.0  0.41900  0.25800  0.41100  1.0000
  O   O14       1.0  0.81100  0.40000  0.43600  1.0000
  O   O15       1.0  0.69900  0.05240  0.43900  1.0000
  O   O16       1.0  0.30100  0.94800  0.56100  1.0000
  O   O17       1.0  0.18900  0.60000  0.56400  1.0000
  O   O18       1.0  0.58100  0.74200  0.58900  1.0000
  O   O19       1.0  0.10500  0.25100  0.60900  1.0000
  O   O20       1.0  0.62900  0.31400  0.61700  1.0000
  O   O21       1.0  0.95900  0.95400  0.67800  1.0000
  O   O22       1.0  0.89300  0.60200  0.73300  1.0000
  O   O23       1.0  0.29900  0.14000  0.77700  1.0000
  O   O24       1.0  0.51100  0.57900  0.78000  1.0000
  O   O25       1.0  0.74700  0.32400  0.82300  1.0000
  O   O26       1.0  0.65400  0.93200  0.85400  1.0000
  O   O27       1.0  0.26000  0.80200  0.87400  1.0000
  O   O28       1.0  0.18500  0.45500  0.90000  1.0000
  O   O29       1.0  0.05330  0.16200  0.96200  1.0000
  O   O30       1.0  0.44600  0.26200  0.99400  1.0000
  Si  Si1       1.0  0.75700  0.74100  0.08900  1.0000
  Si  Si2       1.0  0.50100  0.21900  0.12200  1.0000
  Si  Si3       1.0  0.29200  0.53900  0.25700  1.0000
  Si  Si4       1.0  0.84900  0.92500  0.34700  1.0000
  Si  Si5       1.0  0.63700  0.26900  0.47200  1.0000
  Si  Si6       1.0  0.36300  0.73100  0.52800  1.0000
  Si  Si7       1.0  0.15100  0.07550  0.65300  1.0000
  Si  Si8       1.0  0.70800  0.46100  0.74300  1.0000
  Si  Si9       1.0  0.49900  0.78100  0.87800  1.0000
  Si  Si10      1.0  0.24300  0.25900  0.91100  1.0000
  Zn  Zn1       1.0  0.19200  0.68900  0.01930  1.0000
  Zn  Zn2       1.0  0.80800  0.31100  0.98100  1.0000
