data_image0
_chemical_formula_structural       Bi8Cl28Se16
_chemical_formula_sum              "Bi8 Cl28 Se16"
_cell_length_a       10.6142
_cell_length_b       11.8864
_cell_length_c       13.7211
_cell_angle_alpha    75.6808
_cell_angle_beta     85.7871
_cell_angle_gamma    67.9466

_space_group_name_H-M_alt    "P 1"
_space_group_IT_number       1

loop_
  _space_group_symop_operation_xyz
  'x, y, z'

loop_
  _atom_site_type_symbol
  _atom_site_label
  _atom_site_symmetry_multiplicity
  _atom_site_fract_x
  _atom_site_fract_y
  _atom_site_fract_z
  _atom_site_occupancy
  Bi  Bi1       1.0  0.21300  0.95800  0.00389  1.0000
  Bi  Bi2       1.0  0.36000  0.15800  0.18300  1.0000
  Bi  Bi3       1.0  0.00119  0.83100  0.30700  1.0000
  Bi  Bi4       1.0  0.67800  0.05840  0.49100  1.0000
  Bi  Bi5       1.0  0.32200  0.94200  0.50900  1.0000
  Bi  Bi6       1.0  0.99900  0.16900  0.69300  1.0000
  Bi  Bi7       1.0  0.64000  0.84200  0.81700  1.0000
  Bi  Bi8       1.0  0.78700  0.04150  0.99600  1.0000
  Cl  Cl1       1.0  0.20100  0.22800  0.02730  1.0000
  Cl  Cl2       1.0  0.60300  0.20100  0.08770  1.0000
  Cl  Cl3       1.0  0.97600  0.06460  0.11200  1.0000
  Cl  Cl4       1.0  0.19000  0.76100  0.12300  1.0000
  Cl  Cl5       1.0  0.42400  0.91900  0.12800  1.0000
  Cl  Cl6       1.0  0.29500  0.39100  0.17700  1.0000
  Cl  Cl7       1.0  0.79900  0.85000  0.19700  1.0000
  Cl  Cl8       1.0  0.17200  0.12100  0.30300  1.0000
  Cl  Cl9       1.0  0.83000  0.09730  0.33900  1.0000
  Cl  Cl10      1.0  0.09480  0.59300  0.34000  1.0000
  Cl  Cl11      1.0  0.53300  0.98900  0.37000  1.0000
  Cl  Cl12      1.0  0.48500  0.27300  0.42700  1.0000
  Cl  Cl13      1.0  0.23500  0.79000  0.42700  1.0000
  Cl  Cl14      1.0  0.87000  0.79600  0.47100  1.0000
  Cl  Cl15      1.0  0.13000  0.20400  0.52900  1.0000
  Cl  Cl16      1.0  0.76500  0.21000  0.57300  1.0000
  Cl  Cl17      1.0  0.51500  0.72700  0.57300  1.0000
  Cl  Cl18      1.0  0.46700  0.01090  0.63000  1.0000
  Cl  Cl19      1.0  0.90500  0.40700  0.66000  1.0000
  Cl  Cl20      1.0  0.17000  0.90300  0.66100  1.0000
  Cl  Cl21      1.0  0.82800  0.87900  0.69700  1.0000
  Cl  Cl22      1.0  0.20100  0.15000  0.80300  1.0000
  Cl  Cl23      1.0  0.70500  0.60900  0.82300  1.0000
  Cl  Cl24      1.0  0.57600  0.08070  0.87200  1.0000
  Cl  Cl25      1.0  0.81000  0.23900  0.87700  1.0000
  Cl  Cl26      1.0  0.02440  0.93500  0.88800  1.0000
  Cl  Cl27      1.0  0.39700  0.79900  0.91200  1.0000
  Cl  Cl28      1.0  0.79900  0.77200  0.97300  1.0000
  Se  Se1       1.0  0.64100  0.53100  0.08020  1.0000
  Se  Se2       1.0  0.87200  0.39800  0.08330  1.0000
  Se  Se3       1.0  0.93700  0.48500  0.19800  1.0000
  Se  Se4       1.0  0.59200  0.41900  0.23600  1.0000
  Se  Se5       1.0  0.60400  0.69600  0.28800  1.0000
  Se  Se6       1.0  0.46100  0.58200  0.31300  1.0000
  Se  Se7       1.0  0.85500  0.38300  0.34300  1.0000
  Se  Se8       1.0  0.74600  0.54700  0.42300  1.0000
  Se  Se9       1.0  0.25400  0.45300  0.57700  1.0000
  Se  Se10      1.0  0.14500  0.61700  0.65700  1.0000
  Se  Se11      1.0  0.53900  0.41800  0.68700  1.0000
  Se  Se12      1.0  0.39600  0.30400  0.71200  1.0000
  Se  Se13      1.0  0.40800  0.58100  0.76400  1.0000
  Se  Se14      1.0  0.06260  0.51500  0.80200  1.0000
  Se  Se15      1.0  0.12800  0.60200  0.91700  1.0000
  Se  Se16      1.0  0.35900  0.46900  0.92000  1.0000
