data_image0
_chemical_formula_structural       Cd2Hg2O2Te2
_chemical_formula_sum              "Cd2 Hg2 O2 Te2"
_cell_length_a       3.86349
_cell_length_b       6.1519
_cell_length_c       7.42445
_cell_angle_alpha    90
_cell_angle_beta     74.9188
_cell_angle_gamma    90

_space_group_name_H-M_alt    "P 1"
_space_group_IT_number       1

loop_
  _space_group_symop_operation_xyz
  'x, y, z'

loop_
  _atom_site_type_symbol
  _atom_site_label
  _atom_site_symmetry_multiplicity
  _atom_site_fract_x
  _atom_site_fract_y
  _atom_site_fract_z
  _atom_site_occupancy
  Cd  Cd1       1.0  0.88700  0.25000  0.22700  1.0000
  Cd  Cd2       1.0  0.11300  0.75000  0.77300  1.0000
  Hg  Hg1       1.0  0.43200  0.75000  0.13700  1.0000
  Hg  Hg2       1.0  0.56800  0.25000  0.86300  1.0000
  O   O1        1.0  0.00000  0.00000  0.00000  1.0000
  O   O2        1.0  0.00000  0.50000  0.00000  1.0000
  Te  Te1       1.0  0.76500  0.75000  0.47000  1.0000
  Te  Te2       1.0  0.23500  0.25000  0.53000  1.0000
