data_image0
_chemical_formula_structural       Ga4O32P10Rb2
_chemical_formula_sum              "Ga4 O32 P10 Rb2"
_cell_length_a       7.32894
_cell_length_b       9.15758
_cell_length_c       10.0047
_cell_angle_alpha    90.0013
_cell_angle_beta     110.406
_cell_angle_gamma    89.9977

_space_group_name_H-M_alt    "P 1"
_space_group_IT_number       1

loop_
  _space_group_symop_operation_xyz
  'x, y, z'

loop_
  _atom_site_type_symbol
  _atom_site_label
  _atom_site_symmetry_multiplicity
  _atom_site_fract_x
  _atom_site_fract_y
  _atom_site_fract_z
  _atom_site_occupancy
  Ga  Ga1       1.0  0.66300  0.86300  0.01630  1.0000
  Ga  Ga2       1.0  0.21200  0.37100  0.12800  1.0000
  Ga  Ga3       1.0  0.16300  0.13700  0.51600  1.0000
  Ga  Ga4       1.0  0.71200  0.62900  0.62800  1.0000
  O   O1        1.0  0.72600  0.50800  0.03620  1.0000
  O   O2        1.0  0.06910  0.54100  0.04480  1.0000
  O   O3        1.0  0.86100  0.01730  0.06500  1.0000
  O   O4        1.0  0.48600  0.97200  0.08970  1.0000
  O   O5        1.0  0.45000  0.47600  0.12100  1.0000
  O   O6        1.0  0.99300  0.26900  0.14500  1.0000
  O   O7        1.0  0.37300  0.19400  0.18700  1.0000
  O   O8        1.0  0.77400  0.77400  0.21800  1.0000
  O   O9        1.0  0.72500  0.17200  0.21800  1.0000
  O   O10       1.0  0.28200  0.47100  0.30800  1.0000
  O   O11       1.0  0.05580  0.05670  0.32500  1.0000
  O   O12       1.0  0.88800  0.54500  0.35600  1.0000
  O   O13       1.0  0.64600  0.70800  0.42100  1.0000
  O   O14       1.0  0.96400  0.29600  0.47100  1.0000
  O   O15       1.0  0.35100  0.25000  0.47100  1.0000
  O   O16       1.0  0.99500  0.78600  0.47300  1.0000
  O   O17       1.0  0.22600  0.49200  0.53600  1.0000
  O   O18       1.0  0.56900  0.45900  0.54500  1.0000
  O   O19       1.0  0.36100  0.98300  0.56500  1.0000
  O   O20       1.0  0.98600  0.02850  0.59000  1.0000
  O   O21       1.0  0.95000  0.52400  0.62100  1.0000
  O   O22       1.0  0.49300  0.73100  0.64500  1.0000
  O   O23       1.0  0.87300  0.80600  0.68700  1.0000
  O   O24       1.0  0.27400  0.22600  0.71800  1.0000
  O   O25       1.0  0.22500  0.82800  0.71800  1.0000
  O   O26       1.0  0.78200  0.52900  0.80800  1.0000
  O   O27       1.0  0.55600  0.94300  0.82500  1.0000
  O   O28       1.0  0.38800  0.45500  0.85600  1.0000
  O   O29       1.0  0.14600  0.29200  0.92100  1.0000
  O   O30       1.0  0.46400  0.70400  0.97100  1.0000
  O   O31       1.0  0.85100  0.75000  0.97100  1.0000
  O   O32       1.0  0.49500  0.21400  0.97300  1.0000
  P   P1        1.0  0.50200  0.54300  0.00197  1.0000
  P   P2        1.0  0.51200  0.13400  0.12000  1.0000
  P   P3        1.0  0.92400  0.12700  0.18700  1.0000
  P   P4        1.0  0.80700  0.70800  0.36000  1.0000
  P   P5        1.0  0.36300  0.41400  0.45900  1.0000
  P   P6        1.0  0.00175  0.45700  0.50200  1.0000
  P   P7        1.0  0.01150  0.86600  0.62000  1.0000
  P   P8        1.0  0.42400  0.87300  0.68700  1.0000
  P   P9        1.0  0.30700  0.29200  0.86000  1.0000
  P   P10       1.0  0.86300  0.58600  0.95900  1.0000
  Rb  Rb1       1.0  0.24900  0.80100  0.22800  1.0000
  Rb  Rb2       1.0  0.74900  0.19900  0.72800  1.0000
