data_image0
_chemical_formula_structural       B4F36Sn12
_chemical_formula_sum              "B4 F36 Sn12"
_cell_length_a       10.0394
_cell_length_b       7.25783
_cell_length_c       10.1885
_cell_angle_alpha    90
_cell_angle_beta     98.6296
_cell_angle_gamma    90

_space_group_name_H-M_alt    "P 1"
_space_group_IT_number       1

loop_
  _space_group_symop_operation_xyz
  'x, y, z'

loop_
  _atom_site_type_symbol
  _atom_site_label
  _atom_site_symmetry_multiplicity
  _atom_site_fract_x
  _atom_site_fract_y
  _atom_site_fract_z
  _atom_site_occupancy
  B   B1        1.0  0.58400  0.08970  0.19800  1.0000
  B   B2        1.0  0.41600  0.59000  0.30200  1.0000
  B   B3        1.0  0.58400  0.41000  0.69800  1.0000
  B   B4        1.0  0.41600  0.91000  0.80200  1.0000
  F   F1        1.0  0.18300  0.23000  0.00760  1.0000
  F   F2        1.0  0.83700  0.40600  0.03610  1.0000
  F   F3        1.0  0.96600  0.09090  0.10200  1.0000
  F   F4        1.0  0.62000  0.24800  0.13200  1.0000
  F   F5        1.0  0.65500  0.93600  0.15800  1.0000
  F   F6        1.0  0.37900  0.61300  0.16300  1.0000
  F   F7        1.0  0.44500  0.06250  0.16900  1.0000
  F   F8        1.0  0.07400  0.75400  0.17800  1.0000
  F   F9        1.0  0.80700  0.61300  0.24100  1.0000
  F   F10       1.0  0.19300  0.11300  0.25900  1.0000
  F   F11       1.0  0.92600  0.25400  0.32200  1.0000
  F   F12       1.0  0.55500  0.56300  0.33100  1.0000
  F   F13       1.0  0.62100  0.11300  0.33700  1.0000
  F   F14       1.0  0.34500  0.43600  0.34200  1.0000
  F   F15       1.0  0.38000  0.74800  0.36800  1.0000
  F   F16       1.0  0.03420  0.59100  0.39800  1.0000
  F   F17       1.0  0.16300  0.90600  0.46400  1.0000
  F   F18       1.0  0.81700  0.73000  0.49200  1.0000
  F   F19       1.0  0.18300  0.27000  0.50800  1.0000
  F   F20       1.0  0.83700  0.09380  0.53600  1.0000
  F   F21       1.0  0.96600  0.40900  0.60200  1.0000
  F   F22       1.0  0.62000  0.25200  0.63200  1.0000
  F   F23       1.0  0.65500  0.56400  0.65800  1.0000
  F   F24       1.0  0.37900  0.88700  0.66300  1.0000
  F   F25       1.0  0.44500  0.43700  0.66900  1.0000
  F   F26       1.0  0.07400  0.74600  0.67800  1.0000
  F   F27       1.0  0.80700  0.88700  0.74100  1.0000
  F   F28       1.0  0.19300  0.38700  0.75900  1.0000
  F   F29       1.0  0.92600  0.24600  0.82200  1.0000
  F   F30       1.0  0.55500  0.93700  0.83100  1.0000
  F   F31       1.0  0.62100  0.38700  0.83700  1.0000
  F   F32       1.0  0.34500  0.06390  0.84200  1.0000
  F   F33       1.0  0.38000  0.75200  0.86800  1.0000
  F   F34       1.0  0.03420  0.90900  0.89800  1.0000
  F   F35       1.0  0.16300  0.59400  0.96400  1.0000
  F   F36       1.0  0.81700  0.77000  0.99200  1.0000
  Sn  Sn1       1.0  0.67100  0.59700  0.05980  1.0000
  Sn  Sn2       1.0  0.20400  0.90400  0.06120  1.0000
  Sn  Sn3       1.0  0.04860  0.36500  0.17900  1.0000
  Sn  Sn4       1.0  0.95100  0.86500  0.32100  1.0000
  Sn  Sn5       1.0  0.79600  0.40400  0.43900  1.0000
  Sn  Sn6       1.0  0.32900  0.09730  0.44000  1.0000
  Sn  Sn7       1.0  0.67100  0.90300  0.56000  1.0000
  Sn  Sn8       1.0  0.20400  0.59600  0.56100  1.0000
  Sn  Sn9       1.0  0.04860  0.13500  0.67900  1.0000
  Sn  Sn10      1.0  0.95100  0.63500  0.82100  1.0000
  Sn  Sn11      1.0  0.79600  0.09600  0.93900  1.0000
  Sn  Sn12      1.0  0.32900  0.40300  0.94000  1.0000
