data_image0
_chemical_formula_structural       Ag2B2C8F8H16N16
_chemical_formula_sum              "Ag2 B2 C8 F8 H16 N16"
_cell_length_a       5.32345
_cell_length_b       8.99362
_cell_length_c       10.7865
_cell_angle_alpha    91.5121
_cell_angle_beta     100.185
_cell_angle_gamma    92.6026

_space_group_name_H-M_alt    "P 1"
_space_group_IT_number       1

loop_
  _space_group_symop_operation_xyz
  'x, y, z'

loop_
  _atom_site_type_symbol
  _atom_site_label
  _atom_site_symmetry_multiplicity
  _atom_site_fract_x
  _atom_site_fract_y
  _atom_site_fract_z
  _atom_site_occupancy
  Ag  Ag1       1.0  0.48200  0.16200  0.49500  1.0000
  Ag  Ag2       1.0  0.51800  0.83800  0.50500  1.0000
  B   B1        1.0  0.10100  0.29700  0.01740  1.0000
  B   B2        1.0  0.89900  0.70300  0.98300  1.0000
  C   C1        1.0  0.57300  0.99300  0.20600  1.0000
  C   C2        1.0  0.61400  0.52700  0.32200  1.0000
  C   C3        1.0  0.94700  0.01570  0.34300  1.0000
  C   C4        1.0  0.97100  0.66200  0.42700  1.0000
  C   C5        1.0  0.02930  0.33800  0.57300  1.0000
  C   C6        1.0  0.05260  0.98400  0.65700  1.0000
  C   C7        1.0  0.38600  0.47300  0.67800  1.0000
  C   C8        1.0  0.42700  0.00706  0.79400  1.0000
  F   F1        1.0  0.88100  0.85900  0.00297  1.0000
  F   F2        1.0  0.35000  0.36400  0.02680  1.0000
  F   F3        1.0  0.06780  0.64700  0.08300  1.0000
  F   F4        1.0  0.01660  0.32400  0.13300  1.0000
  F   F5        1.0  0.98300  0.67600  0.86700  1.0000
  F   F6        1.0  0.93200  0.35300  0.91700  1.0000
  F   F7        1.0  0.65000  0.63600  0.97300  1.0000
  F   F8        1.0  0.11900  0.14100  0.99700  1.0000
  H   H1        1.0  0.50100  0.15800  0.07880  1.0000
  H   H2        1.0  0.21900  0.95400  0.09770  1.0000
  H   H3        1.0  0.57500  0.49600  0.13100  1.0000
  H   H4        1.0  0.79000  0.18100  0.18300  1.0000
  H   H5        1.0  0.85200  0.59600  0.20300  1.0000
  H   H6        1.0  0.31700  0.81800  0.20500  1.0000
  H   H7        1.0  0.28000  0.40700  0.25300  1.0000
  H   H8        1.0  0.33900  0.44500  0.41700  1.0000
  H   H9        1.0  0.66100  0.55500  0.58300  1.0000
  H   H10       1.0  0.72000  0.59300  0.74700  1.0000
  H   H11       1.0  0.68300  0.18200  0.79500  1.0000
  H   H12       1.0  0.14800  0.40400  0.79700  1.0000
  H   H13       1.0  0.21000  0.81900  0.81700  1.0000
  H   H14       1.0  0.42500  0.50400  0.86900  1.0000
  H   H15       1.0  0.78100  0.04630  0.90200  1.0000
  H   H16       1.0  0.49900  0.84200  0.92100  1.0000
  N   N1        1.0  0.62100  0.12200  0.15500  1.0000
  N   N2        1.0  0.36000  0.91200  0.16100  1.0000
  N   N3        1.0  0.68200  0.54400  0.21100  1.0000
  N   N4        1.0  0.73400  0.94000  0.30400  1.0000
  N   N5        1.0  0.40000  0.45000  0.33200  1.0000
  N   N6        1.0  0.14400  0.08070  0.38100  1.0000
  N   N7        1.0  0.75700  0.58900  0.43000  1.0000
  N   N8        1.0  0.16800  0.72900  0.43300  1.0000
  N   N9        1.0  0.83200  0.27100  0.56700  1.0000
  N   N10       1.0  0.24300  0.41100  0.57000  1.0000
  N   N11       1.0  0.85600  0.91900  0.61900  1.0000
  N   N12       1.0  0.60000  0.55000  0.66800  1.0000
  N   N13       1.0  0.26600  0.06000  0.69600  1.0000
  N   N14       1.0  0.31800  0.45600  0.78900  1.0000
  N   N15       1.0  0.64000  0.08850  0.83900  1.0000
  N   N16       1.0  0.37900  0.87800  0.84500  1.0000
