data_image0
_chemical_formula_structural       Al46V8
_chemical_formula_sum              "Al46 V8"
_cell_length_a       7.67262
_cell_length_b       7.6726
_cell_length_c       17.0285
_cell_angle_alpha    90
_cell_angle_beta     90
_cell_angle_gamma    120

_space_group_name_H-M_alt    "P 1"
_space_group_IT_number       1

loop_
  _space_group_symop_operation_xyz
  'x, y, z'

loop_
  _atom_site_type_symbol
  _atom_site_label
  _atom_site_symmetry_multiplicity
  _atom_site_fract_x
  _atom_site_fract_y
  _atom_site_fract_z
  _atom_site_occupancy
  Al  Al1       1.0  0.21100  0.42100  0.02950  1.0000
  Al  Al2       1.0  0.21100  0.78900  0.02950  1.0000
  Al  Al3       1.0  0.57900  0.78900  0.02950  1.0000
  Al  Al4       1.0  0.66700  0.33300  0.11600  1.0000
  Al  Al5       1.0  0.25000  0.12500  0.11700  1.0000
  Al  Al6       1.0  0.87500  0.12500  0.11700  1.0000
  Al  Al7       1.0  0.87500  0.75000  0.11700  1.0000
  Al  Al8       1.0  0.45900  0.91800  0.16600  1.0000
  Al  Al9       1.0  0.08180  0.54100  0.16600  1.0000
  Al  Al10      1.0  0.45900  0.54100  0.16600  1.0000
  Al  Al11      1.0  0.12600  0.25200  0.25000  1.0000
  Al  Al12      1.0  0.12600  0.87400  0.25000  1.0000
  Al  Al13      1.0  0.74800  0.87400  0.25000  1.0000
  Al  Al14      1.0  0.08180  0.54100  0.33400  1.0000
  Al  Al15      1.0  0.45900  0.54100  0.33400  1.0000
  Al  Al16      1.0  0.45900  0.91800  0.33400  1.0000
  Al  Al17      1.0  0.87500  0.75000  0.38300  1.0000
  Al  Al18      1.0  0.25000  0.12500  0.38300  1.0000
  Al  Al19      1.0  0.87500  0.12500  0.38300  1.0000
  Al  Al20      1.0  0.66700  0.33300  0.38400  1.0000
  Al  Al21      1.0  0.21100  0.78900  0.47000  1.0000
  Al  Al22      1.0  0.57900  0.78900  0.47000  1.0000
  Al  Al23      1.0  0.21100  0.42100  0.47000  1.0000
  Al  Al24      1.0  0.78900  0.57900  0.53000  1.0000
  Al  Al25      1.0  0.42100  0.21100  0.53000  1.0000
  Al  Al26      1.0  0.78900  0.21100  0.53000  1.0000
  Al  Al27      1.0  0.33300  0.66700  0.61600  1.0000
  Al  Al28      1.0  0.12500  0.87500  0.61700  1.0000
  Al  Al29      1.0  0.75000  0.87500  0.61700  1.0000
  Al  Al30      1.0  0.12500  0.25000  0.61700  1.0000
  Al  Al31      1.0  0.54100  0.08180  0.66600  1.0000
  Al  Al32      1.0  0.54100  0.45900  0.66600  1.0000
  Al  Al33      1.0  0.91800  0.45900  0.66600  1.0000
  Al  Al34      1.0  0.25200  0.12600  0.75000  1.0000
  Al  Al35      1.0  0.87400  0.12600  0.75000  1.0000
  Al  Al36      1.0  0.87400  0.74800  0.75000  1.0000
  Al  Al37      1.0  0.54100  0.45900  0.83400  1.0000
  Al  Al38      1.0  0.91800  0.45900  0.83400  1.0000
  Al  Al39      1.0  0.54100  0.08180  0.83400  1.0000
  Al  Al40      1.0  0.12500  0.25000  0.88300  1.0000
  Al  Al41      1.0  0.12500  0.87500  0.88300  1.0000
  Al  Al42      1.0  0.75000  0.87500  0.88300  1.0000
  Al  Al43      1.0  0.33300  0.66700  0.88400  1.0000
  Al  Al44      1.0  0.42100  0.21100  0.97000  1.0000
  Al  Al45      1.0  0.78900  0.21100  0.97000  1.0000
  Al  Al46      1.0  0.78900  0.57900  0.97000  1.0000
  V   V1        1.0  0.00000  0.00000  0.00000  1.0000
  V   V2        1.0  0.43900  0.21900  0.25000  1.0000
  V   V3        1.0  0.78100  0.21900  0.25000  1.0000
  V   V4        1.0  0.78100  0.56200  0.25000  1.0000
  V   V5        1.0  0.00000  0.00000  0.50000  1.0000
  V   V6        1.0  0.21900  0.43800  0.75000  1.0000
  V   V7        1.0  0.21900  0.78100  0.75000  1.0000
  V   V8        1.0  0.56100  0.78100  0.75000  1.0000
