data_image0
_chemical_formula_structural       C8CdH16K2O24Zr
_chemical_formula_sum              "C8 Cd1 H16 K2 O24 Zr1"
_cell_length_a       8.63285
_cell_length_b       8.9965
_cell_length_c       8.9965
_cell_angle_alpha    103.309
_cell_angle_beta     61.3283
_cell_angle_gamma    118.672

_space_group_name_H-M_alt    "P 1"
_space_group_IT_number       1

loop_
  _space_group_symop_operation_xyz
  'x, y, z'

loop_
  _atom_site_type_symbol
  _atom_site_label
  _atom_site_symmetry_multiplicity
  _atom_site_fract_x
  _atom_site_fract_y
  _atom_site_fract_z
  _atom_site_occupancy
  C   C1        1.0  0.79600  0.23500  0.22200  1.0000
  C   C2        1.0  0.98200  0.77800  0.23500  1.0000
  C   C3        1.0  0.76900  0.72300  0.27500  1.0000
  C   C4        1.0  0.95400  0.27500  0.27700  1.0000
  C   C5        1.0  0.95600  0.72500  0.72300  1.0000
  C   C6        1.0  0.32000  0.27700  0.72500  1.0000
  C   C7        1.0  0.43900  0.22200  0.76500  1.0000
  C   C8        1.0  0.78300  0.76500  0.77800  1.0000
  Cd  Cd1       1.0  0.00000  0.00000  0.00000  1.0000
  H   H1        1.0  0.36600  0.57700  0.07670  1.0000
  H   H2        1.0  0.53600  0.42400  0.07930  1.0000
  H   H3        1.0  0.52000  0.66300  0.15500  1.0000
  H   H4        1.0  0.60600  0.34900  0.16600  1.0000
  H   H5        1.0  0.14300  0.15500  0.33700  1.0000
  H   H6        1.0  0.22800  0.83400  0.34900  1.0000
  H   H7        1.0  0.21100  0.07670  0.42300  1.0000
  H   H8        1.0  0.38500  0.92100  0.42400  1.0000
  H   H9        1.0  0.88800  0.07930  0.57600  1.0000
  H   H10       1.0  0.55700  0.92300  0.57700  1.0000
  H   H11       1.0  0.74300  0.16600  0.65100  1.0000
  H   H12       1.0  0.32500  0.84500  0.66300  1.0000
  H   H13       1.0  0.42300  0.65100  0.83400  1.0000
  H   H14       1.0  0.01230  0.33700  0.84500  1.0000
  H   H15       1.0  0.19100  0.57600  0.92100  1.0000
  H   H16       1.0  0.86500  0.42300  0.92300  1.0000
  K   K1        1.0  0.50000  0.00000  0.00000  1.0000
  K   K2        1.0  0.25000  0.50000  0.50000  1.0000
  O   O1        1.0  0.61400  0.36100  0.05610  1.0000
  O   O2        1.0  0.78100  0.13500  0.10400  1.0000
  O   O3        1.0  0.11500  0.89600  0.13500  1.0000
  O   O4        1.0  0.41600  0.55400  0.14400  1.0000
  O   O5        1.0  0.72900  0.79500  0.20300  1.0000
  O   O6        1.0  0.06550  0.20300  0.20500  1.0000
  O   O7        1.0  0.68700  0.31400  0.30700  1.0000
  O   O8        1.0  0.00553  0.69300  0.31400  1.0000
  O   O9        1.0  0.33000  0.94400  0.36100  1.0000
  O   O10       1.0  0.64500  0.60400  0.38300  1.0000
  O   O11       1.0  0.95900  0.38300  0.39600  1.0000
  O   O12       1.0  0.13800  0.14400  0.44600  1.0000
  O   O13       1.0  0.44000  0.85600  0.55400  1.0000
  O   O14       1.0  0.97200  0.61700  0.60400  1.0000
  O   O15       1.0  0.42400  0.39600  0.61700  1.0000
  O   O16       1.0  0.74700  0.05610  0.63900  1.0000
  O   O17       1.0  0.62700  0.30700  0.68600  1.0000
  O   O18       1.0  0.68100  0.68600  0.69300  1.0000
  O   O19       1.0  0.06780  0.79700  0.79500  1.0000
  O   O20       1.0  0.13700  0.20500  0.79700  1.0000
  O   O21       1.0  0.00583  0.44600  0.85600  1.0000
  O   O22       1.0  0.35400  0.10400  0.86500  1.0000
  O   O23       1.0  0.75100  0.86500  0.89600  1.0000
  O   O24       1.0  0.30900  0.63900  0.94400  1.0000
  Zr  Zr1       1.0  0.75000  0.50000  0.50000  1.0000
