data_image0
_chemical_formula_structural       H28N8O12Ru2S4
_chemical_formula_sum              "H28 N8 O12 Ru2 S4"
_cell_length_a       6.05827
_cell_length_b       6.79288
_cell_length_c       10.4065
_cell_angle_alpha    90
_cell_angle_beta     96.5177
_cell_angle_gamma    90

_space_group_name_H-M_alt    "P 1"
_space_group_IT_number       1

loop_
  _space_group_symop_operation_xyz
  'x, y, z'

loop_
  _atom_site_type_symbol
  _atom_site_label
  _atom_site_symmetry_multiplicity
  _atom_site_fract_x
  _atom_site_fract_y
  _atom_site_fract_z
  _atom_site_occupancy
  H   H1        1.0  0.37200  0.22000  0.01810  1.0000
  H   H2        1.0  0.87300  0.47400  0.09260  1.0000
  H   H3        1.0  0.20900  0.32000  0.11700  1.0000
  H   H4        1.0  0.34400  0.11700  0.16100  1.0000
  H   H5        1.0  0.69500  0.97900  0.16900  1.0000
  H   H6        1.0  0.91900  0.87000  0.23400  1.0000
  H   H7        1.0  0.91000  0.11000  0.24000  1.0000
  H   H8        1.0  0.59000  0.61000  0.26000  1.0000
  H   H9        1.0  0.58100  0.37000  0.26600  1.0000
  H   H10       1.0  0.80500  0.47900  0.33100  1.0000
  H   H11       1.0  0.15600  0.61700  0.33900  1.0000
  H   H12       1.0  0.29100  0.82000  0.38300  1.0000
  H   H13       1.0  0.62700  0.97400  0.40700  1.0000
  H   H14       1.0  0.12800  0.72000  0.48200  1.0000
  H   H15       1.0  0.87200  0.28000  0.51800  1.0000
  H   H16       1.0  0.37300  0.02590  0.59300  1.0000
  H   H17       1.0  0.70900  0.18000  0.61700  1.0000
  H   H18       1.0  0.84400  0.38300  0.66100  1.0000
  H   H19       1.0  0.19500  0.52100  0.66900  1.0000
  H   H20       1.0  0.41900  0.63000  0.73400  1.0000
  H   H21       1.0  0.41000  0.39000  0.74000  1.0000
  H   H22       1.0  0.09000  0.89000  0.76000  1.0000
  H   H23       1.0  0.08090  0.13000  0.76600  1.0000
  H   H24       1.0  0.30500  0.02110  0.83100  1.0000
  H   H25       1.0  0.65600  0.88300  0.83900  1.0000
  H   H26       1.0  0.79100  0.68000  0.88300  1.0000
  H   H27       1.0  0.12700  0.52600  0.90700  1.0000
  H   H28       1.0  0.62800  0.78000  0.98200  1.0000
  N   N1        1.0  0.26100  0.18800  0.08310  1.0000
  N   N2        1.0  0.86500  0.99100  0.18100  1.0000
  N   N3        1.0  0.63500  0.49100  0.31900  1.0000
  N   N4        1.0  0.23900  0.68800  0.41700  1.0000
  N   N5        1.0  0.76100  0.31200  0.58300  1.0000
  N   N6        1.0  0.36500  0.50900  0.68100  1.0000
  N   N7        1.0  0.13500  0.00900  0.81900  1.0000
  N   N8        1.0  0.73900  0.81200  0.91700  1.0000
  O   O1        1.0  0.73500  0.39600  0.05900  1.0000
  O   O2        1.0  0.43600  0.78000  0.12700  1.0000
  O   O3        1.0  0.09560  0.59100  0.14500  1.0000
  O   O4        1.0  0.40400  0.09130  0.35500  1.0000
  O   O5        1.0  0.06400  0.28000  0.37300  1.0000
  O   O6        1.0  0.76500  0.89600  0.44100  1.0000
  O   O7        1.0  0.23500  0.10400  0.55900  1.0000
  O   O8        1.0  0.93600  0.72000  0.62700  1.0000
  O   O9        1.0  0.59600  0.90900  0.64500  1.0000
  O   O10       1.0  0.90400  0.40900  0.85500  1.0000
  O   O11       1.0  0.56400  0.22000  0.87300  1.0000
  O   O12       1.0  0.26500  0.60400  0.94100  1.0000
  Ru  Ru1       1.0  0.00000  0.00000  0.00000  1.0000
  Ru  Ru2       1.0  0.50000  0.50000  0.50000  1.0000
  S   S1        1.0  0.20900  0.73700  0.06350  1.0000
  S   S2        1.0  0.29100  0.23700  0.43700  1.0000
  S   S3        1.0  0.70900  0.76300  0.56300  1.0000
  S   S4        1.0  0.79100  0.26300  0.93700  1.0000
