data_image0
_chemical_formula_structural       K4Nb8O34P4Si
_chemical_formula_sum              "K4 Nb8 O34 P4 Si1"
_cell_length_a       10.587
_cell_length_b       10.587
_cell_length_c       6.42598
_cell_angle_alpha    90
_cell_angle_beta     90
_cell_angle_gamma    90

_space_group_name_H-M_alt    "P 1"
_space_group_IT_number       1

loop_
  _space_group_symop_operation_xyz
  'x, y, z'

loop_
  _atom_site_type_symbol
  _atom_site_label
  _atom_site_symmetry_multiplicity
  _atom_site_fract_x
  _atom_site_fract_y
  _atom_site_fract_z
  _atom_site_occupancy
  K   K1        1.0  0.00000  0.50000  0.30300  1.0000
  K   K2        1.0  0.00000  0.00000  0.50000  1.0000
  K   K3        1.0  0.50000  0.50000  0.50000  1.0000
  K   K4        1.0  0.50000  0.00000  0.69700  1.0000
  Nb  Nb1       1.0  0.17700  0.17700  0.00000  1.0000
  Nb  Nb2       1.0  0.82300  0.17700  0.00000  1.0000
  Nb  Nb3       1.0  0.17700  0.82300  0.00000  1.0000
  Nb  Nb4       1.0  0.82300  0.82300  0.00000  1.0000
  Nb  Nb5       1.0  0.50000  0.18600  0.19600  1.0000
  Nb  Nb6       1.0  0.50000  0.81400  0.19600  1.0000
  Nb  Nb7       1.0  0.18600  0.50000  0.80400  1.0000
  Nb  Nb8       1.0  0.81400  0.50000  0.80400  1.0000
  O   O1        1.0  0.36400  0.17100  0.00573  1.0000
  O   O2        1.0  0.63600  0.17100  0.00573  1.0000
  O   O3        1.0  0.36400  0.82900  0.00573  1.0000
  O   O4        1.0  0.63600  0.82900  0.00573  1.0000
  O   O5        1.0  0.17200  0.00000  0.06380  1.0000
  O   O6        1.0  0.82800  0.00000  0.06380  1.0000
  O   O7        1.0  0.50000  0.37400  0.15000  1.0000
  O   O8        1.0  0.50000  0.62600  0.15000  1.0000
  O   O9        1.0  0.50000  0.00000  0.25300  1.0000
  O   O10       1.0  0.15400  0.19900  0.31500  1.0000
  O   O11       1.0  0.84600  0.19900  0.31500  1.0000
  O   O12       1.0  0.15400  0.80100  0.31500  1.0000
  O   O13       1.0  0.84600  0.80100  0.31500  1.0000
  O   O14       1.0  0.37800  0.21400  0.45200  1.0000
  O   O15       1.0  0.62200  0.21400  0.45200  1.0000
  O   O16       1.0  0.37800  0.78600  0.45200  1.0000
  O   O17       1.0  0.62200  0.78600  0.45200  1.0000
  O   O18       1.0  0.21400  0.37800  0.54800  1.0000
  O   O19       1.0  0.78600  0.37800  0.54800  1.0000
  O   O20       1.0  0.21400  0.62200  0.54800  1.0000
  O   O21       1.0  0.78600  0.62200  0.54800  1.0000
  O   O22       1.0  0.19900  0.15400  0.68500  1.0000
  O   O23       1.0  0.80100  0.15400  0.68500  1.0000
  O   O24       1.0  0.19900  0.84600  0.68500  1.0000
  O   O25       1.0  0.80100  0.84600  0.68500  1.0000
  O   O26       1.0  0.00000  0.50000  0.74700  1.0000
  O   O27       1.0  0.37400  0.50000  0.85000  1.0000
  O   O28       1.0  0.62600  0.50000  0.85000  1.0000
  O   O29       1.0  0.00000  0.17200  0.93600  1.0000
  O   O30       1.0  0.00000  0.82800  0.93600  1.0000
  O   O31       1.0  0.17100  0.36400  0.99400  1.0000
  O   O32       1.0  0.82900  0.36400  0.99400  1.0000
  O   O33       1.0  0.17100  0.63600  0.99400  1.0000
  O   O34       1.0  0.82900  0.63600  0.99400  1.0000
  P   P1        1.0  0.23800  0.23800  0.50000  1.0000
  P   P2        1.0  0.76200  0.23800  0.50000  1.0000
  P   P3        1.0  0.23800  0.76200  0.50000  1.0000
  P   P4        1.0  0.76200  0.76200  0.50000  1.0000
  Si  Si1       1.0  0.50000  0.50000  0.00000  1.0000
