data_image0
_chemical_formula_structural       F44Pt4Xe4
_chemical_formula_sum              "F44 Pt4 Xe4"
_cell_length_a       7.53453
_cell_length_b       15.9003
_cell_length_c       5.25339
_cell_angle_alpha    90
_cell_angle_beta     90
_cell_angle_gamma    90

_space_group_name_H-M_alt    "P 1"
_space_group_IT_number       1

loop_
  _space_group_symop_operation_xyz
  'x, y, z'

loop_
  _atom_site_type_symbol
  _atom_site_label
  _atom_site_symmetry_multiplicity
  _atom_site_fract_x
  _atom_site_fract_y
  _atom_site_fract_z
  _atom_site_occupancy
  F   F1        1.0  0.75000  0.00316  0.04180  1.0000
  F   F2        1.0  0.57000  0.69800  0.06950  1.0000
  F   F3        1.0  0.93000  0.69800  0.06950  1.0000
  F   F4        1.0  0.06810  0.85000  0.07980  1.0000
  F   F5        1.0  0.43200  0.85000  0.07980  1.0000
  F   F6        1.0  0.25000  0.43200  0.08470  1.0000
  F   F7        1.0  0.75000  0.27200  0.09660  1.0000
  F   F8        1.0  0.75000  0.40700  0.11900  1.0000
  F   F9        1.0  0.25000  0.15600  0.14300  1.0000
  F   F10       1.0  0.50300  0.54200  0.21200  1.0000
  F   F11       1.0  0.99700  0.54200  0.21200  1.0000
  F   F12       1.0  0.50300  0.04200  0.28800  1.0000
  F   F13       1.0  0.99700  0.04200  0.28800  1.0000
  F   F14       1.0  0.25000  0.65600  0.35700  1.0000
  F   F15       1.0  0.75000  0.90700  0.38100  1.0000
  F   F16       1.0  0.75000  0.77200  0.40300  1.0000
  F   F17       1.0  0.25000  0.93200  0.41500  1.0000
  F   F18       1.0  0.06810  0.35000  0.42000  1.0000
  F   F19       1.0  0.43200  0.35000  0.42000  1.0000
  F   F20       1.0  0.57000  0.19800  0.43100  1.0000
  F   F21       1.0  0.93000  0.19800  0.43100  1.0000
  F   F22       1.0  0.75000  0.50300  0.45800  1.0000
  F   F23       1.0  0.25000  0.49700  0.54200  1.0000
  F   F24       1.0  0.06970  0.80200  0.56900  1.0000
  F   F25       1.0  0.43000  0.80200  0.56900  1.0000
  F   F26       1.0  0.56800  0.65000  0.58000  1.0000
  F   F27       1.0  0.93200  0.65000  0.58000  1.0000
  F   F28       1.0  0.75000  0.06760  0.58500  1.0000
  F   F29       1.0  0.25000  0.22800  0.59700  1.0000
  F   F30       1.0  0.25000  0.09290  0.61900  1.0000
  F   F31       1.0  0.75000  0.34400  0.64300  1.0000
  F   F32       1.0  0.00310  0.95800  0.71200  1.0000
  F   F33       1.0  0.49700  0.95800  0.71200  1.0000
  F   F34       1.0  0.00310  0.45800  0.78800  1.0000
  F   F35       1.0  0.49700  0.45800  0.78800  1.0000
  F   F36       1.0  0.75000  0.84400  0.85700  1.0000
  F   F37       1.0  0.25000  0.59300  0.88100  1.0000
  F   F38       1.0  0.25000  0.72800  0.90300  1.0000
  F   F39       1.0  0.75000  0.56800  0.91500  1.0000
  F   F40       1.0  0.56800  0.15000  0.92000  1.0000
  F   F41       1.0  0.93200  0.15000  0.92000  1.0000
  F   F42       1.0  0.06970  0.30200  0.93100  1.0000
  F   F43       1.0  0.43000  0.30200  0.93100  1.0000
  F   F44       1.0  0.25000  0.99700  0.95800  1.0000
  Pt  Pt1       1.0  0.25000  0.54700  0.21100  1.0000
  Pt  Pt2       1.0  0.25000  0.04690  0.28900  1.0000
  Pt  Pt3       1.0  0.75000  0.95300  0.71100  1.0000
  Pt  Pt4       1.0  0.75000  0.45300  0.78900  1.0000
  Xe  Xe1       1.0  0.75000  0.15300  0.19300  1.0000
  Xe  Xe2       1.0  0.75000  0.65300  0.30700  1.0000
  Xe  Xe3       1.0  0.25000  0.34700  0.69300  1.0000
  Xe  Xe4       1.0  0.25000  0.84700  0.80700  1.0000
