data_image0
_chemical_formula_structural       Na8Si46
_chemical_formula_sum              "Na8 Si46"
_cell_length_a       10.2173
_cell_length_b       10.2173
_cell_length_c       10.2173
_cell_angle_alpha    90
_cell_angle_beta     90
_cell_angle_gamma    90

_space_group_name_H-M_alt    "P 1"
_space_group_IT_number       1

loop_
  _space_group_symop_operation_xyz
  'x, y, z'

loop_
  _atom_site_type_symbol
  _atom_site_label
  _atom_site_symmetry_multiplicity
  _atom_site_fract_x
  _atom_site_fract_y
  _atom_site_fract_z
  _atom_site_occupancy
  Na  Na1       1.0  0.00000  0.00000  0.00000  1.0000
  Na  Na2       1.0  0.25000  0.50000  0.00000  1.0000
  Na  Na3       1.0  0.75000  0.50000  0.00000  1.0000
  Na  Na4       1.0  0.50000  0.00000  0.25000  1.0000
  Na  Na5       1.0  0.00000  0.25000  0.50000  1.0000
  Na  Na6       1.0  0.50000  0.50000  0.50000  1.0000
  Na  Na7       1.0  0.00000  0.75000  0.50000  1.0000
  Na  Na8       1.0  0.50000  0.00000  0.75000  1.0000
  Si  Si1       1.0  0.30800  0.11700  0.00000  1.0000
  Si  Si2       1.0  0.69200  0.11700  0.00000  1.0000
  Si  Si3       1.0  0.50000  0.25000  0.00000  1.0000
  Si  Si4       1.0  0.50000  0.75000  0.00000  1.0000
  Si  Si5       1.0  0.30800  0.88300  0.00000  1.0000
  Si  Si6       1.0  0.69200  0.88300  0.00000  1.0000
  Si  Si7       1.0  0.00000  0.30800  0.11700  1.0000
  Si  Si8       1.0  0.00000  0.69200  0.11700  1.0000
  Si  Si9       1.0  0.18400  0.18400  0.18400  1.0000
  Si  Si10      1.0  0.81600  0.18400  0.18400  1.0000
  Si  Si11      1.0  0.18400  0.81600  0.18400  1.0000
  Si  Si12      1.0  0.81600  0.81600  0.18400  1.0000
  Si  Si13      1.0  0.50000  0.38300  0.19200  1.0000
  Si  Si14      1.0  0.50000  0.61700  0.19200  1.0000
  Si  Si15      1.0  0.00000  0.50000  0.25000  1.0000
  Si  Si16      1.0  0.11700  0.00000  0.30800  1.0000
  Si  Si17      1.0  0.88300  0.00000  0.30800  1.0000
  Si  Si18      1.0  0.31600  0.31600  0.31600  1.0000
  Si  Si19      1.0  0.68400  0.31600  0.31600  1.0000
  Si  Si20      1.0  0.31600  0.68400  0.31600  1.0000
  Si  Si21      1.0  0.68400  0.68400  0.31600  1.0000
  Si  Si22      1.0  0.19200  0.50000  0.38300  1.0000
  Si  Si23      1.0  0.80800  0.50000  0.38300  1.0000
  Si  Si24      1.0  0.25000  0.00000  0.50000  1.0000
  Si  Si25      1.0  0.75000  0.00000  0.50000  1.0000
  Si  Si26      1.0  0.38300  0.19200  0.50000  1.0000
  Si  Si27      1.0  0.61700  0.19200  0.50000  1.0000
  Si  Si28      1.0  0.38300  0.80800  0.50000  1.0000
  Si  Si29      1.0  0.61700  0.80800  0.50000  1.0000
  Si  Si30      1.0  0.19200  0.50000  0.61700  1.0000
  Si  Si31      1.0  0.80800  0.50000  0.61700  1.0000
  Si  Si32      1.0  0.31600  0.31600  0.68400  1.0000
  Si  Si33      1.0  0.68400  0.31600  0.68400  1.0000
  Si  Si34      1.0  0.31600  0.68400  0.68400  1.0000
  Si  Si35      1.0  0.68400  0.68400  0.68400  1.0000
  Si  Si36      1.0  0.11700  0.00000  0.69200  1.0000
  Si  Si37      1.0  0.88300  0.00000  0.69200  1.0000
  Si  Si38      1.0  0.00000  0.50000  0.75000  1.0000
  Si  Si39      1.0  0.50000  0.38300  0.80800  1.0000
  Si  Si40      1.0  0.50000  0.61700  0.80800  1.0000
  Si  Si41      1.0  0.18400  0.18400  0.81600  1.0000
  Si  Si42      1.0  0.81600  0.18400  0.81600  1.0000
  Si  Si43      1.0  0.18400  0.81600  0.81600  1.0000
  Si  Si44      1.0  0.81600  0.81600  0.81600  1.0000
  Si  Si45      1.0  0.00000  0.30800  0.88300  1.0000
  Si  Si46      1.0  0.00000  0.69200  0.88300  1.0000
