data_image0
_chemical_formula_structural       Al4Ca2H12O26Si6
_chemical_formula_sum              "Al4 Ca2 H12 O26 Si6"
_cell_length_a       6.46271
_cell_length_b       9.69226
_cell_length_c       9.94154
_cell_angle_alpha    96.1652
_cell_angle_beta     108.968
_cell_angle_gamma    70.7063

_space_group_name_H-M_alt    "P 1"
_space_group_IT_number       1

loop_
  _space_group_symop_operation_xyz
  'x, y, z'

loop_
  _atom_site_type_symbol
  _atom_site_label
  _atom_site_symmetry_multiplicity
  _atom_site_fract_x
  _atom_site_fract_y
  _atom_site_fract_z
  _atom_site_occupancy
  Al  Al1       1.0  0.67600  0.05860  0.18800  1.0000
  Al  Al2       1.0  0.73800  0.55900  0.31200  1.0000
  Al  Al3       1.0  0.00022  0.40200  0.67600  1.0000
  Al  Al4       1.0  0.57500  0.90200  0.82400  1.0000
  Ca  Ca1       1.0  0.40500  0.44700  0.03060  1.0000
  Ca  Ca2       1.0  0.62500  0.94700  0.46900  1.0000
  H   H1        1.0  0.93100  0.63200  0.03380  1.0000
  H   H2        1.0  0.05800  0.55200  0.18400  1.0000
  H   H3        1.0  0.12400  0.05170  0.31600  1.0000
  H   H4        1.0  0.14700  0.13200  0.46600  1.0000
  H   H5        1.0  0.13200  0.81300  0.56700  1.0000
  H   H6        1.0  0.54600  0.23300  0.63300  1.0000
  H   H7        1.0  0.09040  0.95800  0.65800  1.0000
  H   H8        1.0  0.69600  0.10100  0.74600  1.0000
  H   H9        1.0  0.20000  0.60100  0.75400  1.0000
  H   H10       1.0  0.68200  0.45800  0.84200  1.0000
  H   H11       1.0  0.16300  0.73300  0.86700  1.0000
  H   H12       1.0  0.81500  0.31300  0.93300  1.0000
  O   O1        1.0  0.23400  0.86400  0.02040  1.0000
  O   O2        1.0  0.47000  0.18000  0.05330  1.0000
  O   O3        1.0  0.07760  0.56600  0.09180  1.0000
  O   O4        1.0  0.57500  0.63300  0.14400  1.0000
  O   O5        1.0  0.94400  0.02120  0.16100  1.0000
  O   O6        1.0  0.60900  0.90100  0.21000  1.0000
  O   O7        1.0  0.64900  0.40100  0.29000  1.0000
  O   O8        1.0  0.03260  0.52100  0.33900  1.0000
  O   O9        1.0  0.68000  0.13300  0.35600  1.0000
  O   O10       1.0  0.23600  0.06570  0.40800  1.0000
  O   O11       1.0  0.66700  0.68000  0.44700  1.0000
  O   O12       1.0  0.46400  0.36400  0.48000  1.0000
  O   O13       1.0  0.31800  0.65300  0.51700  1.0000
  O   O14       1.0  0.92600  0.27800  0.54200  1.0000
  O   O15       1.0  0.01430  0.89000  0.60000  1.0000
  O   O16       1.0  0.16900  0.48000  0.62100  1.0000
  O   O17       1.0  0.61500  0.12800  0.64400  1.0000
  O   O18       1.0  0.55700  0.82900  0.65500  1.0000
  O   O19       1.0  0.74600  0.53500  0.68900  1.0000
  O   O20       1.0  0.30700  0.03550  0.81100  1.0000
  O   O21       1.0  0.15200  0.32900  0.84500  1.0000
  O   O22       1.0  0.22100  0.62800  0.85600  1.0000
  O   O23       1.0  0.79700  0.98000  0.87900  1.0000
  O   O24       1.0  0.66400  0.39000  0.90000  1.0000
  O   O25       1.0  0.63400  0.77800  0.95800  1.0000
  O   O26       1.0  0.05090  0.15300  0.98300  1.0000
  Si  Si1       1.0  0.00459  0.00262  0.01300  1.0000
  Si  Si2       1.0  0.51600  0.79400  0.08290  1.0000
  Si  Si3       1.0  0.68300  0.29400  0.41700  1.0000
  Si  Si4       1.0  0.24200  0.50300  0.48700  1.0000
  Si  Si5       1.0  0.58000  0.66900  0.58200  1.0000
  Si  Si6       1.0  0.24900  0.16900  0.91800  1.0000
