data_image0
_chemical_formula_structural       F32N8O8Re4
_chemical_formula_sum              "F32 N8 O8 Re4"
_cell_length_a       8.43711
_cell_length_b       5.54615
_cell_length_c       11.5842
_cell_angle_alpha    90
_cell_angle_beta     90
_cell_angle_gamma    90

_space_group_name_H-M_alt    "P 1"
_space_group_IT_number       1

loop_
  _space_group_symop_operation_xyz
  'x, y, z'

loop_
  _atom_site_type_symbol
  _atom_site_label
  _atom_site_symmetry_multiplicity
  _atom_site_fract_x
  _atom_site_fract_y
  _atom_site_fract_z
  _atom_site_occupancy
  F   F1        1.0  0.28700  0.25000  0.03270  1.0000
  F   F2        1.0  0.87300  0.03220  0.06000  1.0000
  F   F3        1.0  0.87300  0.46800  0.06000  1.0000
  F   F4        1.0  0.59300  0.53400  0.12000  1.0000
  F   F5        1.0  0.59300  0.96600  0.12000  1.0000
  F   F6        1.0  0.99400  0.75000  0.17700  1.0000
  F   F7        1.0  0.28400  0.53100  0.23800  1.0000
  F   F8        1.0  0.28400  0.96900  0.23800  1.0000
  F   F9        1.0  0.78400  0.53100  0.26200  1.0000
  F   F10       1.0  0.78400  0.96900  0.26200  1.0000
  F   F11       1.0  0.49400  0.75000  0.32300  1.0000
  F   F12       1.0  0.09330  0.53400  0.38000  1.0000
  F   F13       1.0  0.09330  0.96600  0.38000  1.0000
  F   F14       1.0  0.37300  0.03220  0.44000  1.0000
  F   F15       1.0  0.37300  0.46800  0.44000  1.0000
  F   F16       1.0  0.78700  0.25000  0.46700  1.0000
  F   F17       1.0  0.21300  0.75000  0.53300  1.0000
  F   F18       1.0  0.62700  0.53200  0.56000  1.0000
  F   F19       1.0  0.62700  0.96800  0.56000  1.0000
  F   F20       1.0  0.90700  0.03410  0.62000  1.0000
  F   F21       1.0  0.90700  0.46600  0.62000  1.0000
  F   F22       1.0  0.50600  0.25000  0.67700  1.0000
  F   F23       1.0  0.21600  0.03130  0.73800  1.0000
  F   F24       1.0  0.21600  0.46900  0.73800  1.0000
  F   F25       1.0  0.71600  0.03130  0.76200  1.0000
  F   F26       1.0  0.71600  0.46900  0.76200  1.0000
  F   F27       1.0  0.00602  0.25000  0.82300  1.0000
  F   F28       1.0  0.40700  0.03410  0.88000  1.0000
  F   F29       1.0  0.40700  0.46600  0.88000  1.0000
  F   F30       1.0  0.12700  0.53200  0.94000  1.0000
  F   F31       1.0  0.12700  0.96800  0.94000  1.0000
  F   F32       1.0  0.71300  0.75000  0.96700  1.0000
  N   N1        1.0  0.26000  0.75000  0.07060  1.0000
  N   N2        1.0  0.48900  0.25000  0.23000  1.0000
  N   N3        1.0  0.98900  0.25000  0.27000  1.0000
  N   N4        1.0  0.76000  0.75000  0.42900  1.0000
  N   N5        1.0  0.24000  0.25000  0.57100  1.0000
  N   N6        1.0  0.01110  0.75000  0.73000  1.0000
  N   N7        1.0  0.51100  0.75000  0.77000  1.0000
  N   N8        1.0  0.74000  0.25000  0.92900  1.0000
  O   O1        1.0  0.38100  0.75000  0.03490  1.0000
  O   O2        1.0  0.05560  0.25000  0.18800  1.0000
  O   O3        1.0  0.55600  0.25000  0.31200  1.0000
  O   O4        1.0  0.88100  0.75000  0.46500  1.0000
  O   O5        1.0  0.11900  0.25000  0.53500  1.0000
  O   O6        1.0  0.44400  0.75000  0.68800  1.0000
  O   O7        1.0  0.94400  0.75000  0.81200  1.0000
  O   O8        1.0  0.61900  0.25000  0.96500  1.0000
  Re  Re1       1.0  0.77800  0.75000  0.12700  1.0000
  Re  Re2       1.0  0.27800  0.75000  0.37300  1.0000
  Re  Re3       1.0  0.72200  0.25000  0.62700  1.0000
  Re  Re4       1.0  0.22200  0.25000  0.87300  1.0000
