data_image0
_chemical_formula_structural       Ga8Na8Si38
_chemical_formula_sum              "Ga8 Na8 Si38"
_cell_length_a       10.3915
_cell_length_b       10.3689
_cell_length_c       10.4076
_cell_angle_alpha    89.8752
_cell_angle_beta     89.9322
_cell_angle_gamma    89.8141

_space_group_name_H-M_alt    "P 1"
_space_group_IT_number       1

loop_
  _space_group_symop_operation_xyz
  'x, y, z'

loop_
  _atom_site_type_symbol
  _atom_site_label
  _atom_site_symmetry_multiplicity
  _atom_site_fract_x
  _atom_site_fract_y
  _atom_site_fract_z
  _atom_site_occupancy
  Ga  Ga1       1.0  0.69000  0.99800  0.11700  1.0000
  Ga  Ga2       1.0  0.00022  0.11700  0.31200  1.0000
  Ga  Ga3       1.0  0.50000  0.18900  0.38300  1.0000
  Ga  Ga4       1.0  0.00115  0.74600  0.50100  1.0000
  Ga  Ga5       1.0  0.49900  0.00000  0.75100  1.0000
  Ga  Ga6       1.0  0.61600  0.50200  0.80900  1.0000
  Ga  Ga7       1.0  0.88200  0.69100  0.99700  1.0000
  Ga  Ga8       1.0  0.25100  0.50000  0.99900  1.0000
  Na  Na1       1.0  0.99100  0.99400  0.00789  1.0000
  Na  Na2       1.0  0.98700  0.51000  0.23600  1.0000
  Na  Na3       1.0  0.25500  0.00485  0.48700  1.0000
  Na  Na4       1.0  0.74900  0.99800  0.49900  1.0000
  Na  Na5       1.0  0.50200  0.49600  0.50500  1.0000
  Na  Na6       1.0  0.99800  0.51300  0.75900  1.0000
  Na  Na7       1.0  0.51100  0.75500  0.99300  1.0000
  Na  Na8       1.0  0.51500  0.25100  0.99600  1.0000
  Si  Si1       1.0  0.74800  0.49600  0.00359  1.0000
  Si  Si2       1.0  0.30300  0.00000  0.12000  1.0000
  Si  Si3       1.0  0.18400  0.18700  0.18200  1.0000
  Si  Si4       1.0  0.18200  0.81400  0.18400  1.0000
  Si  Si5       1.0  0.81500  0.18700  0.18400  1.0000
  Si  Si6       1.0  0.81800  0.81200  0.18900  1.0000
  Si  Si7       1.0  0.38700  0.49900  0.19500  1.0000
  Si  Si8       1.0  0.62100  0.50000  0.19700  1.0000
  Si  Si9       1.0  0.49400  0.99400  0.25000  1.0000
  Si  Si10      1.0  0.00032  0.87900  0.30800  1.0000
  Si  Si11      1.0  0.31400  0.31700  0.31300  1.0000
  Si  Si12      1.0  0.31500  0.68000  0.31500  1.0000
  Si  Si13      1.0  0.68900  0.31600  0.31700  1.0000
  Si  Si14      1.0  0.68600  0.68300  0.31900  1.0000
  Si  Si15      1.0  0.49700  0.80300  0.38000  1.0000
  Si  Si16      1.0  0.19500  0.38100  0.49900  1.0000
  Si  Si17      1.0  0.19700  0.61200  0.49900  1.0000
  Si  Si18      1.0  0.80700  0.38100  0.50300  1.0000
  Si  Si19      1.0  0.80400  0.61400  0.50300  1.0000
  Si  Si20      1.0  0.00114  0.25400  0.50600  1.0000
  Si  Si21      1.0  0.49600  0.80600  0.61200  1.0000
  Si  Si22      1.0  0.50000  0.19500  0.61900  1.0000
  Si  Si23      1.0  0.68200  0.69000  0.68100  1.0000
  Si  Si24      1.0  0.31500  0.68300  0.68200  1.0000
  Si  Si25      1.0  0.68300  0.31300  0.68400  1.0000
  Si  Si26      1.0  0.31600  0.31600  0.68400  1.0000
  Si  Si27      1.0  0.00370  0.88700  0.69300  1.0000
  Si  Si28      1.0  0.00306  0.12100  0.69600  1.0000
  Si  Si29      1.0  0.38000  0.50000  0.80300  1.0000
  Si  Si30      1.0  0.81800  0.82000  0.80800  1.0000
  Si  Si31      1.0  0.81600  0.18200  0.81400  1.0000
  Si  Si32      1.0  0.18500  0.81900  0.81700  1.0000
  Si  Si33      1.0  0.18500  0.18500  0.81900  1.0000
  Si  Si34      1.0  0.69600  0.99900  0.88000  1.0000
  Si  Si35      1.0  0.30500  0.00043  0.88800  1.0000
  Si  Si36      1.0  0.12000  0.69600  0.99900  1.0000
  Si  Si37      1.0  0.88000  0.30400  0.00000  1.0000
  Si  Si38      1.0  0.11300  0.30600  0.00000  1.0000
