data_image0
_chemical_formula_structural       Ni8O32Sr4V8
_chemical_formula_sum              "Ni8 O32 Sr4 V8"
_cell_length_a       8.28023
_cell_length_b       9.5213
_cell_length_c       9.5213
_cell_angle_alpha    100.899
_cell_angle_beta     115.774
_cell_angle_gamma    64.2257

_space_group_name_H-M_alt    "P 1"
_space_group_IT_number       1

loop_
  _space_group_symop_operation_xyz
  'x, y, z'

loop_
  _atom_site_type_symbol
  _atom_site_label
  _atom_site_symmetry_multiplicity
  _atom_site_fract_x
  _atom_site_fract_y
  _atom_site_fract_z
  _atom_site_occupancy
  Ni  Ni1       1.0  0.10200  0.33600  0.00238  1.0000
  Ni  Ni2       1.0  0.34900  0.50200  0.16400  1.0000
  Ni  Ni3       1.0  0.93500  0.00238  0.33600  1.0000
  Ni  Ni4       1.0  0.84900  0.83600  0.49800  1.0000
  Ni  Ni5       1.0  0.18800  0.16400  0.50200  1.0000
  Ni  Ni6       1.0  0.60200  0.99800  0.66400  1.0000
  Ni  Ni7       1.0  0.68800  0.49800  0.83600  1.0000
  Ni  Ni8       1.0  0.43500  0.66400  0.99800  1.0000
  O   O1        1.0  0.67800  0.67100  0.00590  1.0000
  O   O2        1.0  0.86800  0.33300  0.01520  1.0000
  O   O3        1.0  0.39500  0.84700  0.14600  1.0000
  O   O4        1.0  0.89500  0.85400  0.15300  1.0000
  O   O5        1.0  0.29100  0.16800  0.16500  1.0000
  O   O6        1.0  0.10300  0.51500  0.16700  1.0000
  O   O7        1.0  0.79300  0.16500  0.16800  1.0000
  O   O8        1.0  0.60000  0.49400  0.17100  1.0000
  O   O9        1.0  0.17800  0.99400  0.32900  1.0000
  O   O10       1.0  0.37500  0.66500  0.33200  1.0000
  O   O11       1.0  0.68600  0.01520  0.33300  1.0000
  O   O12       1.0  0.87500  0.66800  0.33500  1.0000
  O   O13       1.0  0.49100  0.35400  0.34700  1.0000
  O   O14       1.0  0.99800  0.34700  0.35400  1.0000
  O   O15       1.0  0.60300  0.83300  0.48500  1.0000
  O   O16       1.0  0.42200  0.17100  0.49400  1.0000
  O   O17       1.0  0.09960  0.82900  0.50600  1.0000
  O   O18       1.0  0.95100  0.16700  0.51500  1.0000
  O   O19       1.0  0.99100  0.65300  0.64600  1.0000
  O   O20       1.0  0.49800  0.64600  0.65300  1.0000
  O   O21       1.0  0.20800  0.33200  0.66500  1.0000
  O   O22       1.0  0.36800  0.98500  0.66700  1.0000
  O   O23       1.0  0.70800  0.33500  0.66800  1.0000
  O   O24       1.0  0.84400  0.00590  0.67100  1.0000
  O   O25       1.0  0.92200  0.50600  0.82900  1.0000
  O   O26       1.0  0.79100  0.83500  0.83200  1.0000
  O   O27       1.0  0.45100  0.48500  0.83300  1.0000
  O   O28       1.0  0.29300  0.83200  0.83500  1.0000
  O   O29       1.0  0.59500  0.14600  0.84700  1.0000
  O   O30       1.0  0.09510  0.15300  0.85400  1.0000
  O   O31       1.0  0.18600  0.66700  0.98500  1.0000
  O   O32       1.0  0.34400  0.32900  0.99400  1.0000
  Sr  Sr1       1.0  0.49800  0.00000  0.00000  1.0000
  Sr  Sr2       1.0  0.99800  0.00000  0.00000  1.0000
  Sr  Sr3       1.0  0.24800  0.50000  0.50000  1.0000
  Sr  Sr4       1.0  0.74800  0.50000  0.50000  1.0000
  V   V1        1.0  0.89000  0.67600  0.16300  1.0000
  V   V2        1.0  0.81600  0.33700  0.17600  1.0000
  V   V3        1.0  0.39000  0.83700  0.32400  1.0000
  V   V4        1.0  0.47700  0.17600  0.33700  1.0000
  V   V5        1.0  0.31600  0.82400  0.66300  1.0000
  V   V6        1.0  0.90300  0.16300  0.67600  1.0000
  V   V7        1.0  0.97700  0.66300  0.82400  1.0000
  V   V8        1.0  0.40300  0.32400  0.83700  1.0000
