data_image0
_chemical_formula_structural       O36Pr8W8
_chemical_formula_sum              "O36 Pr8 W8"
_cell_length_a       7.67976
_cell_length_b       9.87829
_cell_length_c       9.2656
_cell_angle_alpha    90
_cell_angle_beta     107.314
_cell_angle_gamma    90

_space_group_name_H-M_alt    "P 1"
_space_group_IT_number       1

loop_
  _space_group_symop_operation_xyz
  'x, y, z'

loop_
  _atom_site_type_symbol
  _atom_site_label
  _atom_site_symmetry_multiplicity
  _atom_site_fract_x
  _atom_site_fract_y
  _atom_site_fract_z
  _atom_site_occupancy
  O   O1        1.0  0.41000  0.71100  0.07610  1.0000
  O   O2        1.0  0.76900  0.61900  0.07650  1.0000
  O   O3        1.0  0.98700  0.37700  0.09440  1.0000
  O   O4        1.0  0.55700  0.10500  0.10700  1.0000
  O   O5        1.0  0.73700  0.86500  0.14000  1.0000
  O   O6        1.0  0.26500  0.19100  0.14200  1.0000
  O   O7        1.0  0.96300  0.08440  0.15600  1.0000
  O   O8        1.0  0.10100  0.77900  0.16300  1.0000
  O   O9        1.0  0.51200  0.40700  0.17500  1.0000
  O   O10       1.0  0.48800  0.90700  0.32500  1.0000
  O   O11       1.0  0.89900  0.27900  0.33700  1.0000
  O   O12       1.0  0.03720  0.58400  0.34400  1.0000
  O   O13       1.0  0.73500  0.69100  0.35800  1.0000
  O   O14       1.0  0.26300  0.36500  0.36000  1.0000
  O   O15       1.0  0.44300  0.60500  0.39300  1.0000
  O   O16       1.0  0.01310  0.87700  0.40600  1.0000
  O   O17       1.0  0.23100  0.11900  0.42300  1.0000
  O   O18       1.0  0.59000  0.21100  0.42400  1.0000
  O   O19       1.0  0.41000  0.78900  0.57600  1.0000
  O   O20       1.0  0.76900  0.88100  0.57700  1.0000
  O   O21       1.0  0.98700  0.12300  0.59400  1.0000
  O   O22       1.0  0.55700  0.39500  0.60700  1.0000
  O   O23       1.0  0.73700  0.63500  0.64000  1.0000
  O   O24       1.0  0.26500  0.30900  0.64200  1.0000
  O   O25       1.0  0.96300  0.41600  0.65600  1.0000
  O   O26       1.0  0.10100  0.72100  0.66300  1.0000
  O   O27       1.0  0.51200  0.09340  0.67500  1.0000
  O   O28       1.0  0.48800  0.59300  0.82500  1.0000
  O   O29       1.0  0.89900  0.22100  0.83700  1.0000
  O   O30       1.0  0.03720  0.91600  0.84400  1.0000
  O   O31       1.0  0.73500  0.80900  0.85800  1.0000
  O   O32       1.0  0.26300  0.13500  0.86000  1.0000
  O   O33       1.0  0.44300  0.89500  0.89300  1.0000
  O   O34       1.0  0.01310  0.62300  0.90600  1.0000
  O   O35       1.0  0.23100  0.38100  0.92300  1.0000
  O   O36       1.0  0.59000  0.28900  0.92400  1.0000
  Pr  Pr1       1.0  0.27800  0.95500  0.07450  1.0000
  Pr  Pr2       1.0  0.22800  0.55000  0.15300  1.0000
  Pr  Pr3       1.0  0.77200  0.04970  0.34700  1.0000
  Pr  Pr4       1.0  0.72200  0.45500  0.42600  1.0000
  Pr  Pr5       1.0  0.27800  0.54500  0.57400  1.0000
  Pr  Pr6       1.0  0.22800  0.95000  0.65300  1.0000
  Pr  Pr7       1.0  0.77200  0.45000  0.84700  1.0000
  Pr  Pr8       1.0  0.72200  0.04470  0.92600  1.0000
  W   W1        1.0  0.42900  0.27400  0.03520  1.0000
  W   W2        1.0  0.07210  0.24900  0.23800  1.0000
  W   W3        1.0  0.92800  0.74900  0.26200  1.0000
  W   W4        1.0  0.57100  0.77400  0.46500  1.0000
  W   W5        1.0  0.42900  0.22600  0.53500  1.0000
  W   W6        1.0  0.07210  0.25100  0.73800  1.0000
  W   W7        1.0  0.92800  0.75100  0.76200  1.0000
  W   W8        1.0  0.57100  0.72600  0.96500  1.0000
