data_image0
_chemical_formula_structural       Ca8H8O28S8
_chemical_formula_sum              "Ca8 H8 O28 S8"
_cell_length_a       6.4714
_cell_length_b       9.37671
_cell_length_c       10.5587
_cell_angle_alpha    90
_cell_angle_beta     90
_cell_angle_gamma    90

_space_group_name_H-M_alt    "P 1"
_space_group_IT_number       1

loop_
  _space_group_symop_operation_xyz
  'x, y, z'

loop_
  _atom_site_type_symbol
  _atom_site_label
  _atom_site_symmetry_multiplicity
  _atom_site_fract_x
  _atom_site_fract_y
  _atom_site_fract_z
  _atom_site_occupancy
  Ca  Ca1       1.0  0.48800  0.14800  0.14300  1.0000
  Ca  Ca2       1.0  0.51200  0.64800  0.14300  1.0000
  Ca  Ca3       1.0  0.98800  0.14800  0.35700  1.0000
  Ca  Ca4       1.0  0.01170  0.64800  0.35700  1.0000
  Ca  Ca5       1.0  0.98800  0.35200  0.64300  1.0000
  Ca  Ca6       1.0  0.01170  0.85200  0.64300  1.0000
  Ca  Ca7       1.0  0.48800  0.35200  0.85700  1.0000
  Ca  Ca8       1.0  0.51200  0.85200  0.85700  1.0000
  H   H1        1.0  0.86700  0.27900  0.06790  1.0000
  H   H2        1.0  0.13300  0.77900  0.06790  1.0000
  H   H3        1.0  0.36700  0.27900  0.43200  1.0000
  H   H4        1.0  0.63300  0.77900  0.43200  1.0000
  H   H5        1.0  0.36700  0.22100  0.56800  1.0000
  H   H6        1.0  0.63300  0.72100  0.56800  1.0000
  H   H7        1.0  0.86700  0.22100  0.93200  1.0000
  H   H8        1.0  0.13300  0.72100  0.93200  1.0000
  O   O1        1.0  0.77000  0.25000  0.00000  1.0000
  O   O2        1.0  0.23000  0.75000  0.00000  1.0000
  O   O3        1.0  0.39000  0.39100  0.06580  1.0000
  O   O4        1.0  0.61000  0.89100  0.06580  1.0000
  O   O5        1.0  0.11700  0.26900  0.17900  1.0000
  O   O6        1.0  0.88300  0.76900  0.17900  1.0000
  O   O7        1.0  0.78100  0.01710  0.23000  1.0000
  O   O8        1.0  0.21900  0.51700  0.23000  1.0000
  O   O9        1.0  0.28100  0.01710  0.27000  1.0000
  O   O10       1.0  0.71900  0.51700  0.27000  1.0000
  O   O11       1.0  0.61700  0.26900  0.32100  1.0000
  O   O12       1.0  0.38300  0.76900  0.32100  1.0000
  O   O13       1.0  0.89000  0.39100  0.43400  1.0000
  O   O14       1.0  0.11000  0.89100  0.43400  1.0000
  O   O15       1.0  0.27000  0.25000  0.50000  1.0000
  O   O16       1.0  0.73000  0.75000  0.50000  1.0000
  O   O17       1.0  0.89000  0.10900  0.56600  1.0000
  O   O18       1.0  0.11000  0.60900  0.56600  1.0000
  O   O19       1.0  0.61700  0.23100  0.67900  1.0000
  O   O20       1.0  0.38300  0.73100  0.67900  1.0000
  O   O21       1.0  0.28100  0.48300  0.73000  1.0000
  O   O22       1.0  0.71900  0.98300  0.73000  1.0000
  O   O23       1.0  0.78100  0.48300  0.77000  1.0000
  O   O24       1.0  0.21900  0.98300  0.77000  1.0000
  O   O25       1.0  0.11700  0.23100  0.82100  1.0000
  O   O26       1.0  0.88300  0.73100  0.82100  1.0000
  O   O27       1.0  0.39000  0.10900  0.93400  1.0000
  O   O28       1.0  0.61000  0.60900  0.93400  1.0000
  S   S1        1.0  0.16900  0.41500  0.12000  1.0000
  S   S2        1.0  0.83100  0.91500  0.12000  1.0000
  S   S3        1.0  0.66900  0.41500  0.38000  1.0000
  S   S4        1.0  0.33100  0.91500  0.38000  1.0000
  S   S5        1.0  0.66900  0.08510  0.62000  1.0000
  S   S6        1.0  0.33100  0.58500  0.62000  1.0000
  S   S7        1.0  0.16900  0.08510  0.88000  1.0000
  S   S8        1.0  0.83100  0.58500  0.88000  1.0000
