data_image0
_chemical_formula_structural       Cr3F6Na15O24P6
_chemical_formula_sum              "Cr3 F6 Na15 O24 P6"
_cell_length_a       10.4909
_cell_length_b       10.4909
_cell_length_c       6.60151
_cell_angle_alpha    90
_cell_angle_beta     90
_cell_angle_gamma    120

_space_group_name_H-M_alt    "P 1"
_space_group_IT_number       1

loop_
  _space_group_symop_operation_xyz
  'x, y, z'

loop_
  _atom_site_type_symbol
  _atom_site_label
  _atom_site_symmetry_multiplicity
  _atom_site_fract_x
  _atom_site_fract_y
  _atom_site_fract_z
  _atom_site_occupancy
  Cr  Cr1       1.0  0.16600  0.83300  0.00345  1.0000
  Cr  Cr2       1.0  0.16700  0.33300  0.00345  1.0000
  Cr  Cr3       1.0  0.66700  0.83400  0.00345  1.0000
  F   F1        1.0  0.15000  0.19100  0.21000  1.0000
  F   F2        1.0  0.04110  0.85000  0.21000  1.0000
  F   F3        1.0  0.80900  0.95900  0.21000  1.0000
  F   F4        1.0  0.18300  0.47600  0.80000  1.0000
  F   F5        1.0  0.29300  0.81700  0.80000  1.0000
  F   F6        1.0  0.52400  0.70700  0.80000  1.0000
  Na  Na1       1.0  0.66700  0.33300  0.00443  1.0000
  Na  Na2       1.0  0.33300  0.66700  0.02110  1.0000
  Na  Na3       1.0  0.35400  0.16500  0.24300  1.0000
  Na  Na4       1.0  0.83500  0.19000  0.24300  1.0000
  Na  Na5       1.0  0.81000  0.64600  0.24300  1.0000
  Na  Na6       1.0  0.00000  0.00000  0.43600  1.0000
  Na  Na7       1.0  0.66600  0.83300  0.50300  1.0000
  Na  Na8       1.0  0.16600  0.33400  0.50300  1.0000
  Na  Na9       1.0  0.16700  0.83400  0.50300  1.0000
  Na  Na10      1.0  0.66700  0.33300  0.50400  1.0000
  Na  Na11      1.0  0.33300  0.66700  0.57700  1.0000
  Na  Na12      1.0  0.97900  0.50300  0.76500  1.0000
  Na  Na13      1.0  0.49700  0.47700  0.76500  1.0000
  Na  Na14      1.0  0.52300  0.02060  0.76500  1.0000
  Na  Na15      1.0  0.00000  0.00000  0.99500  1.0000
  O   O1        1.0  0.09610  0.62700  0.07490  1.0000
  O   O2        1.0  0.37300  0.46900  0.07490  1.0000
  O   O3        1.0  0.53100  0.90400  0.07490  1.0000
  O   O4        1.0  0.08940  0.40700  0.22100  1.0000
  O   O5        1.0  0.31700  0.91100  0.22100  1.0000
  O   O6        1.0  0.59300  0.68300  0.22100  1.0000
  O   O7        1.0  0.56300  0.42600  0.25200  1.0000
  O   O8        1.0  0.57400  0.13600  0.25200  1.0000
  O   O9        1.0  0.86400  0.43700  0.25200  1.0000
  O   O10       1.0  0.09650  0.59500  0.45900  1.0000
  O   O11       1.0  0.49800  0.90300  0.45900  1.0000
  O   O12       1.0  0.40500  0.50200  0.45900  1.0000
  O   O13       1.0  0.23800  0.07180  0.54800  1.0000
  O   O14       1.0  0.92800  0.16700  0.54800  1.0000
  O   O15       1.0  0.83300  0.76200  0.54800  1.0000
  O   O16       1.0  0.46900  0.22900  0.75800  1.0000
  O   O17       1.0  0.77100  0.24100  0.75800  1.0000
  O   O18       1.0  0.75900  0.53100  0.75800  1.0000
  O   O19       1.0  0.24400  0.26000  0.78400  1.0000
  O   O20       1.0  0.01620  0.75600  0.78400  1.0000
  O   O21       1.0  0.74000  0.98400  0.78400  1.0000
  O   O22       1.0  0.96000  0.19500  0.93200  1.0000
  O   O23       1.0  0.23500  0.03960  0.93200  1.0000
  O   O24       1.0  0.80500  0.76500  0.93200  1.0000
  P   P1        1.0  0.03320  0.51800  0.25700  1.0000
  P   P2        1.0  0.48500  0.96700  0.25700  1.0000
  P   P3        1.0  0.48200  0.51500  0.25700  1.0000
  P   P4        1.0  0.30000  0.14900  0.75000  1.0000
  P   P5        1.0  0.85100  0.15100  0.75000  1.0000
  P   P6        1.0  0.84900  0.70000  0.75000  1.0000
