data_image0
_chemical_formula_structural       Cu12Mn12O32
_chemical_formula_sum              "Cu12 Mn12 O32"
_cell_length_a       8.30603
_cell_length_b       8.30603
_cell_length_c       8.30603
_cell_angle_alpha    90
_cell_angle_beta     90
_cell_angle_gamma    90

_space_group_name_H-M_alt    "P 1"
_space_group_IT_number       1

loop_
  _space_group_symop_operation_xyz
  'x, y, z'

loop_
  _atom_site_type_symbol
  _atom_site_label
  _atom_site_symmetry_multiplicity
  _atom_site_fract_x
  _atom_site_fract_y
  _atom_site_fract_z
  _atom_site_occupancy
  Cu  Cu1       1.0  0.00376  0.00376  0.00376  1.0000
  Cu  Cu2       1.0  0.87500  0.37500  0.12500  1.0000
  Cu  Cu3       1.0  0.24600  0.24600  0.24600  1.0000
  Cu  Cu4       1.0  0.75400  0.74600  0.25400  1.0000
  Cu  Cu5       1.0  0.12500  0.87500  0.37500  1.0000
  Cu  Cu6       1.0  0.99600  0.50400  0.49600  1.0000
  Cu  Cu7       1.0  0.49600  0.99600  0.50400  1.0000
  Cu  Cu8       1.0  0.62500  0.62500  0.62500  1.0000
  Cu  Cu9       1.0  0.25400  0.75400  0.74600  1.0000
  Cu  Cu10      1.0  0.74600  0.25400  0.75400  1.0000
  Cu  Cu11      1.0  0.37500  0.12500  0.87500  1.0000
  Cu  Cu12      1.0  0.50400  0.49600  0.99600  1.0000
  Mn  Mn1       1.0  0.12600  0.62500  0.12400  1.0000
  Mn  Mn2       1.0  0.37600  0.87400  0.12500  1.0000
  Mn  Mn3       1.0  0.62500  0.12400  0.12600  1.0000
  Mn  Mn4       1.0  0.37500  0.62400  0.37400  1.0000
  Mn  Mn5       1.0  0.62400  0.37400  0.37500  1.0000
  Mn  Mn6       1.0  0.87400  0.12500  0.37600  1.0000
  Mn  Mn7       1.0  0.37400  0.37500  0.62400  1.0000
  Mn  Mn8       1.0  0.12400  0.12600  0.62500  1.0000
  Mn  Mn9       1.0  0.87500  0.87600  0.62600  1.0000
  Mn  Mn10      1.0  0.12500  0.37600  0.87400  1.0000
  Mn  Mn11      1.0  0.87600  0.62600  0.87500  1.0000
  Mn  Mn12      1.0  0.62600  0.87500  0.87600  1.0000
  O   O1        1.0  0.12100  0.39000  0.10800  1.0000
  O   O2        1.0  0.89200  0.62100  0.11000  1.0000
  O   O3        1.0  0.61400  0.88600  0.11400  1.0000
  O   O4        1.0  0.39000  0.10800  0.12100  1.0000
  O   O5        1.0  0.14200  0.86000  0.12900  1.0000
  O   O6        1.0  0.36400  0.63600  0.13600  1.0000
  O   O7        1.0  0.62900  0.35800  0.14000  1.0000
  O   O8        1.0  0.86000  0.12900  0.14200  1.0000
  O   O9        1.0  0.14000  0.62900  0.35800  1.0000
  O   O10       1.0  0.37100  0.85800  0.36000  1.0000
  O   O11       1.0  0.63600  0.13600  0.36400  1.0000
  O   O12       1.0  0.85800  0.36000  0.37100  1.0000
  O   O13       1.0  0.61000  0.60800  0.37900  1.0000
  O   O14       1.0  0.38600  0.38600  0.38600  1.0000
  O   O15       1.0  0.10800  0.12100  0.39000  1.0000
  O   O16       1.0  0.87900  0.89000  0.39200  1.0000
  O   O17       1.0  0.37900  0.61000  0.60800  1.0000
  O   O18       1.0  0.60800  0.37900  0.61000  1.0000
  O   O19       1.0  0.88600  0.11400  0.61400  1.0000
  O   O20       1.0  0.11000  0.89200  0.62100  1.0000
  O   O21       1.0  0.35800  0.14000  0.62900  1.0000
  O   O22       1.0  0.13600  0.36400  0.63600  1.0000
  O   O23       1.0  0.87100  0.64200  0.64000  1.0000
  O   O24       1.0  0.64000  0.87100  0.64200  1.0000
  O   O25       1.0  0.36000  0.37100  0.85800  1.0000
  O   O26       1.0  0.12900  0.14200  0.86000  1.0000
  O   O27       1.0  0.86400  0.86400  0.86400  1.0000
  O   O28       1.0  0.64200  0.64000  0.87100  1.0000
  O   O29       1.0  0.89000  0.39200  0.87900  1.0000
  O   O30       1.0  0.11400  0.61400  0.88600  1.0000
  O   O31       1.0  0.39200  0.87900  0.89000  1.0000
  O   O32       1.0  0.62100  0.11000  0.89200  1.0000
