data_image0
_chemical_formula_structural       Ag14As8Cl2Cu2O28
_chemical_formula_sum              "Ag14 As8 Cl2 Cu2 O28"
_cell_length_a       6.84798
_cell_length_b       6.84798
_cell_length_c       16.5236
_cell_angle_alpha    93.9622
_cell_angle_beta     86.0378
_cell_angle_gamma    97.8501

_space_group_name_H-M_alt    "P 1"
_space_group_IT_number       1

loop_
  _space_group_symop_operation_xyz
  'x, y, z'

loop_
  _atom_site_type_symbol
  _atom_site_label
  _atom_site_symmetry_multiplicity
  _atom_site_fract_x
  _atom_site_fract_y
  _atom_site_fract_z
  _atom_site_occupancy
  Ag  Ag1       1.0  0.99000  0.49000  0.01430  1.0000
  Ag  Ag2       1.0  0.38800  0.11300  0.01470  1.0000
  Ag  Ag3       1.0  0.13100  0.38500  0.17900  1.0000
  Ag  Ag4       1.0  0.58100  0.93800  0.17900  1.0000
  Ag  Ag5       1.0  0.64300  0.51700  0.18500  1.0000
  Ag  Ag6       1.0  0.88300  0.33200  0.33900  1.0000
  Ag  Ag7       1.0  0.05500  0.05010  0.49800  1.0000
  Ag  Ag8       1.0  0.51000  0.00984  0.51400  1.0000
  Ag  Ag9       1.0  0.88700  0.61200  0.51500  1.0000
  Ag  Ag10      1.0  0.61500  0.86900  0.67900  1.0000
  Ag  Ag11      1.0  0.06170  0.41900  0.67900  1.0000
  Ag  Ag12      1.0  0.48300  0.35700  0.68500  1.0000
  Ag  Ag13      1.0  0.66800  0.11700  0.83900  1.0000
  Ag  Ag14      1.0  0.95000  0.94500  0.99800  1.0000
  As  As1       1.0  0.47700  0.62000  0.00426  1.0000
  As  As2       1.0  0.10100  0.87500  0.18400  1.0000
  As  As3       1.0  0.80900  0.84100  0.34300  1.0000
  As  As4       1.0  0.38700  0.24400  0.34500  1.0000
  As  As5       1.0  0.38000  0.52300  0.50400  1.0000
  As  As6       1.0  0.12500  0.89900  0.68400  1.0000
  As  As7       1.0  0.15900  0.19100  0.84300  1.0000
  As  As8       1.0  0.75600  0.61300  0.84500  1.0000
  Cl  Cl1       1.0  0.81500  0.23600  0.10700  1.0000
  Cl  Cl2       1.0  0.76400  0.18500  0.60700  1.0000
  Cu  Cu1       1.0  0.28600  0.72200  0.34200  1.0000
  Cu  Cu2       1.0  0.27800  0.71400  0.84200  1.0000
  O   O1        1.0  0.58800  0.84900  0.03420  1.0000
  O   O2        1.0  0.42100  0.45300  0.07660  1.0000
  O   O3        1.0  0.94600  0.75600  0.11400  1.0000
  O   O4        1.0  0.25700  0.07250  0.15100  1.0000
  O   O5        1.0  0.22700  0.71100  0.22700  1.0000
  O   O6        1.0  0.94700  0.97900  0.26300  1.0000
  O   O7        1.0  0.58200  0.23300  0.27700  1.0000
  O   O8        1.0  0.60200  0.73300  0.29700  1.0000
  O   O9        1.0  0.23100  0.41100  0.32700  1.0000
  O   O10       1.0  0.26300  0.02180  0.37100  1.0000
  O   O11       1.0  0.94400  0.67400  0.37700  1.0000
  O   O12       1.0  0.78100  0.02910  0.41400  1.0000
  O   O13       1.0  0.50200  0.35100  0.43700  1.0000
  O   O14       1.0  0.36400  0.72800  0.45200  1.0000
  O   O15       1.0  0.15100  0.41200  0.53400  1.0000
  O   O16       1.0  0.54700  0.57900  0.57700  1.0000
  O   O17       1.0  0.24400  0.05410  0.61400  1.0000
  O   O18       1.0  0.92700  0.74300  0.65100  1.0000
  O   O19       1.0  0.28900  0.77300  0.72700  1.0000
  O   O20       1.0  0.02110  0.05260  0.76300  1.0000
  O   O21       1.0  0.76700  0.41800  0.77700  1.0000
  O   O22       1.0  0.26700  0.39800  0.79700  1.0000
  O   O23       1.0  0.58900  0.76900  0.82700  1.0000
  O   O24       1.0  0.97800  0.73700  0.87100  1.0000
  O   O25       1.0  0.32600  0.05580  0.87700  1.0000
  O   O26       1.0  0.97100  0.21900  0.91400  1.0000
  O   O27       1.0  0.64900  0.49800  0.93700  1.0000
  O   O28       1.0  0.27200  0.63600  0.95200  1.0000
