data_image0
_chemical_formula_structural       As8Cl4La12O28
_chemical_formula_sum              "As8 Cl4 La12 O28"
_cell_length_a       12.9213
_cell_length_b       12.9213
_cell_length_c       5.58093
_cell_angle_alpha    90
_cell_angle_beta     90
_cell_angle_gamma    90

_space_group_name_H-M_alt    "P 1"
_space_group_IT_number       1

loop_
  _space_group_symop_operation_xyz
  'x, y, z'

loop_
  _atom_site_type_symbol
  _atom_site_label
  _atom_site_symmetry_multiplicity
  _atom_site_fract_x
  _atom_site_fract_y
  _atom_site_fract_z
  _atom_site_occupancy
  As  As1       1.0  0.79500  0.01830  0.00000  1.0000
  As  As2       1.0  0.98200  0.20500  0.00000  1.0000
  As  As3       1.0  0.01830  0.79500  0.00000  1.0000
  As  As4       1.0  0.20500  0.98200  0.00000  1.0000
  As  As5       1.0  0.48200  0.29500  0.50000  1.0000
  As  As6       1.0  0.29500  0.48200  0.50000  1.0000
  As  As7       1.0  0.70500  0.51800  0.50000  1.0000
  As  As8       1.0  0.51800  0.70500  0.50000  1.0000
  Cl  Cl1       1.0  0.66200  0.33800  0.00000  1.0000
  Cl  Cl2       1.0  0.33800  0.66200  0.00000  1.0000
  Cl  Cl3       1.0  0.16200  0.16200  0.50000  1.0000
  Cl  Cl4       1.0  0.83800  0.83800  0.50000  1.0000
  La  La1       1.0  0.55300  0.13700  0.00000  1.0000
  La  La2       1.0  0.27000  0.27000  0.00000  1.0000
  La  La3       1.0  0.86300  0.44700  0.00000  1.0000
  La  La4       1.0  0.13700  0.55300  0.00000  1.0000
  La  La5       1.0  0.73000  0.73000  0.00000  1.0000
  La  La6       1.0  0.44700  0.86300  0.00000  1.0000
  La  La7       1.0  0.36300  0.05340  0.50000  1.0000
  La  La8       1.0  0.77000  0.23000  0.50000  1.0000
  La  La9       1.0  0.05340  0.36300  0.50000  1.0000
  La  La10      1.0  0.94700  0.63700  0.50000  1.0000
  La  La11      1.0  0.23000  0.77000  0.50000  1.0000
  La  La12      1.0  0.63700  0.94700  0.50000  1.0000
  O   O1        1.0  0.29100  0.08930  0.00000  1.0000
  O   O2        1.0  0.08930  0.29100  0.00000  1.0000
  O   O3        1.0  0.91100  0.70900  0.00000  1.0000
  O   O4        1.0  0.70900  0.91100  0.00000  1.0000
  O   O5        1.0  0.72600  0.08480  0.23800  1.0000
  O   O6        1.0  0.91500  0.27400  0.23800  1.0000
  O   O7        1.0  0.08480  0.72600  0.23800  1.0000
  O   O8        1.0  0.27400  0.91500  0.23800  1.0000
  O   O9        1.0  0.50000  0.00000  0.25000  1.0000
  O   O10       1.0  0.00000  0.50000  0.25000  1.0000
  O   O11       1.0  0.41500  0.22600  0.26200  1.0000
  O   O12       1.0  0.22600  0.41500  0.26200  1.0000
  O   O13       1.0  0.77400  0.58500  0.26200  1.0000
  O   O14       1.0  0.58500  0.77400  0.26200  1.0000
  O   O15       1.0  0.58900  0.20900  0.50000  1.0000
  O   O16       1.0  0.79100  0.41100  0.50000  1.0000
  O   O17       1.0  0.20900  0.58900  0.50000  1.0000
  O   O18       1.0  0.41100  0.79100  0.50000  1.0000
  O   O19       1.0  0.41500  0.22600  0.73800  1.0000
  O   O20       1.0  0.22600  0.41500  0.73800  1.0000
  O   O21       1.0  0.77400  0.58500  0.73800  1.0000
  O   O22       1.0  0.58500  0.77400  0.73800  1.0000
  O   O23       1.0  0.50000  0.00000  0.75000  1.0000
  O   O24       1.0  0.00000  0.50000  0.75000  1.0000
  O   O25       1.0  0.72600  0.08480  0.76200  1.0000
  O   O26       1.0  0.91500  0.27400  0.76200  1.0000
  O   O27       1.0  0.08480  0.72600  0.76200  1.0000
  O   O28       1.0  0.27400  0.91500  0.76200  1.0000
