data_image0
_chemical_formula_structural       H24O22P4Zn4
_chemical_formula_sum              "H24 O22 P4 Zn4"
_cell_length_a       7.38369
_cell_length_b       9.29513
_cell_length_c       7.29789
_cell_angle_alpha    89.8251
_cell_angle_beta     93.2671
_cell_angle_gamma    88.21

_space_group_name_H-M_alt    "P 1"
_space_group_IT_number       1

loop_
  _space_group_symop_operation_xyz
  'x, y, z'

loop_
  _atom_site_type_symbol
  _atom_site_label
  _atom_site_symmetry_multiplicity
  _atom_site_fract_x
  _atom_site_fract_y
  _atom_site_fract_z
  _atom_site_occupancy
  H   H1        1.0  0.38900  0.77800  0.02370  1.0000
  H   H2        1.0  0.32900  0.14600  0.06520  1.0000
  H   H3        1.0  0.17600  0.47200  0.08800  1.0000
  H   H4        1.0  0.89800  0.26400  0.10500  1.0000
  H   H5        1.0  0.09840  0.74500  0.11100  1.0000
  H   H6        1.0  0.54200  0.67900  0.12200  1.0000
  H   H7        1.0  0.55100  0.39200  0.14800  1.0000
  H   H8        1.0  0.73500  0.43900  0.25100  1.0000
  H   H9        1.0  0.25200  0.09260  0.25400  1.0000
  H   H10       1.0  0.59600  0.99100  0.27300  1.0000
  H   H11       1.0  0.37500  0.77200  0.45500  1.0000
  H   H12       1.0  0.58900  0.76000  0.45500  1.0000
  H   H13       1.0  0.41100  0.24000  0.54500  1.0000
  H   H14       1.0  0.62500  0.22800  0.54500  1.0000
  H   H15       1.0  0.40400  0.00894  0.72700  1.0000
  H   H16       1.0  0.74800  0.90700  0.74600  1.0000
  H   H17       1.0  0.26500  0.56100  0.74900  1.0000
  H   H18       1.0  0.44900  0.60800  0.85200  1.0000
  H   H19       1.0  0.45800  0.32100  0.87800  1.0000
  H   H20       1.0  0.90200  0.25500  0.88900  1.0000
  H   H21       1.0  0.10200  0.73600  0.89500  1.0000
  H   H22       1.0  0.82400  0.52800  0.91200  1.0000
  H   H23       1.0  0.67100  0.85400  0.93500  1.0000
  H   H24       1.0  0.61100  0.22200  0.97600  1.0000
  O   O1        1.0  0.14500  0.79600  0.00261  1.0000
  O   O2        1.0  0.51300  0.73500  0.00861  1.0000
  O   O3        1.0  0.25100  0.07420  0.12100  1.0000
  O   O4        1.0  0.60500  0.46800  0.23000  1.0000
  O   O5        1.0  0.92000  0.94800  0.24900  1.0000
  O   O6        1.0  0.02450  0.63900  0.27000  1.0000
  O   O7        1.0  0.95500  0.37100  0.27300  1.0000
  O   O8        1.0  0.47700  0.71300  0.40400  1.0000
  O   O9        1.0  0.24800  0.44700  0.41400  1.0000
  O   O10       1.0  0.78400  0.14100  0.45400  1.0000
  O   O11       1.0  0.23800  0.13000  0.48100  1.0000
  O   O12       1.0  0.76200  0.87000  0.51900  1.0000
  O   O13       1.0  0.21600  0.85900  0.54600  1.0000
  O   O14       1.0  0.75200  0.55300  0.58600  1.0000
  O   O15       1.0  0.52300  0.28700  0.59600  1.0000
  O   O16       1.0  0.04450  0.62900  0.72700  1.0000
  O   O17       1.0  0.97500  0.36100  0.73000  1.0000
  O   O18       1.0  0.08000  0.05200  0.75100  1.0000
  O   O19       1.0  0.39500  0.53200  0.77000  1.0000
  O   O20       1.0  0.74900  0.92600  0.87900  1.0000
  O   O21       1.0  0.48700  0.26500  0.99100  1.0000
  O   O22       1.0  0.85500  0.20400  0.99700  1.0000
  P   P1        1.0  0.10600  0.48500  0.26300  1.0000
  P   P2        1.0  0.76700  0.99100  0.37000  1.0000
  P   P3        1.0  0.23300  0.00922  0.63000  1.0000
  P   P4        1.0  0.89400  0.51500  0.73700  1.0000
  Zn  Zn1       1.0  0.00000  0.00000  0.00000  1.0000
  Zn  Zn2       1.0  0.99100  0.75000  0.49600  1.0000
  Zn  Zn3       1.0  0.50000  0.50000  0.50000  1.0000
  Zn  Zn4       1.0  0.00935  0.25000  0.50400  1.0000
