data_image0
_chemical_formula_structural       O36P8V8
_chemical_formula_sum              "O36 P8 V8"
_cell_length_a       7.28721
_cell_length_b       9.48809
_cell_length_c       8.42775
_cell_angle_alpha    90
_cell_angle_beta     90
_cell_angle_gamma    90

_space_group_name_H-M_alt    "P 1"
_space_group_IT_number       1

loop_
  _space_group_symop_operation_xyz
  'x, y, z'

loop_
  _atom_site_type_symbol
  _atom_site_label
  _atom_site_symmetry_multiplicity
  _atom_site_fract_x
  _atom_site_fract_y
  _atom_site_fract_z
  _atom_site_occupancy
  O   O1        1.0  0.25000  0.15100  0.00000  1.0000
  O   O2        1.0  0.75000  0.84900  0.00000  1.0000
  O   O3        1.0  0.46400  0.36300  0.00067  1.0000
  O   O4        1.0  0.96400  0.63700  0.00067  1.0000
  O   O5        1.0  0.54800  0.14400  0.15000  1.0000
  O   O6        1.0  0.04840  0.85600  0.15000  1.0000
  O   O7        1.0  0.95500  0.14300  0.15100  1.0000
  O   O8        1.0  0.45500  0.85700  0.15100  1.0000
  O   O9        1.0  0.75400  0.46100  0.18000  1.0000
  O   O10       1.0  0.25400  0.53900  0.18000  1.0000
  O   O11       1.0  0.25400  0.03910  0.32000  1.0000
  O   O12       1.0  0.75400  0.96100  0.32000  1.0000
  O   O13       1.0  0.45500  0.35700  0.34900  1.0000
  O   O14       1.0  0.95500  0.64300  0.34900  1.0000
  O   O15       1.0  0.04840  0.35600  0.35000  1.0000
  O   O16       1.0  0.54800  0.64400  0.35000  1.0000
  O   O17       1.0  0.96400  0.13700  0.49900  1.0000
  O   O18       1.0  0.46400  0.86300  0.49900  1.0000
  O   O19       1.0  0.75000  0.34900  0.50000  1.0000
  O   O20       1.0  0.25000  0.65100  0.50000  1.0000
  O   O21       1.0  0.53600  0.13700  0.50100  1.0000
  O   O22       1.0  0.03590  0.86300  0.50100  1.0000
  O   O23       1.0  0.45200  0.35600  0.65000  1.0000
  O   O24       1.0  0.95200  0.64400  0.65000  1.0000
  O   O25       1.0  0.04500  0.35700  0.65100  1.0000
  O   O26       1.0  0.54500  0.64300  0.65100  1.0000
  O   O27       1.0  0.24600  0.03910  0.68000  1.0000
  O   O28       1.0  0.74600  0.96100  0.68000  1.0000
  O   O29       1.0  0.74600  0.46100  0.82000  1.0000
  O   O30       1.0  0.24600  0.53900  0.82000  1.0000
  O   O31       1.0  0.54500  0.14300  0.84900  1.0000
  O   O32       1.0  0.04500  0.85700  0.84900  1.0000
  O   O33       1.0  0.95200  0.14400  0.85000  1.0000
  O   O34       1.0  0.45200  0.85600  0.85000  1.0000
  O   O35       1.0  0.03590  0.36300  0.99900  1.0000
  O   O36       1.0  0.53600  0.63700  0.99900  1.0000
  P   P1        1.0  0.46000  0.19900  0.00032  1.0000
  P   P2        1.0  0.96000  0.80100  0.00032  1.0000
  P   P3        1.0  0.96000  0.30100  0.50000  1.0000
  P   P4        1.0  0.46000  0.69900  0.50000  1.0000
  P   P5        1.0  0.54000  0.30100  0.50000  1.0000
  P   P6        1.0  0.04010  0.69900  0.50000  1.0000
  P   P7        1.0  0.04010  0.19900  0.00000  1.0000
  P   P8        1.0  0.54000  0.80100  0.00000  1.0000
  V   V1        1.0  0.52800  0.49600  0.19000  1.0000
  V   V2        1.0  0.02790  0.50400  0.19000  1.0000
  V   V3        1.0  0.02790  0.00434  0.31000  1.0000
  V   V4        1.0  0.52800  0.99600  0.31000  1.0000
  V   V5        1.0  0.47200  0.00434  0.69000  1.0000
  V   V6        1.0  0.97200  0.99600  0.69000  1.0000
  V   V7        1.0  0.97200  0.49600  0.81000  1.0000
  V   V8        1.0  0.47200  0.50400  0.81000  1.0000
