data_image0
_chemical_formula_structural       B8Ge4O32Tb8
_chemical_formula_sum              "B8 Ge4 O32 Tb8"
_cell_length_a       13.4401
_cell_length_b       4.38027
_cell_length_c       9.20741
_cell_angle_alpha    90
_cell_angle_beta     90
_cell_angle_gamma    90

_space_group_name_H-M_alt    "P 1"
_space_group_IT_number       1

loop_
  _space_group_symop_operation_xyz
  'x, y, z'

loop_
  _atom_site_type_symbol
  _atom_site_label
  _atom_site_symmetry_multiplicity
  _atom_site_fract_x
  _atom_site_fract_y
  _atom_site_fract_z
  _atom_site_occupancy
  B   B1        1.0  0.20000  0.46900  0.20300  1.0000
  B   B2        1.0  0.30000  0.96900  0.20300  1.0000
  B   B3        1.0  0.80000  0.46900  0.29700  1.0000
  B   B4        1.0  0.70000  0.96900  0.29700  1.0000
  B   B5        1.0  0.30000  0.03110  0.70300  1.0000
  B   B6        1.0  0.20000  0.53100  0.70300  1.0000
  B   B7        1.0  0.70000  0.03110  0.79700  1.0000
  B   B8        1.0  0.80000  0.53100  0.79700  1.0000
  Ge  Ge1       1.0  0.50000  0.07070  0.25000  1.0000
  Ge  Ge2       1.0  0.00000  0.57100  0.25000  1.0000
  Ge  Ge3       1.0  0.00000  0.42900  0.75000  1.0000
  Ge  Ge4       1.0  0.50000  0.92900  0.75000  1.0000
  O   O1        1.0  0.19200  0.46200  0.04670  1.0000
  O   O2        1.0  0.30800  0.96200  0.04670  1.0000
  O   O3        1.0  0.49600  0.29500  0.09530  1.0000
  O   O4        1.0  0.00385  0.79500  0.09530  1.0000
  O   O5        1.0  0.89300  0.33200  0.23300  1.0000
  O   O6        1.0  0.60700  0.83200  0.23300  1.0000
  O   O7        1.0  0.71300  0.28700  0.24200  1.0000
  O   O8        1.0  0.78700  0.78700  0.24200  1.0000
  O   O9        1.0  0.28700  0.28700  0.25800  1.0000
  O   O10       1.0  0.21300  0.78700  0.25800  1.0000
  O   O11       1.0  0.10700  0.33200  0.26700  1.0000
  O   O12       1.0  0.39300  0.83200  0.26700  1.0000
  O   O13       1.0  0.50400  0.29500  0.40500  1.0000
  O   O14       1.0  0.99600  0.79500  0.40500  1.0000
  O   O15       1.0  0.80800  0.46200  0.45300  1.0000
  O   O16       1.0  0.69200  0.96200  0.45300  1.0000
  O   O17       1.0  0.30800  0.03770  0.54700  1.0000
  O   O18       1.0  0.19200  0.53800  0.54700  1.0000
  O   O19       1.0  0.00385  0.20500  0.59500  1.0000
  O   O20       1.0  0.49600  0.70500  0.59500  1.0000
  O   O21       1.0  0.60700  0.16800  0.73300  1.0000
  O   O22       1.0  0.89300  0.66800  0.73300  1.0000
  O   O23       1.0  0.78700  0.21300  0.74200  1.0000
  O   O24       1.0  0.71300  0.71300  0.74200  1.0000
  O   O25       1.0  0.21300  0.21300  0.75800  1.0000
  O   O26       1.0  0.28700  0.71300  0.75800  1.0000
  O   O27       1.0  0.39300  0.16800  0.76700  1.0000
  O   O28       1.0  0.10700  0.66800  0.76700  1.0000
  O   O29       1.0  0.99600  0.20500  0.90500  1.0000
  O   O30       1.0  0.50400  0.70500  0.90500  1.0000
  O   O31       1.0  0.69200  0.03770  0.95300  1.0000
  O   O32       1.0  0.80800  0.53800  0.95300  1.0000
  Tb  Tb1       1.0  0.86000  0.03930  0.02410  1.0000
  Tb  Tb2       1.0  0.64000  0.53900  0.02410  1.0000
  Tb  Tb3       1.0  0.14000  0.03930  0.47600  1.0000
  Tb  Tb4       1.0  0.36000  0.53900  0.47600  1.0000
  Tb  Tb5       1.0  0.64000  0.46100  0.52400  1.0000
  Tb  Tb6       1.0  0.86000  0.96100  0.52400  1.0000
  Tb  Tb7       1.0  0.36000  0.46100  0.97600  1.0000
  Tb  Tb8       1.0  0.14000  0.96100  0.97600  1.0000
