data_image0
_chemical_formula_structural       Ba2Nb8O34Ti6
_chemical_formula_sum              "Ba2 Nb8 O34 Ti6"
_cell_length_a       5.60753
_cell_length_b       5.60753
_cell_length_c       21.2165
_cell_angle_alpha    90
_cell_angle_beta     90
_cell_angle_gamma    106.781

_space_group_name_H-M_alt    "P 1"
_space_group_IT_number       1

loop_
  _space_group_symop_operation_xyz
  'x, y, z'

loop_
  _atom_site_type_symbol
  _atom_site_label
  _atom_site_symmetry_multiplicity
  _atom_site_fract_x
  _atom_site_fract_y
  _atom_site_fract_z
  _atom_site_occupancy
  Ba  Ba1       1.0  0.02730  0.97300  0.25000  1.0000
  Ba  Ba2       1.0  0.97300  0.02730  0.75000  1.0000
  Nb  Nb1       1.0  0.26700  0.73300  0.10600  1.0000
  Nb  Nb2       1.0  0.65900  0.34100  0.16000  1.0000
  Nb  Nb3       1.0  0.65900  0.34100  0.34000  1.0000
  Nb  Nb4       1.0  0.26700  0.73300  0.39400  1.0000
  Nb  Nb5       1.0  0.73300  0.26700  0.60600  1.0000
  Nb  Nb6       1.0  0.34100  0.65900  0.66000  1.0000
  Nb  Nb7       1.0  0.34100  0.65900  0.84000  1.0000
  Nb  Nb8       1.0  0.73300  0.26700  0.89400  1.0000
  O   O1        1.0  0.10800  0.89200  0.04240  1.0000
  O   O2        1.0  0.19400  0.41300  0.05070  1.0000
  O   O3        1.0  0.58700  0.80600  0.05070  1.0000
  O   O4        1.0  0.66900  0.33100  0.06250  1.0000
  O   O5        1.0  0.89000  0.11000  0.14100  1.0000
  O   O6        1.0  0.38600  0.01960  0.15900  1.0000
  O   O7        1.0  0.98000  0.61400  0.15900  1.0000
  O   O8        1.0  0.45300  0.54700  0.16500  1.0000
  O   O9        1.0  0.71200  0.28800  0.25000  1.0000
  O   O10       1.0  0.45300  0.54700  0.33500  1.0000
  O   O11       1.0  0.38600  0.01960  0.34100  1.0000
  O   O12       1.0  0.98000  0.61400  0.34100  1.0000
  O   O13       1.0  0.89000  0.11000  0.35900  1.0000
  O   O14       1.0  0.66900  0.33100  0.43700  1.0000
  O   O15       1.0  0.19400  0.41300  0.44900  1.0000
  O   O16       1.0  0.58700  0.80600  0.44900  1.0000
  O   O17       1.0  0.10800  0.89200  0.45800  1.0000
  O   O18       1.0  0.89200  0.10800  0.54200  1.0000
  O   O19       1.0  0.41300  0.19400  0.55100  1.0000
  O   O20       1.0  0.80600  0.58700  0.55100  1.0000
  O   O21       1.0  0.33100  0.66900  0.56300  1.0000
  O   O22       1.0  0.11000  0.89000  0.64100  1.0000
  O   O23       1.0  0.01960  0.38600  0.65900  1.0000
  O   O24       1.0  0.61400  0.98000  0.65900  1.0000
  O   O25       1.0  0.54700  0.45300  0.66500  1.0000
  O   O26       1.0  0.28800  0.71200  0.75000  1.0000
  O   O27       1.0  0.54700  0.45300  0.83500  1.0000
  O   O28       1.0  0.01960  0.38600  0.84100  1.0000
  O   O29       1.0  0.61400  0.98000  0.84100  1.0000
  O   O30       1.0  0.11000  0.89000  0.85900  1.0000
  O   O31       1.0  0.33100  0.66900  0.93700  1.0000
  O   O32       1.0  0.41300  0.19400  0.94900  1.0000
  O   O33       1.0  0.80600  0.58700  0.94900  1.0000
  O   O34       1.0  0.89200  0.10800  0.95800  1.0000
  Ti  Ti1       1.0  0.50000  0.50000  0.00000  1.0000
  Ti  Ti2       1.0  0.88900  0.11100  0.05560  1.0000
  Ti  Ti3       1.0  0.88900  0.11100  0.44400  1.0000
  Ti  Ti4       1.0  0.50000  0.50000  0.50000  1.0000
  Ti  Ti5       1.0  0.11100  0.88900  0.55600  1.0000
  Ti  Ti6       1.0  0.11100  0.88900  0.94400  1.0000
