data_image0
_chemical_formula_structural       Ba4H8O32S8
_chemical_formula_sum              "Ba4 H8 O32 S8"
_cell_length_a       4.64065
_cell_length_b       10.471
_cell_length_c       12.8652
_cell_angle_alpha    90
_cell_angle_beta     90
_cell_angle_gamma    90

_space_group_name_H-M_alt    "P 1"
_space_group_IT_number       1

loop_
  _space_group_symop_operation_xyz
  'x, y, z'

loop_
  _atom_site_type_symbol
  _atom_site_label
  _atom_site_symmetry_multiplicity
  _atom_site_fract_x
  _atom_site_fract_y
  _atom_site_fract_z
  _atom_site_occupancy
  Ba  Ba1       1.0  0.49200  0.05880  0.16200  1.0000
  Ba  Ba2       1.0  0.50800  0.55900  0.33800  1.0000
  Ba  Ba3       1.0  0.00780  0.94100  0.66200  1.0000
  Ba  Ba4       1.0  0.99200  0.44100  0.83800  1.0000
  H   H1        1.0  0.69600  0.73800  0.08670  1.0000
  H   H2        1.0  0.03230  0.42600  0.13800  1.0000
  H   H3        1.0  0.96800  0.92600  0.36200  1.0000
  H   H4        1.0  0.30400  0.23800  0.41300  1.0000
  H   H5        1.0  0.80400  0.26200  0.58700  1.0000
  H   H6        1.0  0.46800  0.57400  0.63800  1.0000
  H   H7        1.0  0.53200  0.07380  0.86200  1.0000
  H   H8        1.0  0.19600  0.76200  0.91300  1.0000
  O   O1        1.0  0.00561  0.05580  0.04600  1.0000
  O   O2        1.0  0.10200  0.43700  0.06450  1.0000
  O   O3        1.0  0.90200  0.76300  0.07540  1.0000
  O   O4        1.0  0.51900  0.29900  0.10200  1.0000
  O   O5        1.0  0.55500  0.52700  0.13100  1.0000
  O   O6        1.0  0.36300  0.79700  0.15200  1.0000
  O   O7        1.0  0.95100  0.89900  0.23100  1.0000
  O   O8        1.0  0.00910  0.66900  0.24700  1.0000
  O   O9        1.0  0.99100  0.16900  0.25300  1.0000
  O   O10       1.0  0.04910  0.39900  0.26900  1.0000
  O   O11       1.0  0.63700  0.29700  0.34800  1.0000
  O   O12       1.0  0.44400  0.02670  0.36900  1.0000
  O   O13       1.0  0.48100  0.79900  0.39800  1.0000
  O   O14       1.0  0.09850  0.26300  0.42500  1.0000
  O   O15       1.0  0.89800  0.93700  0.43500  1.0000
  O   O16       1.0  0.99400  0.55600  0.45400  1.0000
  O   O17       1.0  0.49400  0.94400  0.54600  1.0000
  O   O18       1.0  0.39800  0.56300  0.56500  1.0000
  O   O19       1.0  0.59800  0.23700  0.57500  1.0000
  O   O20       1.0  0.98100  0.70100  0.60200  1.0000
  O   O21       1.0  0.94500  0.47300  0.63100  1.0000
  O   O22       1.0  0.13700  0.20300  0.65200  1.0000
  O   O23       1.0  0.54900  0.10100  0.73100  1.0000
  O   O24       1.0  0.49100  0.33100  0.74700  1.0000
  O   O25       1.0  0.50900  0.83100  0.75300  1.0000
  O   O26       1.0  0.45100  0.60100  0.76900  1.0000
  O   O27       1.0  0.86300  0.70300  0.84800  1.0000
  O   O28       1.0  0.05550  0.97300  0.86900  1.0000
  O   O29       1.0  0.01850  0.20100  0.89800  1.0000
  O   O30       1.0  0.40200  0.73700  0.92500  1.0000
  O   O31       1.0  0.60200  0.06250  0.93500  1.0000
  O   O32       1.0  0.50600  0.44400  0.95400  1.0000
  S   S1        1.0  0.44300  0.42500  0.06450  1.0000
  S   S2        1.0  0.06220  0.78100  0.18200  1.0000
  S   S3        1.0  0.93800  0.28100  0.31800  1.0000
  S   S4        1.0  0.55700  0.92500  0.43600  1.0000
  S   S5        1.0  0.05650  0.57500  0.56400  1.0000
  S   S6        1.0  0.43800  0.21900  0.68200  1.0000
  S   S7        1.0  0.56200  0.71900  0.81800  1.0000
  S   S8        1.0  0.94300  0.07480  0.93600  1.0000
