data_image0
_chemical_formula_structural       Eu12Ge20Mg20
_chemical_formula_sum              "Eu12 Ge20 Mg20"
_cell_length_a       14.4526
_cell_length_b       4.49989
_cell_length_c       18.3882
_cell_angle_alpha    90
_cell_angle_beta     90
_cell_angle_gamma    90

_space_group_name_H-M_alt    "P 1"
_space_group_IT_number       1

loop_
  _space_group_symop_operation_xyz
  'x, y, z'

loop_
  _atom_site_type_symbol
  _atom_site_label
  _atom_site_symmetry_multiplicity
  _atom_site_fract_x
  _atom_site_fract_y
  _atom_site_fract_z
  _atom_site_occupancy
  Eu  Eu1       1.0  0.29000  0.75000  0.00847  1.0000
  Eu  Eu2       1.0  0.91200  0.25000  0.15400  1.0000
  Eu  Eu3       1.0  0.63600  0.25000  0.19200  1.0000
  Eu  Eu4       1.0  0.13600  0.25000  0.30800  1.0000
  Eu  Eu5       1.0  0.41200  0.25000  0.34600  1.0000
  Eu  Eu6       1.0  0.79000  0.75000  0.49200  1.0000
  Eu  Eu7       1.0  0.21000  0.25000  0.50800  1.0000
  Eu  Eu8       1.0  0.58800  0.75000  0.65400  1.0000
  Eu  Eu9       1.0  0.86400  0.75000  0.69200  1.0000
  Eu  Eu10      1.0  0.36400  0.75000  0.80800  1.0000
  Eu  Eu11      1.0  0.08800  0.75000  0.84600  1.0000
  Eu  Eu12      1.0  0.71000  0.25000  0.99200  1.0000
  Ge  Ge1       1.0  0.86800  0.75000  0.01710  1.0000
  Ge  Ge2       1.0  0.58800  0.75000  0.07530  1.0000
  Ge  Ge3       1.0  0.75600  0.75000  0.12200  1.0000
  Ge  Ge4       1.0  0.35100  0.25000  0.17400  1.0000
  Ge  Ge5       1.0  0.07910  0.75000  0.19100  1.0000
  Ge  Ge6       1.0  0.57900  0.75000  0.30900  1.0000
  Ge  Ge7       1.0  0.85100  0.25000  0.32600  1.0000
  Ge  Ge8       1.0  0.25600  0.75000  0.37800  1.0000
  Ge  Ge9       1.0  0.08830  0.75000  0.42500  1.0000
  Ge  Ge10      1.0  0.36800  0.75000  0.48300  1.0000
  Ge  Ge11      1.0  0.63200  0.25000  0.51700  1.0000
  Ge  Ge12      1.0  0.91200  0.25000  0.57500  1.0000
  Ge  Ge13      1.0  0.74400  0.25000  0.62200  1.0000
  Ge  Ge14      1.0  0.14900  0.75000  0.67400  1.0000
  Ge  Ge15      1.0  0.42100  0.25000  0.69100  1.0000
  Ge  Ge16      1.0  0.92100  0.25000  0.80900  1.0000
  Ge  Ge17      1.0  0.64900  0.75000  0.82600  1.0000
  Ge  Ge18      1.0  0.24400  0.25000  0.87800  1.0000
  Ge  Ge19      1.0  0.41200  0.25000  0.92500  1.0000
  Ge  Ge20      1.0  0.13200  0.25000  0.98300  1.0000
  Mg  Mg1       1.0  0.05290  0.75000  0.04400  1.0000
  Mg  Mg2       1.0  0.47600  0.25000  0.06150  1.0000
  Mg  Mg3       1.0  0.16500  0.25000  0.12900  1.0000
  Mg  Mg4       1.0  0.46300  0.75000  0.18900  1.0000
  Mg  Mg5       1.0  0.26500  0.75000  0.22500  1.0000
  Mg  Mg6       1.0  0.76500  0.75000  0.27500  1.0000
  Mg  Mg7       1.0  0.96300  0.75000  0.31100  1.0000
  Mg  Mg8       1.0  0.66500  0.25000  0.37100  1.0000
  Mg  Mg9       1.0  0.97600  0.25000  0.43800  1.0000
  Mg  Mg10      1.0  0.55300  0.75000  0.45600  1.0000
  Mg  Mg11      1.0  0.44700  0.25000  0.54400  1.0000
  Mg  Mg12      1.0  0.02440  0.75000  0.56200  1.0000
  Mg  Mg13      1.0  0.33500  0.75000  0.62900  1.0000
  Mg  Mg14      1.0  0.03700  0.25000  0.68900  1.0000
  Mg  Mg15      1.0  0.23500  0.25000  0.72500  1.0000
  Mg  Mg16      1.0  0.73500  0.25000  0.77500  1.0000
  Mg  Mg17      1.0  0.53700  0.25000  0.81100  1.0000
  Mg  Mg18      1.0  0.83500  0.75000  0.87100  1.0000
  Mg  Mg19      1.0  0.52400  0.75000  0.93800  1.0000
  Mg  Mg20      1.0  0.94700  0.25000  0.95600  1.0000
