data_image0
_chemical_formula_structural       Al3F6Na15O24P6
_chemical_formula_sum              "Al3 F6 Na15 O24 P6"
_cell_length_a       10.3935
_cell_length_b       10.3935
_cell_length_c       6.53529
_cell_angle_alpha    89.9999
_cell_angle_beta     90.0001
_cell_angle_gamma    120

_space_group_name_H-M_alt    "P 1"
_space_group_IT_number       1

loop_
  _space_group_symop_operation_xyz
  'x, y, z'

loop_
  _atom_site_type_symbol
  _atom_site_label
  _atom_site_symmetry_multiplicity
  _atom_site_fract_x
  _atom_site_fract_y
  _atom_site_fract_z
  _atom_site_occupancy
  Al  Al1       1.0  0.50000  0.00000  0.50000  1.0000
  Al  Al2       1.0  0.00000  0.50000  0.50000  1.0000
  Al  Al3       1.0  0.50000  0.50000  0.50000  1.0000
  F   F1        1.0  0.48100  0.86100  0.30800  1.0000
  F   F2        1.0  0.38100  0.51900  0.30800  1.0000
  F   F3        1.0  0.13900  0.61900  0.30800  1.0000
  F   F4        1.0  0.86100  0.38100  0.69200  1.0000
  F   F5        1.0  0.61900  0.48100  0.69200  1.0000
  F   F6        1.0  0.51900  0.13900  0.69200  1.0000
  Na  Na1       1.0  0.00000  0.00000  0.00000  1.0000
  Na  Na2       1.0  0.50000  0.00000  0.00000  1.0000
  Na  Na3       1.0  0.00000  0.50000  0.00000  1.0000
  Na  Na4       1.0  0.50000  0.50000  0.00000  1.0000
  Na  Na5       1.0  0.33300  0.66700  0.08370  1.0000
  Na  Na6       1.0  0.16700  0.85400  0.26700  1.0000
  Na  Na7       1.0  0.68700  0.83300  0.26700  1.0000
  Na  Na8       1.0  0.14600  0.31300  0.26700  1.0000
  Na  Na9       1.0  0.66700  0.33300  0.47200  1.0000
  Na  Na10      1.0  0.00000  0.00000  0.50000  1.0000
  Na  Na11      1.0  0.33300  0.66700  0.52800  1.0000
  Na  Na12      1.0  0.85400  0.68700  0.73300  1.0000
  Na  Na13      1.0  0.31300  0.16700  0.73300  1.0000
  Na  Na14      1.0  0.83300  0.14600  0.73300  1.0000
  Na  Na15      1.0  0.66700  0.33300  0.91600  1.0000
  O   O1        1.0  0.82700  0.57000  0.03980  1.0000
  O   O2        1.0  0.43000  0.25800  0.03980  1.0000
  O   O3        1.0  0.74200  0.17300  0.03980  1.0000
  O   O4        1.0  0.89900  0.09660  0.25500  1.0000
  O   O5        1.0  0.90300  0.80200  0.25500  1.0000
  O   O6        1.0  0.19800  0.10100  0.25500  1.0000
  O   O7        1.0  0.64900  0.57000  0.29500  1.0000
  O   O8        1.0  0.43000  0.07860  0.29500  1.0000
  O   O9        1.0  0.92100  0.35100  0.29500  1.0000
  O   O10       1.0  0.87300  0.57000  0.42300  1.0000
  O   O11       1.0  0.43000  0.30300  0.42300  1.0000
  O   O12       1.0  0.69700  0.12700  0.42300  1.0000
  O   O13       1.0  0.30300  0.87300  0.57700  1.0000
  O   O14       1.0  0.57000  0.69700  0.57700  1.0000
  O   O15       1.0  0.12700  0.43000  0.57700  1.0000
  O   O16       1.0  0.57000  0.92100  0.70500  1.0000
  O   O17       1.0  0.35100  0.43000  0.70500  1.0000
  O   O18       1.0  0.07860  0.64900  0.70500  1.0000
  O   O19       1.0  0.80200  0.89900  0.74500  1.0000
  O   O20       1.0  0.09660  0.19800  0.74500  1.0000
  O   O21       1.0  0.10100  0.90300  0.74500  1.0000
  O   O22       1.0  0.25800  0.82700  0.96000  1.0000
  O   O23       1.0  0.57000  0.74200  0.96000  1.0000
  O   O24       1.0  0.17300  0.43000  0.96000  1.0000
  P   P1        1.0  0.81700  0.63100  0.24800  1.0000
  P   P2        1.0  0.81500  0.18300  0.24800  1.0000
  P   P3        1.0  0.36900  0.18500  0.24800  1.0000
  P   P4        1.0  0.63100  0.81500  0.75200  1.0000
  P   P5        1.0  0.18500  0.81700  0.75200  1.0000
  P   P6        1.0  0.18300  0.36900  0.75200  1.0000
