data_image0
_chemical_formula_structural       Cu4K12P8S28
_chemical_formula_sum              "Cu4 K12 P8 S28"
_cell_length_a       13.2175
_cell_length_b       6.73899
_cell_length_c       15.2171
_cell_angle_alpha    90
_cell_angle_beta     98.7999
_cell_angle_gamma    90

_space_group_name_H-M_alt    "P 1"
_space_group_IT_number       1

loop_
  _space_group_symop_operation_xyz
  'x, y, z'

loop_
  _atom_site_type_symbol
  _atom_site_label
  _atom_site_symmetry_multiplicity
  _atom_site_fract_x
  _atom_site_fract_y
  _atom_site_fract_z
  _atom_site_occupancy
  Cu  Cu1       1.0  0.93500  0.97900  0.19500  1.0000
  Cu  Cu2       1.0  0.43500  0.52100  0.19500  1.0000
  Cu  Cu3       1.0  0.06470  0.02080  0.80500  1.0000
  Cu  Cu4       1.0  0.56500  0.47900  0.80500  1.0000
  K   K1        1.0  0.65800  0.15100  0.07230  1.0000
  K   K2        1.0  0.15800  0.34900  0.07230  1.0000
  K   K3        1.0  0.18400  0.76000  0.30100  1.0000
  K   K4        1.0  0.68400  0.74000  0.30100  1.0000
  K   K5        1.0  0.59700  0.27900  0.47300  1.0000
  K   K6        1.0  0.09680  0.22100  0.47300  1.0000
  K   K7        1.0  0.40300  0.72100  0.52700  1.0000
  K   K8        1.0  0.90300  0.77900  0.52700  1.0000
  K   K9        1.0  0.81600  0.24000  0.69900  1.0000
  K   K10       1.0  0.31600  0.26000  0.69900  1.0000
  K   K11       1.0  0.84200  0.65100  0.92800  1.0000
  K   K12       1.0  0.34200  0.84900  0.92800  1.0000
  P   P1        1.0  0.88600  0.50000  0.16200  1.0000
  P   P2        1.0  0.38600  0.00000  0.16200  1.0000
  P   P3        1.0  0.83100  0.24000  0.35400  1.0000
  P   P4        1.0  0.33100  0.26000  0.35400  1.0000
  P   P5        1.0  0.66900  0.74000  0.64600  1.0000
  P   P6        1.0  0.16900  0.76000  0.64600  1.0000
  P   P7        1.0  0.11400  0.50000  0.83800  1.0000
  P   P8        1.0  0.61400  0.00021  0.83800  1.0000
  S   S1        1.0  0.91700  0.23600  0.10400  1.0000
  S   S2        1.0  0.41700  0.26400  0.10400  1.0000
  S   S3        1.0  0.74500  0.60200  0.11600  1.0000
  S   S4        1.0  0.24500  0.89800  0.11600  1.0000
  S   S5        1.0  0.49600  0.79800  0.14000  1.0000
  S   S6        1.0  0.99600  0.70200  0.14000  1.0000
  S   S7        1.0  0.68500  0.23700  0.29300  1.0000
  S   S8        1.0  0.18500  0.26300  0.29300  1.0000
  S   S9        1.0  0.91400  0.48400  0.30700  1.0000
  S   S10       1.0  0.41400  0.01620  0.30700  1.0000
  S   S11       1.0  0.90700  0.98000  0.33500  1.0000
  S   S12       1.0  0.40700  0.52000  0.33500  1.0000
  S   S13       1.0  0.85300  0.30400  0.48600  1.0000
  S   S14       1.0  0.35300  0.19600  0.48600  1.0000
  S   S15       1.0  0.14700  0.69600  0.51400  1.0000
  S   S16       1.0  0.64700  0.80400  0.51400  1.0000
  S   S17       1.0  0.59300  0.48000  0.66500  1.0000
  S   S18       1.0  0.09260  0.02000  0.66500  1.0000
  S   S19       1.0  0.08610  0.51600  0.69300  1.0000
  S   S20       1.0  0.58600  0.98400  0.69300  1.0000
  S   S21       1.0  0.31500  0.76300  0.70700  1.0000
  S   S22       1.0  0.81500  0.73700  0.70700  1.0000
  S   S23       1.0  0.50400  0.20200  0.86000  1.0000
  S   S24       1.0  0.00352  0.29800  0.86000  1.0000
  S   S25       1.0  0.25500  0.39800  0.88400  1.0000
  S   S26       1.0  0.75500  0.10200  0.88400  1.0000
  S   S27       1.0  0.08270  0.76400  0.89600  1.0000
  S   S28       1.0  0.58300  0.73600  0.89600  1.0000
