data_image0
_chemical_formula_structural       H24Mg2O22P4
_chemical_formula_sum              "H24 Mg2 O22 P4"
_cell_length_a       7.54865
_cell_length_b       8.87296
_cell_length_c       7.36224
_cell_angle_alpha    95.0651
_cell_angle_beta     107.84
_cell_angle_gamma    68.4459

_space_group_name_H-M_alt    "P 1"
_space_group_IT_number       1

loop_
  _space_group_symop_operation_xyz
  'x, y, z'

loop_
  _atom_site_type_symbol
  _atom_site_label
  _atom_site_symmetry_multiplicity
  _atom_site_fract_x
  _atom_site_fract_y
  _atom_site_fract_z
  _atom_site_occupancy
  H   H1        1.0  0.94500  0.38400  0.02160  1.0000
  H   H2        1.0  0.73900  0.14400  0.03140  1.0000
  H   H3        1.0  0.41400  0.22400  0.08710  1.0000
  H   H4        1.0  0.49600  0.59900  0.13400  1.0000
  H   H5        1.0  0.98700  0.84300  0.15500  1.0000
  H   H6        1.0  0.81100  0.43800  0.16300  1.0000
  H   H7        1.0  0.44300  0.38600  0.17500  1.0000
  H   H8        1.0  0.97000  0.05640  0.19200  1.0000
  H   H9        1.0  0.88800  0.05560  0.23100  1.0000
  H   H10       1.0  0.74200  0.86700  0.31900  1.0000
  H   H11       1.0  0.63100  0.50800  0.33400  1.0000
  H   H12       1.0  0.33500  0.80300  0.49400  1.0000
  H   H13       1.0  0.66500  0.19700  0.50600  1.0000
  H   H14       1.0  0.36900  0.49200  0.66600  1.0000
  H   H15       1.0  0.25800  0.13300  0.68100  1.0000
  H   H16       1.0  0.11200  0.94400  0.76900  1.0000
  H   H17       1.0  0.02990  0.94400  0.80800  1.0000
  H   H18       1.0  0.55700  0.61400  0.82500  1.0000
  H   H19       1.0  0.18900  0.56200  0.83700  1.0000
  H   H20       1.0  0.01310  0.15700  0.84500  1.0000
  H   H21       1.0  0.50400  0.40100  0.86600  1.0000
  H   H22       1.0  0.58600  0.77600  0.91300  1.0000
  H   H23       1.0  0.26100  0.85600  0.96900  1.0000
  H   H24       1.0  0.05500  0.61600  0.97800  1.0000
  Mg  Mg1       1.0  0.22300  0.29200  0.34800  1.0000
  Mg  Mg2       1.0  0.77700  0.70800  0.65200  1.0000
  O   O1        1.0  0.37400  0.80100  0.07860  1.0000
  O   O2        1.0  0.95100  0.40100  0.15700  1.0000
  O   O3        1.0  0.35700  0.31900  0.15700  1.0000
  O   O4        1.0  0.05840  0.72800  0.19000  1.0000
  O   O5        1.0  0.58200  0.49100  0.19300  1.0000
  O   O6        1.0  0.25100  0.07080  0.22300  1.0000
  O   O7        1.0  0.61500  0.94700  0.22400  1.0000
  O   O8        1.0  0.50100  0.81500  0.43300  1.0000
  O   O9        1.0  0.23100  0.51300  0.44600  1.0000
  O   O10       1.0  0.90400  0.74100  0.45600  1.0000
  O   O11       1.0  0.78800  0.19700  0.47100  1.0000
  O   O12       1.0  0.21200  0.80300  0.52900  1.0000
  O   O13       1.0  0.09620  0.25900  0.54400  1.0000
  O   O14       1.0  0.76900  0.48700  0.55400  1.0000
  O   O15       1.0  0.49900  0.18500  0.56700  1.0000
  O   O16       1.0  0.38500  0.05340  0.77600  1.0000
  O   O17       1.0  0.74900  0.92900  0.77700  1.0000
  O   O18       1.0  0.41800  0.50900  0.80700  1.0000
  O   O19       1.0  0.94200  0.27200  0.81000  1.0000
  O   O20       1.0  0.64300  0.68100  0.84300  1.0000
  O   O21       1.0  0.04890  0.59900  0.84300  1.0000
  O   O22       1.0  0.62600  0.19900  0.92100  1.0000
  P   P1        1.0  0.43000  0.91700  0.25000  1.0000
  P   P2        1.0  0.10200  0.69000  0.41300  1.0000
  P   P3        1.0  0.89800  0.31000  0.58700  1.0000
  P   P4        1.0  0.57000  0.08260  0.75000  1.0000
