data_image0
_chemical_formula_structural       Bi2Cl9Cs3
_chemical_formula_sum              "Bi2 Cl9 Cs3"
_cell_length_a       7.79518
_cell_length_b       7.79557
_cell_length_c       9.52556
_cell_angle_alpha    90
_cell_angle_beta     89.9959
_cell_angle_gamma    120.002

_space_group_name_H-M_alt    "P 1"
_space_group_IT_number       1

loop_
  _space_group_symop_operation_xyz
  'x, y, z'

loop_
  _atom_site_type_symbol
  _atom_site_label
  _atom_site_symmetry_multiplicity
  _atom_site_fract_x
  _atom_site_fract_y
  _atom_site_fract_z
  _atom_site_occupancy
  Bi  Bi1       1.0  0.66700  0.33300  0.18400  1.0000
  Bi  Bi2       1.0  0.33300  0.66700  0.81600  1.0000
  Cl  Cl1       1.0  0.46600  0.00000  0.00000  1.0000
  Cl  Cl2       1.0  0.00000  0.46600  0.00000  1.0000
  Cl  Cl3       1.0  0.53400  0.53400  0.00000  1.0000
  Cl  Cl4       1.0  0.34400  0.19500  0.33200  1.0000
  Cl  Cl5       1.0  0.80500  0.14900  0.33200  1.0000
  Cl  Cl6       1.0  0.85100  0.65700  0.33200  1.0000
  Cl  Cl7       1.0  0.14900  0.80500  0.66800  1.0000
  Cl  Cl8       1.0  0.19500  0.34300  0.66800  1.0000
  Cl  Cl9       1.0  0.65600  0.85100  0.66800  1.0000
  Cs  Cs1       1.0  0.00000  0.00000  1.00000  1.0000
  Cs  Cs2       1.0  0.33300  0.66700  0.34000  1.0000
  Cs  Cs3       1.0  0.66700  0.33300  0.66000  1.0000
