data_image0
_chemical_formula_structural       B4C16Li4O32
_chemical_formula_sum              "B4 C16 Li4 O32"
_cell_length_a       6.26891
_cell_length_b       7.28389
_cell_length_c       12.7685
_cell_angle_alpha    90
_cell_angle_beta     90
_cell_angle_gamma    90

_space_group_name_H-M_alt    "P 1"
_space_group_IT_number       1

loop_
  _space_group_symop_operation_xyz
  'x, y, z'

loop_
  _atom_site_type_symbol
  _atom_site_label
  _atom_site_symmetry_multiplicity
  _atom_site_fract_x
  _atom_site_fract_y
  _atom_site_fract_z
  _atom_site_occupancy
  B   B1        1.0  0.40300  0.75000  0.04510  1.0000
  B   B2        1.0  0.90300  0.75000  0.45500  1.0000
  B   B3        1.0  0.09740  0.25000  0.54500  1.0000
  B   B4        1.0  0.59700  0.25000  0.95500  1.0000
  C   C1        1.0  0.25500  0.25000  0.01290  1.0000
  C   C2        1.0  0.40500  0.25000  0.10600  1.0000
  C   C3        1.0  0.13300  0.64500  0.15000  1.0000
  C   C4        1.0  0.13300  0.85500  0.15000  1.0000
  C   C5        1.0  0.63300  0.64500  0.35000  1.0000
  C   C6        1.0  0.63300  0.85500  0.35000  1.0000
  C   C7        1.0  0.90500  0.25000  0.39400  1.0000
  C   C8        1.0  0.75500  0.25000  0.48700  1.0000
  C   C9        1.0  0.24500  0.75000  0.51300  1.0000
  C   C10       1.0  0.09540  0.75000  0.60600  1.0000
  C   C11       1.0  0.36700  0.14500  0.65000  1.0000
  C   C12       1.0  0.36700  0.35500  0.65000  1.0000
  C   C13       1.0  0.86700  0.14500  0.85000  1.0000
  C   C14       1.0  0.86700  0.35500  0.85000  1.0000
  C   C15       1.0  0.59500  0.75000  0.89400  1.0000
  C   C16       1.0  0.74500  0.75000  0.98700  1.0000
  Li  Li1       1.0  0.00180  0.25000  0.17800  1.0000
  Li  Li2       1.0  0.50200  0.25000  0.32200  1.0000
  Li  Li3       1.0  0.49800  0.75000  0.67800  1.0000
  Li  Li4       1.0  0.99800  0.75000  0.82200  1.0000
  O   O1        1.0  0.06050  0.25000  0.02170  1.0000
  O   O2        1.0  0.60300  0.25000  0.07270  1.0000
  O   O3        1.0  0.63300  0.75000  0.07380  1.0000
  O   O4        1.0  0.29300  0.59000  0.08800  1.0000
  O   O5        1.0  0.29300  0.91000  0.08800  1.0000
  O   O6        1.0  0.00846  0.54300  0.19400  1.0000
  O   O7        1.0  0.00846  0.95700  0.19400  1.0000
  O   O8        1.0  0.34000  0.25000  0.19600  1.0000
  O   O9        1.0  0.84000  0.25000  0.30400  1.0000
  O   O10       1.0  0.50800  0.54300  0.30600  1.0000
  O   O11       1.0  0.50800  0.95700  0.30600  1.0000
  O   O12       1.0  0.79300  0.59000  0.41200  1.0000
  O   O13       1.0  0.79300  0.91000  0.41200  1.0000
  O   O14       1.0  0.13300  0.75000  0.42600  1.0000
  O   O15       1.0  0.10300  0.25000  0.42700  1.0000
  O   O16       1.0  0.56100  0.25000  0.47800  1.0000
  O   O17       1.0  0.43900  0.75000  0.52200  1.0000
  O   O18       1.0  0.89700  0.75000  0.57300  1.0000
  O   O19       1.0  0.86700  0.25000  0.57400  1.0000
  O   O20       1.0  0.20700  0.09000  0.58800  1.0000
  O   O21       1.0  0.20700  0.41000  0.58800  1.0000
  O   O22       1.0  0.49200  0.04340  0.69400  1.0000
  O   O23       1.0  0.49200  0.45700  0.69400  1.0000
  O   O24       1.0  0.16000  0.75000  0.69600  1.0000
  O   O25       1.0  0.66000  0.75000  0.80400  1.0000
  O   O26       1.0  0.99200  0.04340  0.80600  1.0000
  O   O27       1.0  0.99200  0.45700  0.80600  1.0000
  O   O28       1.0  0.70700  0.09000  0.91200  1.0000
  O   O29       1.0  0.70700  0.41000  0.91200  1.0000
  O   O30       1.0  0.36700  0.25000  0.92600  1.0000
  O   O31       1.0  0.39700  0.75000  0.92700  1.0000
  O   O32       1.0  0.93900  0.75000  0.97800  1.0000
