data_image0
_chemical_formula_structural       Ga4H8K2Mn2O28P6
_chemical_formula_sum              "Ga4 H8 K2 Mn2 O28 P6"
_cell_length_a       8.39098
_cell_length_b       8.39098
_cell_length_c       8.84943
_cell_angle_alpha    104.307
_cell_angle_beta     104.307
_cell_angle_gamma    73.7383

_space_group_name_H-M_alt    "P 1"
_space_group_IT_number       1

loop_
  _space_group_symop_operation_xyz
  'x, y, z'

loop_
  _atom_site_type_symbol
  _atom_site_label
  _atom_site_symmetry_multiplicity
  _atom_site_fract_x
  _atom_site_fract_y
  _atom_site_fract_z
  _atom_site_occupancy
  Ga  Ga1       1.0  0.74400  0.59600  0.06820  1.0000
  Ga  Ga2       1.0  0.40400  0.25600  0.43200  1.0000
  Ga  Ga3       1.0  0.59600  0.74400  0.56800  1.0000
  Ga  Ga4       1.0  0.25600  0.40400  0.93200  1.0000
  H   H1        1.0  0.27000  0.03650  0.01190  1.0000
  H   H2        1.0  0.41600  0.87800  0.05730  1.0000
  H   H3        1.0  0.12200  0.58400  0.44300  1.0000
  H   H4        1.0  0.96300  0.73000  0.48800  1.0000
  H   H5        1.0  0.03650  0.27000  0.51200  1.0000
  H   H6        1.0  0.87800  0.41600  0.55700  1.0000
  H   H7        1.0  0.58400  0.12200  0.94300  1.0000
  H   H8        1.0  0.73000  0.96300  0.98800  1.0000
  K   K1        1.0  0.13700  0.86300  0.25000  1.0000
  K   K2        1.0  0.86300  0.13700  0.75000  1.0000
  Mn  Mn1       1.0  0.78000  0.22000  0.25000  1.0000
  Mn  Mn2       1.0  0.22000  0.78000  0.75000  1.0000
  O   O1        1.0  0.70200  0.08840  0.00000  1.0000
  O   O2        1.0  0.29800  0.91200  0.00000  1.0000
  O   O3        1.0  0.19000  0.26600  0.04390  1.0000
  O   O4        1.0  0.33900  0.54500  0.11600  1.0000
  O   O5        1.0  0.96400  0.50800  0.15700  1.0000
  O   O6        1.0  0.61000  0.79700  0.15900  1.0000
  O   O7        1.0  0.00769  0.19500  0.18500  1.0000
  O   O8        1.0  0.66400  0.48000  0.19800  1.0000
  O   O9        1.0  0.52000  0.33600  0.30200  1.0000
  O   O10       1.0  0.80500  0.99200  0.31500  1.0000
  O   O11       1.0  0.20300  0.39000  0.34100  1.0000
  O   O12       1.0  0.49200  0.03610  0.34300  1.0000
  O   O13       1.0  0.45500  0.66100  0.38400  1.0000
  O   O14       1.0  0.73400  0.81000  0.45600  1.0000
  O   O15       1.0  0.91200  0.29800  0.50000  1.0000
  O   O16       1.0  0.08840  0.70200  0.50000  1.0000
  O   O17       1.0  0.26600  0.19000  0.54400  1.0000
  O   O18       1.0  0.54500  0.33900  0.61600  1.0000
  O   O19       1.0  0.50800  0.96400  0.65700  1.0000
  O   O20       1.0  0.79700  0.61000  0.65900  1.0000
  O   O21       1.0  0.19500  0.00769  0.68500  1.0000
  O   O22       1.0  0.48000  0.66400  0.69800  1.0000
  O   O23       1.0  0.33600  0.52000  0.80200  1.0000
  O   O24       1.0  0.99200  0.80500  0.81500  1.0000
  O   O25       1.0  0.39000  0.20300  0.84100  1.0000
  O   O26       1.0  0.03610  0.49200  0.84300  1.0000
  O   O27       1.0  0.66100  0.45500  0.88400  1.0000
  O   O28       1.0  0.81000  0.73400  0.95600  1.0000
  P   P1        1.0  0.08630  0.33600  0.17900  1.0000
  P   P2        1.0  0.49300  0.50700  0.25000  1.0000
  P   P3        1.0  0.66400  0.91400  0.32100  1.0000
  P   P4        1.0  0.33600  0.08630  0.67900  1.0000
  P   P5        1.0  0.50700  0.49300  0.75000  1.0000
  P   P6        1.0  0.91400  0.66400  0.82100  1.0000
