data_image0
_chemical_formula_structural       F32O8Re4Sb4
_chemical_formula_sum              "F32 O8 Re4 Sb4"
_cell_length_a       5.04961
_cell_length_b       9.35638
_cell_length_c       11.7126
_cell_angle_alpha    89.9971
_cell_angle_beta     97.2325
_cell_angle_gamma    90.0046

_space_group_name_H-M_alt    "P 1"
_space_group_IT_number       1

loop_
  _space_group_symop_operation_xyz
  'x, y, z'

loop_
  _atom_site_type_symbol
  _atom_site_label
  _atom_site_symmetry_multiplicity
  _atom_site_fract_x
  _atom_site_fract_y
  _atom_site_fract_z
  _atom_site_occupancy
  F   F1        1.0  0.69800  0.41700  0.05000  1.0000
  F   F2        1.0  0.19300  0.83600  0.05040  1.0000
  F   F3        1.0  0.20900  0.32900  0.05220  1.0000
  F   F4        1.0  0.70000  0.92100  0.05510  1.0000
  F   F5        1.0  0.58300  0.16800  0.14400  1.0000
  F   F6        1.0  0.08920  0.58000  0.14800  1.0000
  F   F7        1.0  0.09990  0.08850  0.15200  1.0000
  F   F8        1.0  0.00894  0.32400  0.24300  1.0000
  F   F9        1.0  0.99100  0.82400  0.25700  1.0000
  F   F10       1.0  0.90000  0.58900  0.34800  1.0000
  F   F11       1.0  0.91100  0.08000  0.35200  1.0000
  F   F12       1.0  0.41700  0.66800  0.35600  1.0000
  F   F13       1.0  0.30000  0.42100  0.44500  1.0000
  F   F14       1.0  0.79100  0.82900  0.44800  1.0000
  F   F15       1.0  0.80700  0.33600  0.45000  1.0000
  F   F16       1.0  0.30200  0.91700  0.45000  1.0000
  F   F17       1.0  0.69800  0.08360  0.55000  1.0000
  F   F18       1.0  0.19300  0.66400  0.55100  1.0000
  F   F19       1.0  0.20900  0.17100  0.55200  1.0000
  F   F20       1.0  0.69900  0.57900  0.55500  1.0000
  F   F21       1.0  0.58200  0.33200  0.64300  1.0000
  F   F22       1.0  0.08900  0.92000  0.64800  1.0000
  F   F23       1.0  0.09950  0.41100  0.65200  1.0000
  F   F24       1.0  0.00872  0.17600  0.74300  1.0000
  F   F25       1.0  0.99100  0.67600  0.75700  1.0000
  F   F26       1.0  0.90100  0.91100  0.84800  1.0000
  F   F27       1.0  0.91100  0.41900  0.85200  1.0000
  F   F28       1.0  0.41800  0.83200  0.85700  1.0000
  F   F29       1.0  0.30100  0.07940  0.94500  1.0000
  F   F30       1.0  0.79100  0.67100  0.94800  1.0000
  F   F31       1.0  0.80700  0.16400  0.94900  1.0000
  F   F32       1.0  0.30200  0.58400  0.95000  1.0000
  O   O1        1.0  0.57900  0.67200  0.14600  1.0000
  O   O2        1.0  0.48300  0.91800  0.24700  1.0000
  O   O3        1.0  0.51700  0.41700  0.25300  1.0000
  O   O4        1.0  0.42100  0.17200  0.35400  1.0000
  O   O5        1.0  0.57900  0.82800  0.64600  1.0000
  O   O6        1.0  0.48300  0.58300  0.74800  1.0000
  O   O7        1.0  0.51700  0.08260  0.75200  1.0000
  O   O8        1.0  0.42100  0.32800  0.85400  1.0000
  Re  Re1       1.0  0.35100  0.26100  0.22800  1.0000
  Re  Re2       1.0  0.64900  0.76100  0.27100  1.0000
  Re  Re3       1.0  0.35100  0.23900  0.72800  1.0000
  Re  Re4       1.0  0.64900  0.73900  0.77200  1.0000
  Sb  Sb1       1.0  0.00037  0.00000  0.00000  1.0000
  Sb  Sb2       1.0  0.00000  0.50000  0.00014  1.0000
  Sb  Sb3       1.0  0.00000  0.00000  0.50000  1.0000
  Sb  Sb4       1.0  0.00000  0.50000  0.50000  1.0000
