data_image0
_chemical_formula_structural       Ba8O32Si12
_chemical_formula_sum              "Ba8 O32 Si12"
_cell_length_a       12.42
_cell_length_b       4.66187
_cell_length_c       13.9407
_cell_angle_alpha    90
_cell_angle_beta     93.2786
_cell_angle_gamma    90

_space_group_name_H-M_alt    "P 1"
_space_group_IT_number       1

loop_
  _space_group_symop_operation_xyz
  'x, y, z'

loop_
  _atom_site_type_symbol
  _atom_site_label
  _atom_site_symmetry_multiplicity
  _atom_site_fract_x
  _atom_site_fract_y
  _atom_site_fract_z
  _atom_site_occupancy
  Ba  Ba1       1.0  0.85600  0.25200  0.03170  1.0000
  Ba  Ba2       1.0  0.58300  0.77000  0.11100  1.0000
  Ba  Ba3       1.0  0.41700  0.27000  0.38900  1.0000
  Ba  Ba4       1.0  0.14400  0.75200  0.46800  1.0000
  Ba  Ba5       1.0  0.85600  0.24800  0.53200  1.0000
  Ba  Ba6       1.0  0.58300  0.73000  0.61100  1.0000
  Ba  Ba7       1.0  0.41700  0.23000  0.88900  1.0000
  Ba  Ba8       1.0  0.14400  0.74800  0.96800  1.0000
  O   O1        1.0  0.26500  0.27100  0.02100  1.0000
  O   O2        1.0  0.47300  0.24900  0.08410  1.0000
  O   O3        1.0  0.96200  0.73900  0.08900  1.0000
  O   O4        1.0  0.35600  0.65800  0.14900  1.0000
  O   O5        1.0  0.71200  0.23800  0.16600  1.0000
  O   O6        1.0  0.15500  0.78300  0.17200  1.0000
  O   O7        1.0  0.31500  0.15800  0.21100  1.0000
  O   O8        1.0  0.00359  0.16500  0.21200  1.0000
  O   O9        1.0  0.99600  0.66500  0.28800  1.0000
  O   O10       1.0  0.68500  0.65800  0.28900  1.0000
  O   O11       1.0  0.84500  0.28300  0.32800  1.0000
  O   O12       1.0  0.28800  0.73800  0.33400  1.0000
  O   O13       1.0  0.64400  0.15800  0.35100  1.0000
  O   O14       1.0  0.03830  0.23900  0.41100  1.0000
  O   O15       1.0  0.52700  0.74900  0.41600  1.0000
  O   O16       1.0  0.73500  0.77100  0.47900  1.0000
  O   O17       1.0  0.26500  0.22900  0.52100  1.0000
  O   O18       1.0  0.47300  0.25100  0.58400  1.0000
  O   O19       1.0  0.96200  0.76100  0.58900  1.0000
  O   O20       1.0  0.35600  0.84200  0.64900  1.0000
  O   O21       1.0  0.71200  0.26200  0.66600  1.0000
  O   O22       1.0  0.15500  0.71700  0.67200  1.0000
  O   O23       1.0  0.31500  0.34200  0.71100  1.0000
  O   O24       1.0  0.00359  0.33500  0.71200  1.0000
  O   O25       1.0  0.99600  0.83500  0.78800  1.0000
  O   O26       1.0  0.68500  0.84200  0.78900  1.0000
  O   O27       1.0  0.84500  0.21700  0.82800  1.0000
  O   O28       1.0  0.28800  0.76200  0.83400  1.0000
  O   O29       1.0  0.64400  0.34200  0.85100  1.0000
  O   O30       1.0  0.03830  0.26100  0.91100  1.0000
  O   O31       1.0  0.52700  0.75100  0.91600  1.0000
  O   O32       1.0  0.73500  0.72900  0.97900  1.0000
  Si  Si1       1.0  0.35100  0.31800  0.11000  1.0000
  Si  Si2       1.0  0.02510  0.82300  0.18700  1.0000
  Si  Si3       1.0  0.27600  0.82200  0.22300  1.0000
  Si  Si4       1.0  0.72400  0.32200  0.27700  1.0000
  Si  Si5       1.0  0.97500  0.32300  0.31300  1.0000
  Si  Si6       1.0  0.64900  0.81800  0.39000  1.0000
  Si  Si7       1.0  0.35100  0.18200  0.61000  1.0000
  Si  Si8       1.0  0.02510  0.67700  0.68700  1.0000
  Si  Si9       1.0  0.27600  0.67800  0.72300  1.0000
  Si  Si10      1.0  0.72400  0.17800  0.77700  1.0000
  Si  Si11      1.0  0.97500  0.17700  0.81300  1.0000
  Si  Si12      1.0  0.64900  0.68200  0.89000  1.0000
