data_image0
_chemical_formula_structural       Ge4Nd16O32
_chemical_formula_sum              "Ge4 Nd16 O32"
_cell_length_a       7.46569
_cell_length_b       5.73952
_cell_length_c       17.9363
_cell_angle_alpha    90
_cell_angle_beta     90
_cell_angle_gamma    90

_space_group_name_H-M_alt    "P 1"
_space_group_IT_number       1

loop_
  _space_group_symop_operation_xyz
  'x, y, z'

loop_
  _atom_site_type_symbol
  _atom_site_label
  _atom_site_symmetry_multiplicity
  _atom_site_fract_x
  _atom_site_fract_y
  _atom_site_fract_z
  _atom_site_occupancy
  Ge  Ge1       1.0  0.50000  0.26000  0.18000  1.0000
  Ge  Ge2       1.0  0.00000  0.75900  0.29700  1.0000
  Ge  Ge3       1.0  0.50000  0.74000  0.68000  1.0000
  Ge  Ge4       1.0  0.00000  0.24100  0.79700  1.0000
  Nd  Nd1       1.0  0.00000  0.27100  0.00214  1.0000
  Nd  Nd2       1.0  0.24100  0.77400  0.09140  1.0000
  Nd  Nd3       1.0  0.75900  0.77400  0.09140  1.0000
  Nd  Nd4       1.0  0.00000  0.29400  0.20700  1.0000
  Nd  Nd5       1.0  0.50000  0.79100  0.27000  1.0000
  Nd  Nd6       1.0  0.25900  0.27000  0.38500  1.0000
  Nd  Nd7       1.0  0.74100  0.27000  0.38500  1.0000
  Nd  Nd8       1.0  0.50000  0.76600  0.47400  1.0000
  Nd  Nd9       1.0  0.00000  0.72900  0.50200  1.0000
  Nd  Nd10      1.0  0.24100  0.22600  0.59100  1.0000
  Nd  Nd11      1.0  0.75900  0.22600  0.59100  1.0000
  Nd  Nd12      1.0  0.00000  0.70600  0.70700  1.0000
  Nd  Nd13      1.0  0.50000  0.20900  0.77000  1.0000
  Nd  Nd14      1.0  0.25900  0.73000  0.88500  1.0000
  Nd  Nd15      1.0  0.74100  0.73000  0.88500  1.0000
  Nd  Nd16      1.0  0.50000  0.23400  0.97400  1.0000
  O   O1        1.0  0.00000  0.52200  0.10500  1.0000
  O   O2        1.0  0.50000  0.05520  0.10500  1.0000
  O   O3        1.0  0.00000  0.02880  0.11400  1.0000
  O   O4        1.0  0.50000  0.55300  0.14900  1.0000
  O   O5        1.0  0.31000  0.17700  0.23400  1.0000
  O   O6        1.0  0.69000  0.17700  0.23400  1.0000
  O   O7        1.0  0.19000  0.67600  0.24300  1.0000
  O   O8        1.0  0.81000  0.67600  0.24300  1.0000
  O   O9        1.0  0.00000  0.05280  0.32700  1.0000
  O   O10       1.0  0.50000  0.52600  0.36200  1.0000
  O   O11       1.0  0.00000  0.55300  0.37200  1.0000
  O   O12       1.0  0.50000  0.01840  0.37200  1.0000
  O   O13       1.0  0.23100  0.00552  0.48200  1.0000
  O   O14       1.0  0.76900  0.00552  0.48200  1.0000
  O   O15       1.0  0.26900  0.48900  0.49400  1.0000
  O   O16       1.0  0.73100  0.48900  0.49400  1.0000
  O   O17       1.0  0.00000  0.47800  0.60500  1.0000
  O   O18       1.0  0.50000  0.94500  0.60500  1.0000
  O   O19       1.0  0.00000  0.97100  0.61400  1.0000
  O   O20       1.0  0.50000  0.44700  0.64900  1.0000
  O   O21       1.0  0.31000  0.82300  0.73400  1.0000
  O   O22       1.0  0.69000  0.82300  0.73400  1.0000
  O   O23       1.0  0.19000  0.32400  0.74300  1.0000
  O   O24       1.0  0.81000  0.32400  0.74300  1.0000
  O   O25       1.0  0.00000  0.94700  0.82700  1.0000
  O   O26       1.0  0.50000  0.47400  0.86200  1.0000
  O   O27       1.0  0.00000  0.44700  0.87200  1.0000
  O   O28       1.0  0.50000  0.98200  0.87200  1.0000
  O   O29       1.0  0.23100  0.99400  0.98200  1.0000
  O   O30       1.0  0.76900  0.99400  0.98200  1.0000
  O   O31       1.0  0.26900  0.51100  0.99400  1.0000
  O   O32       1.0  0.73100  0.51100  0.99400  1.0000
