data_image0
_chemical_formula_structural       I12O36Yb4
_chemical_formula_sum              "I12 O36 Yb4"
_cell_length_a       8.67177
_cell_length_b       5.74069
_cell_length_c       14.475
_cell_angle_alpha    90
_cell_angle_beta     98.2463
_cell_angle_gamma    90

_space_group_name_H-M_alt    "P 1"
_space_group_IT_number       1

loop_
  _space_group_symop_operation_xyz
  'x, y, z'

loop_
  _atom_site_type_symbol
  _atom_site_label
  _atom_site_symmetry_multiplicity
  _atom_site_fract_x
  _atom_site_fract_y
  _atom_site_fract_z
  _atom_site_occupancy
  I   I1        1.0  0.16400  0.64500  0.02430  1.0000
  I   I2        1.0  0.71600  0.80300  0.15400  1.0000
  I   I3        1.0  0.11400  0.08960  0.20200  1.0000
  I   I4        1.0  0.38600  0.59000  0.29800  1.0000
  I   I5        1.0  0.78400  0.30300  0.34600  1.0000
  I   I6        1.0  0.33600  0.14500  0.47600  1.0000
  I   I7        1.0  0.66400  0.85500  0.52400  1.0000
  I   I8        1.0  0.21600  0.69700  0.65400  1.0000
  I   I9        1.0  0.61400  0.41000  0.70200  1.0000
  I   I10       1.0  0.88600  0.91000  0.79800  1.0000
  I   I11       1.0  0.28400  0.19700  0.84600  1.0000
  I   I12       1.0  0.83600  0.35500  0.97600  1.0000
  O   O1        1.0  0.65200  0.41200  0.02110  1.0000
  O   O2        1.0  0.62400  0.91900  0.04270  1.0000
  O   O3        1.0  0.92300  0.60900  0.05250  1.0000
  O   O4        1.0  0.93500  0.11000  0.11300  1.0000
  O   O5        1.0  0.25300  0.98700  0.12200  1.0000
  O   O6        1.0  0.22600  0.46400  0.12800  1.0000
  O   O7        1.0  0.55500  0.60600  0.17600  1.0000
  O   O8        1.0  0.64600  0.04960  0.21800  1.0000
  O   O9        1.0  0.08040  0.79000  0.23700  1.0000
  O   O10       1.0  0.42000  0.29000  0.26300  1.0000
  O   O11       1.0  0.85400  0.55000  0.28200  1.0000
  O   O12       1.0  0.94500  0.10600  0.32400  1.0000
  O   O13       1.0  0.27400  0.96400  0.37200  1.0000
  O   O14       1.0  0.24700  0.48700  0.37800  1.0000
  O   O15       1.0  0.56500  0.61000  0.38700  1.0000
  O   O16       1.0  0.57700  0.10900  0.44700  1.0000
  O   O17       1.0  0.87600  0.41900  0.45700  1.0000
  O   O18       1.0  0.84800  0.91200  0.47900  1.0000
  O   O19       1.0  0.15200  0.08760  0.52100  1.0000
  O   O20       1.0  0.12400  0.58100  0.54300  1.0000
  O   O21       1.0  0.42300  0.89100  0.55300  1.0000
  O   O22       1.0  0.43500  0.39000  0.61300  1.0000
  O   O23       1.0  0.75300  0.51300  0.62200  1.0000
  O   O24       1.0  0.72600  0.03580  0.62800  1.0000
  O   O25       1.0  0.05470  0.89400  0.67600  1.0000
  O   O26       1.0  0.14600  0.45000  0.71800  1.0000
  O   O27       1.0  0.58000  0.71000  0.73700  1.0000
  O   O28       1.0  0.92000  0.21000  0.76300  1.0000
  O   O29       1.0  0.35400  0.95000  0.78200  1.0000
  O   O30       1.0  0.44500  0.39400  0.82400  1.0000
  O   O31       1.0  0.77400  0.53600  0.87200  1.0000
  O   O32       1.0  0.74700  0.01280  0.87800  1.0000
  O   O33       1.0  0.06480  0.89000  0.88700  1.0000
  O   O34       1.0  0.07720  0.39100  0.94700  1.0000
  O   O35       1.0  0.37600  0.08150  0.95700  1.0000
  O   O36       1.0  0.34800  0.58800  0.97900  1.0000
  Yb  Yb1       1.0  0.46400  0.25200  0.10000  1.0000
  Yb  Yb2       1.0  0.03600  0.75200  0.40000  1.0000
  Yb  Yb3       1.0  0.96400  0.24800  0.60000  1.0000
  Yb  Yb4       1.0  0.53600  0.74800  0.90000  1.0000
