data_image0
_chemical_formula_structural       Cu2H24N4O24
_chemical_formula_sum              "Cu2 H24 N4 O24"
_cell_length_a       5.6038
_cell_length_b       7.4752
_cell_length_c       10.8183
_cell_angle_alpha    107.664
_cell_angle_beta     97.7049
_cell_angle_gamma    99.3595

_space_group_name_H-M_alt    "P 1"
_space_group_IT_number       1

loop_
  _space_group_symop_operation_xyz
  'x, y, z'

loop_
  _atom_site_type_symbol
  _atom_site_label
  _atom_site_symmetry_multiplicity
  _atom_site_fract_x
  _atom_site_fract_y
  _atom_site_fract_z
  _atom_site_occupancy
  Cu  Cu1       1.0  0.16800  0.14700  0.22900  1.0000
  Cu  Cu2       1.0  0.83200  0.85300  0.77100  1.0000
  H   H1        1.0  0.23900  0.94000  0.01100  1.0000
  H   H2        1.0  0.14800  0.81000  0.09980  1.0000
  H   H3        1.0  0.40500  0.34600  0.11400  1.0000
  H   H4        1.0  0.72200  0.89300  0.12100  1.0000
  H   H5        1.0  0.15200  0.42300  0.13000  1.0000
  H   H6        1.0  0.68200  0.10300  0.19000  1.0000
  H   H7        1.0  0.65000  0.38600  0.34200  1.0000
  H   H8        1.0  0.21200  0.89500  0.35700  1.0000
  H   H9        1.0  0.95300  0.95600  0.36000  1.0000
  H   H10       1.0  0.20800  0.49100  0.37400  1.0000
  H   H11       1.0  0.62300  0.22200  0.40500  1.0000
  H   H12       1.0  0.15700  0.34700  0.45300  1.0000
  H   H13       1.0  0.84300  0.65300  0.54700  1.0000
  H   H14       1.0  0.37700  0.77800  0.59500  1.0000
  H   H15       1.0  0.79200  0.50900  0.62600  1.0000
  H   H16       1.0  0.04710  0.04370  0.64000  1.0000
  H   H17       1.0  0.78800  0.10500  0.64300  1.0000
  H   H18       1.0  0.35000  0.61400  0.65800  1.0000
  H   H19       1.0  0.31800  0.89700  0.81000  1.0000
  H   H20       1.0  0.84800  0.57700  0.87000  1.0000
  H   H21       1.0  0.27800  0.10700  0.87900  1.0000
  H   H22       1.0  0.59500  0.65400  0.88600  1.0000
  H   H23       1.0  0.85200  0.19000  0.90000  1.0000
  H   H24       1.0  0.76100  0.06010  0.98900  1.0000
  N   N1        1.0  0.78800  0.55300  0.12700  1.0000
  N   N2        1.0  0.58100  0.76500  0.38700  1.0000
  N   N3        1.0  0.41900  0.23500  0.61300  1.0000
  N   N4        1.0  0.21200  0.44700  0.87300  1.0000
  O   O1        1.0  0.25600  0.93200  0.10400  1.0000
  O   O2        1.0  0.22600  0.30600  0.11500  1.0000
  O   O3        1.0  0.71000  0.38100  0.11900  1.0000
  O   O4        1.0  0.64000  0.66200  0.12400  1.0000
  O   O5        1.0  0.77500  0.02980  0.12900  1.0000
  O   O6        1.0  0.01980  0.61300  0.13800  1.0000
  O   O7        1.0  0.57800  0.24900  0.32300  1.0000
  O   O8        1.0  0.12900  0.00352  0.35900  1.0000
  O   O9        1.0  0.09940  0.36900  0.36900  1.0000
  O   O10       1.0  0.65300  0.92200  0.37200  1.0000
  O   O11       1.0  0.72600  0.65200  0.39200  1.0000
  O   O12       1.0  0.35700  0.71900  0.40000  1.0000
  O   O13       1.0  0.64300  0.28100  0.60000  1.0000
  O   O14       1.0  0.27400  0.34800  0.60800  1.0000
  O   O15       1.0  0.34700  0.07800  0.62800  1.0000
  O   O16       1.0  0.90100  0.63100  0.63100  1.0000
  O   O17       1.0  0.87100  0.99600  0.64100  1.0000
  O   O18       1.0  0.42200  0.75100  0.67700  1.0000
  O   O19       1.0  0.98000  0.38700  0.86200  1.0000
  O   O20       1.0  0.22500  0.97000  0.87100  1.0000
  O   O21       1.0  0.36000  0.33800  0.87600  1.0000
  O   O22       1.0  0.29000  0.61900  0.88100  1.0000
  O   O23       1.0  0.77400  0.69400  0.88500  1.0000
  O   O24       1.0  0.74400  0.06840  0.89600  1.0000
