data_image0
_chemical_formula_structural       C16Cr2H24O8Sb4
_chemical_formula_sum              "C16 Cr2 H24 O8 Sb4"
_cell_length_a       8.59644
_cell_length_b       8.59644
_cell_length_c       10.0517
_cell_angle_alpha    110.597
_cell_angle_beta     69.4029
_cell_angle_gamma    97.8859

_space_group_name_H-M_alt    "P 1"
_space_group_IT_number       1

loop_
  _space_group_symop_operation_xyz
  'x, y, z'

loop_
  _atom_site_type_symbol
  _atom_site_label
  _atom_site_symmetry_multiplicity
  _atom_site_fract_x
  _atom_site_fract_y
  _atom_site_fract_z
  _atom_site_occupancy
  C   C1        1.0  0.15300  0.84700  0.05130  1.0000
  C   C2        1.0  0.19700  0.56600  0.07850  1.0000
  C   C3        1.0  0.43400  0.80300  0.07850  1.0000
  C   C4        1.0  0.09350  0.27500  0.30700  1.0000
  C   C5        1.0  0.72500  0.90700  0.30700  1.0000
  C   C6        1.0  0.46500  0.22500  0.31500  1.0000
  C   C7        1.0  0.77500  0.53500  0.31500  1.0000
  C   C8        1.0  0.27500  0.72500  0.32500  1.0000
  C   C9        1.0  0.72500  0.27500  0.67500  1.0000
  C   C10       1.0  0.22500  0.46500  0.68500  1.0000
  C   C11       1.0  0.53500  0.77500  0.68500  1.0000
  C   C12       1.0  0.27500  0.09350  0.69300  1.0000
  C   C13       1.0  0.90700  0.72500  0.69300  1.0000
  C   C14       1.0  0.56600  0.19700  0.92200  1.0000
  C   C15       1.0  0.80300  0.43400  0.92200  1.0000
  C   C16       1.0  0.84700  0.15300  0.94900  1.0000
  Cr  Cr1       1.0  0.21400  0.78600  0.18900  1.0000
  Cr  Cr2       1.0  0.78600  0.21400  0.81100  1.0000
  H   H1        1.0  0.13700  0.25700  0.18600  1.0000
  H   H2        1.0  0.74300  0.86300  0.18600  1.0000
  H   H3        1.0  0.55300  0.15300  0.20800  1.0000
  H   H4        1.0  0.84700  0.44700  0.20800  1.0000
  H   H5        1.0  0.45200  0.35000  0.31400  1.0000
  H   H6        1.0  0.65000  0.54800  0.31400  1.0000
  H   H7        1.0  0.75000  0.04030  0.34600  1.0000
  H   H8        1.0  0.96000  0.25000  0.34600  1.0000
  H   H9        1.0  0.12200  0.40200  0.37000  1.0000
  H   H10       1.0  0.59800  0.87800  0.37000  1.0000
  H   H11       1.0  0.50700  0.23400  0.40800  1.0000
  H   H12       1.0  0.76600  0.49300  0.40800  1.0000
  H   H13       1.0  0.23400  0.50700  0.59200  1.0000
  H   H14       1.0  0.49300  0.76600  0.59200  1.0000
  H   H15       1.0  0.40200  0.12200  0.63000  1.0000
  H   H16       1.0  0.87800  0.59800  0.63000  1.0000
  H   H17       1.0  0.04030  0.75000  0.65400  1.0000
  H   H18       1.0  0.25000  0.96000  0.65400  1.0000
  H   H19       1.0  0.35000  0.45200  0.68600  1.0000
  H   H20       1.0  0.54800  0.65000  0.68600  1.0000
  H   H21       1.0  0.15300  0.55300  0.79200  1.0000
  H   H22       1.0  0.44700  0.84700  0.79200  1.0000
  H   H23       1.0  0.25700  0.13700  0.81400  1.0000
  H   H24       1.0  0.86300  0.74300  0.81400  1.0000
  O   O1        1.0  0.18400  0.42600  0.00708  1.0000
  O   O2        1.0  0.57400  0.81600  0.00708  1.0000
  O   O3        1.0  0.87900  0.12100  0.03990  1.0000
  O   O4        1.0  0.31900  0.68100  0.40400  1.0000
  O   O5        1.0  0.68100  0.31900  0.59600  1.0000
  O   O6        1.0  0.12100  0.87900  0.96000  1.0000
  O   O7        1.0  0.42600  0.18400  0.99300  1.0000
  O   O8        1.0  0.81600  0.57400  0.99300  1.0000
  Sb  Sb1       1.0  0.22400  0.10300  0.34100  1.0000
  Sb  Sb2       1.0  0.89700  0.77600  0.34100  1.0000
  Sb  Sb3       1.0  0.10300  0.22400  0.65900  1.0000
  Sb  Sb4       1.0  0.77600  0.89700  0.65900  1.0000
