data_image0
_chemical_formula_structural       B4Bi4Cd4F40
_chemical_formula_sum              "B4 Bi4 Cd4 F40"
_cell_length_a       8.08927
_cell_length_b       9.16262
_cell_length_c       8.58324
_cell_angle_alpha    90
_cell_angle_beta     92.738
_cell_angle_gamma    90

_space_group_name_H-M_alt    "P 1"
_space_group_IT_number       1

loop_
  _space_group_symop_operation_xyz
  'x, y, z'

loop_
  _atom_site_type_symbol
  _atom_site_label
  _atom_site_symmetry_multiplicity
  _atom_site_fract_x
  _atom_site_fract_y
  _atom_site_fract_z
  _atom_site_occupancy
  B   B1        1.0  0.93400  0.77800  0.00221  1.0000
  B   B2        1.0  0.06590  0.27800  0.49800  1.0000
  B   B3        1.0  0.93400  0.72200  0.50200  1.0000
  B   B4        1.0  0.06590  0.22200  0.99800  1.0000
  Bi  Bi1       1.0  0.34000  0.55900  0.23900  1.0000
  Bi  Bi2       1.0  0.66000  0.05950  0.26100  1.0000
  Bi  Bi3       1.0  0.34000  0.94100  0.73900  1.0000
  Bi  Bi4       1.0  0.66000  0.44100  0.76100  1.0000
  Cd  Cd1       1.0  0.82600  0.47000  0.19800  1.0000
  Cd  Cd2       1.0  0.17400  0.97000  0.30200  1.0000
  Cd  Cd3       1.0  0.82600  0.03010  0.69800  1.0000
  Cd  Cd4       1.0  0.17400  0.53000  0.80200  1.0000
  F   F1        1.0  0.36700  0.57900  0.00451  1.0000
  F   F2        1.0  0.82100  0.66400  0.02760  1.0000
  F   F3        1.0  0.67200  0.07890  0.03010  1.0000
  F   F4        1.0  0.92400  0.27400  0.06810  1.0000
  F   F5        1.0  0.14300  0.11900  0.09510  1.0000
  F   F6        1.0  0.98100  0.84400  0.14400  1.0000
  F   F7        1.0  0.09080  0.55900  0.18100  1.0000
  F   F8        1.0  0.32900  0.78100  0.22600  1.0000
  F   F9        1.0  0.41200  0.07750  0.23800  1.0000
  F   F10       1.0  0.65600  0.84400  0.24500  1.0000
  F   F11       1.0  0.34400  0.34400  0.25500  1.0000
  F   F12       1.0  0.58800  0.57700  0.26200  1.0000
  F   F13       1.0  0.67100  0.28100  0.27400  1.0000
  F   F14       1.0  0.90900  0.05890  0.31900  1.0000
  F   F15       1.0  0.01900  0.34400  0.35600  1.0000
  F   F16       1.0  0.85700  0.61900  0.40500  1.0000
  F   F17       1.0  0.07610  0.77400  0.43200  1.0000
  F   F18       1.0  0.32800  0.57900  0.47000  1.0000
  F   F19       1.0  0.17900  0.16400  0.47200  1.0000
  F   F20       1.0  0.63300  0.07880  0.49500  1.0000
  F   F21       1.0  0.36700  0.92100  0.50500  1.0000
  F   F22       1.0  0.82100  0.83600  0.52800  1.0000
  F   F23       1.0  0.67200  0.42100  0.53000  1.0000
  F   F24       1.0  0.92400  0.22600  0.56800  1.0000
  F   F25       1.0  0.14300  0.38100  0.59500  1.0000
  F   F26       1.0  0.98100  0.65600  0.64400  1.0000
  F   F27       1.0  0.09080  0.94100  0.68100  1.0000
  F   F28       1.0  0.32900  0.71900  0.72600  1.0000
  F   F29       1.0  0.41200  0.42300  0.73800  1.0000
  F   F30       1.0  0.65600  0.65600  0.74500  1.0000
  F   F31       1.0  0.34400  0.15600  0.75500  1.0000
  F   F32       1.0  0.58800  0.92300  0.76200  1.0000
  F   F33       1.0  0.67100  0.21900  0.77400  1.0000
  F   F34       1.0  0.90900  0.44100  0.81900  1.0000
  F   F35       1.0  0.01900  0.15600  0.85600  1.0000
  F   F36       1.0  0.85700  0.88100  0.90500  1.0000
  F   F37       1.0  0.07610  0.72600  0.93200  1.0000
  F   F38       1.0  0.32800  0.92100  0.97000  1.0000
  F   F39       1.0  0.17900  0.33600  0.97200  1.0000
  F   F40       1.0  0.63300  0.42100  0.99500  1.0000
