data_image0
_chemical_formula_structural       H4Hg12N8O28
_chemical_formula_sum              "H4 Hg12 N8 O28"
_cell_length_a       8.0191
_cell_length_b       10.0233
_cell_length_c       10.1069
_cell_angle_alpha    90
_cell_angle_beta     112.951
_cell_angle_gamma    90

_space_group_name_H-M_alt    "P 1"
_space_group_IT_number       1

loop_
  _space_group_symop_operation_xyz
  'x, y, z'

loop_
  _atom_site_type_symbol
  _atom_site_label
  _atom_site_symmetry_multiplicity
  _atom_site_fract_x
  _atom_site_fract_y
  _atom_site_fract_z
  _atom_site_occupancy
  H   H1        1.0  0.07680  0.43600  0.15700  1.0000
  H   H2        1.0  0.42300  0.93600  0.34300  1.0000
  H   H3        1.0  0.57700  0.06380  0.65700  1.0000
  H   H4        1.0  0.92300  0.56400  0.84300  1.0000
  Hg  Hg1       1.0  0.44200  0.97100  0.09750  1.0000
  Hg  Hg2       1.0  0.07320  0.17800  0.22700  1.0000
  Hg  Hg3       1.0  0.01980  0.92800  0.24300  1.0000
  Hg  Hg4       1.0  0.48000  0.42800  0.25700  1.0000
  Hg  Hg5       1.0  0.42700  0.67800  0.27300  1.0000
  Hg  Hg6       1.0  0.05780  0.47100  0.40300  1.0000
  Hg  Hg7       1.0  0.94200  0.52900  0.59700  1.0000
  Hg  Hg8       1.0  0.57300  0.32200  0.72700  1.0000
  Hg  Hg9       1.0  0.52000  0.57200  0.74300  1.0000
  Hg  Hg10      1.0  0.98000  0.07200  0.75700  1.0000
  Hg  Hg11      1.0  0.92700  0.82200  0.77300  1.0000
  Hg  Hg12      1.0  0.55800  0.02940  0.90300  1.0000
  N   N1        1.0  0.68500  0.31400  0.08500  1.0000
  N   N2        1.0  0.90400  0.67300  0.08980  1.0000
  N   N3        1.0  0.59600  0.17300  0.41000  1.0000
  N   N4        1.0  0.81500  0.81400  0.41500  1.0000
  N   N5        1.0  0.18500  0.18600  0.58500  1.0000
  N   N6        1.0  0.40400  0.82700  0.59000  1.0000
  N   N7        1.0  0.09560  0.32700  0.91000  1.0000
  N   N8        1.0  0.31500  0.68600  0.91500  1.0000
  O   O1        1.0  0.83300  0.77100  0.01050  1.0000
  O   O2        1.0  0.77300  0.26600  0.01410  1.0000
  O   O3        1.0  0.52100  0.34400  0.02220  1.0000
  O   O4        1.0  0.87100  0.55500  0.04720  1.0000
  O   O5        1.0  0.76500  0.32800  0.22100  1.0000
  O   O6        1.0  0.01810  0.69500  0.22100  1.0000
  O   O7        1.0  0.15300  0.39000  0.24700  1.0000
  O   O8        1.0  0.34700  0.89000  0.25300  1.0000
  O   O9        1.0  0.48200  0.19500  0.27900  1.0000
  O   O10       1.0  0.73500  0.82800  0.27900  1.0000
  O   O11       1.0  0.62900  0.05470  0.45300  1.0000
  O   O12       1.0  0.97900  0.84400  0.47800  1.0000
  O   O13       1.0  0.72700  0.76600  0.48600  1.0000
  O   O14       1.0  0.66700  0.27100  0.48900  1.0000
  O   O15       1.0  0.33300  0.72900  0.51100  1.0000
  O   O16       1.0  0.27300  0.23400  0.51400  1.0000
  O   O17       1.0  0.02060  0.15600  0.52200  1.0000
  O   O18       1.0  0.37100  0.94500  0.54700  1.0000
  O   O19       1.0  0.26500  0.17200  0.72100  1.0000
  O   O20       1.0  0.51800  0.80500  0.72100  1.0000
  O   O21       1.0  0.65300  0.11000  0.74700  1.0000
  O   O22       1.0  0.84700  0.61000  0.75300  1.0000
  O   O23       1.0  0.98200  0.30500  0.77900  1.0000
  O   O24       1.0  0.23500  0.67200  0.77900  1.0000
  O   O25       1.0  0.12900  0.44500  0.95300  1.0000
  O   O26       1.0  0.47900  0.65600  0.97800  1.0000
  O   O27       1.0  0.22700  0.73400  0.98600  1.0000
  O   O28       1.0  0.16700  0.22900  0.98900  1.0000
