data_image0
_chemical_formula_structural       Ag2C14F8H18O8S4
_chemical_formula_sum              "Ag2 C14 F8 H18 O8 S4"
_cell_length_a       6.57243
_cell_length_b       7.95516
_cell_length_c       10.5997
_cell_angle_alpha    87.441
_cell_angle_beta     83.4049
_cell_angle_gamma    84.3137

_space_group_name_H-M_alt    "P 1"
_space_group_IT_number       1

loop_
  _space_group_symop_operation_xyz
  'x, y, z'

loop_
  _atom_site_type_symbol
  _atom_site_label
  _atom_site_symmetry_multiplicity
  _atom_site_fract_x
  _atom_site_fract_y
  _atom_site_fract_z
  _atom_site_occupancy
  Ag  Ag1       1.0  0.18900  0.97100  0.06860  1.0000
  Ag  Ag2       1.0  0.81100  0.02940  0.93100  1.0000
  C   C1        1.0  0.27100  0.38300  0.01540  1.0000
  C   C2        1.0  0.76800  0.78500  0.20500  1.0000
  C   C3        1.0  0.77800  0.25000  0.21100  1.0000
  C   C4        1.0  0.65900  0.33700  0.32800  1.0000
  C   C5        1.0  0.09760  0.73000  0.34000  1.0000
  C   C6        1.0  0.35900  0.15300  0.35100  1.0000
  C   C7        1.0  0.53800  0.21200  0.41500  1.0000
  C   C8        1.0  0.46200  0.78800  0.58500  1.0000
  C   C9        1.0  0.64100  0.84700  0.64900  1.0000
  C   C10       1.0  0.90200  0.27000  0.66000  1.0000
  C   C11       1.0  0.34100  0.66300  0.67200  1.0000
  C   C12       1.0  0.22200  0.75000  0.78900  1.0000
  C   C13       1.0  0.23200  0.21500  0.79500  1.0000
  C   C14       1.0  0.72900  0.61700  0.98500  1.0000
  F   F1        1.0  0.52000  0.46600  0.29100  1.0000
  F   F2        1.0  0.78900  0.40800  0.39900  1.0000
  F   F3        1.0  0.67600  0.07580  0.44100  1.0000
  F   F4        1.0  0.53200  0.71400  0.47200  1.0000
  F   F5        1.0  0.46800  0.28600  0.52800  1.0000
  F   F6        1.0  0.32400  0.92400  0.55900  1.0000
  F   F7        1.0  0.21100  0.59200  0.60100  1.0000
  F   F8        1.0  0.48000  0.53400  0.70900  1.0000
  H   H1        1.0  0.10600  0.39100  0.04550  1.0000
  H   H2        1.0  0.68800  0.50900  0.04710  1.0000
  H   H3        1.0  0.35600  0.37900  0.09860  1.0000
  H   H4        1.0  0.73600  0.90500  0.25200  1.0000
  H   H5        1.0  0.69900  0.68600  0.26500  1.0000
  H   H6        1.0  0.07810  0.22400  0.31500  1.0000
  H   H7        1.0  0.26400  0.70400  0.33800  1.0000
  H   H8        1.0  0.04910  0.85400  0.38000  1.0000
  H   H9        1.0  0.02090  0.63100  0.39600  1.0000
  H   H10       1.0  0.97900  0.36900  0.60400  1.0000
  H   H11       1.0  0.95100  0.14600  0.62000  1.0000
  H   H12       1.0  0.73600  0.29600  0.66200  1.0000
  H   H13       1.0  0.92200  0.77600  0.68500  1.0000
  H   H14       1.0  0.30100  0.31400  0.73500  1.0000
  H   H15       1.0  0.26400  0.09480  0.74800  1.0000
  H   H16       1.0  0.64400  0.62100  0.90100  1.0000
  H   H17       1.0  0.31200  0.49100  0.95300  1.0000
  H   H18       1.0  0.89400  0.60900  0.95400  1.0000
  O   O1        1.0  0.68000  0.24500  0.11800  1.0000
  O   O2        1.0  0.96000  0.18700  0.22300  1.0000
  O   O3        1.0  0.39000  0.02990  0.28300  1.0000
  O   O4        1.0  0.19100  0.25300  0.37500  1.0000
  O   O5        1.0  0.80900  0.74700  0.62500  1.0000
  O   O6        1.0  0.61000  0.97000  0.71700  1.0000
  O   O7        1.0  0.03960  0.81300  0.77700  1.0000
  O   O8        1.0  0.32000  0.75500  0.88200  1.0000
  S   S1        1.0  0.64300  0.81100  0.06280  1.0000
  S   S2        1.0  0.04190  0.72600  0.17800  1.0000
  S   S3        1.0  0.95800  0.27400  0.82200  1.0000
  S   S4        1.0  0.35700  0.18900  0.93700  1.0000
