data_image0
_chemical_formula_structural       B12Be8O28Rb4
_chemical_formula_sum              "B12 Be8 O28 Rb4"
_cell_length_a       7.67334
_cell_length_b       17.5622
_cell_length_c       4.36788
_cell_angle_alpha    90
_cell_angle_beta     90
_cell_angle_gamma    90

_space_group_name_H-M_alt    "P 1"
_space_group_IT_number       1

loop_
  _space_group_symop_operation_xyz
  'x, y, z'

loop_
  _atom_site_type_symbol
  _atom_site_label
  _atom_site_symmetry_multiplicity
  _atom_site_fract_x
  _atom_site_fract_y
  _atom_site_fract_z
  _atom_site_occupancy
  B   B1        1.0  0.34200  0.68200  0.02460  1.0000
  B   B2        1.0  0.65800  0.68200  0.02460  1.0000
  B   B3        1.0  0.00000  0.99000  0.36200  1.0000
  B   B4        1.0  0.33500  0.19300  0.42500  1.0000
  B   B5        1.0  0.66500  0.19300  0.42500  1.0000
  B   B6        1.0  0.50000  0.52000  0.43300  1.0000
  B   B7        1.0  0.15800  0.31800  0.52500  1.0000
  B   B8        1.0  0.84200  0.31800  0.52500  1.0000
  B   B9        1.0  0.50000  0.00984  0.86200  1.0000
  B   B10       1.0  0.16500  0.80700  0.92500  1.0000
  B   B11       1.0  0.83500  0.80700  0.92500  1.0000
  B   B12       1.0  0.00000  0.48000  0.93300  1.0000
  Be  Be1       1.0  0.32400  0.03620  0.35300  1.0000
  Be  Be2       1.0  0.67600  0.03620  0.35300  1.0000
  Be  Be3       1.0  0.18700  0.46000  0.42900  1.0000
  Be  Be4       1.0  0.81300  0.46000  0.42900  1.0000
  Be  Be5       1.0  0.17600  0.96400  0.85300  1.0000
  Be  Be6       1.0  0.82400  0.96400  0.85300  1.0000
  Be  Be7       1.0  0.31300  0.54000  0.92900  1.0000
  Be  Be8       1.0  0.68700  0.54000  0.92900  1.0000
  O   O1        1.0  0.30500  0.75900  0.00551  1.0000
  O   O2        1.0  0.69500  0.75900  0.00551  1.0000
  O   O3        1.0  0.50000  0.66600  0.17300  1.0000
  O   O4        1.0  0.50000  0.00666  0.17600  1.0000
  O   O5        1.0  0.15600  0.99000  0.20800  1.0000
  O   O6        1.0  0.84400  0.99000  0.20800  1.0000
  O   O7        1.0  0.00000  0.47500  0.24800  1.0000
  O   O8        1.0  0.34200  0.51400  0.28300  1.0000
  O   O9        1.0  0.65800  0.51400  0.28300  1.0000
  O   O10       1.0  0.29600  0.12400  0.32500  1.0000
  O   O11       1.0  0.70400  0.12400  0.32500  1.0000
  O   O12       1.0  0.25700  0.37300  0.41300  1.0000
  O   O13       1.0  0.74300  0.37300  0.41300  1.0000
  O   O14       1.0  0.50000  0.22600  0.46600  1.0000
  O   O15       1.0  0.19500  0.24100  0.50600  1.0000
  O   O16       1.0  0.80500  0.24100  0.50600  1.0000
  O   O17       1.0  0.00000  0.33400  0.67300  1.0000
  O   O18       1.0  0.00000  0.99300  0.67600  1.0000
  O   O19       1.0  0.34400  0.00961  0.70800  1.0000
  O   O20       1.0  0.65600  0.00961  0.70800  1.0000
  O   O21       1.0  0.50000  0.52500  0.74800  1.0000
  O   O22       1.0  0.15800  0.48600  0.78300  1.0000
  O   O23       1.0  0.84200  0.48600  0.78300  1.0000
  O   O24       1.0  0.20400  0.87600  0.82500  1.0000
  O   O25       1.0  0.79600  0.87600  0.82500  1.0000
  O   O26       1.0  0.24300  0.62700  0.91300  1.0000
  O   O27       1.0  0.75700  0.62700  0.91300  1.0000
  O   O28       1.0  0.00000  0.77400  0.96600  1.0000
  Rb  Rb1       1.0  0.50000  0.84900  0.43600  1.0000
  Rb  Rb2       1.0  0.00000  0.64400  0.44200  1.0000
  Rb  Rb3       1.0  0.00000  0.15100  0.93600  1.0000
  Rb  Rb4       1.0  0.50000  0.35600  0.94200  1.0000
