data_image0
_chemical_formula_structural       H16O28P4Sr2V4
_chemical_formula_sum              "H16 O28 P4 Sr2 V4"
_cell_length_a       6.34086
_cell_length_b       6.34086
_cell_length_c       12.5377
_cell_angle_alpha    96.7658
_cell_angle_beta     83.2342
_cell_angle_gamma    89.5858

_space_group_name_H-M_alt    "P 1"
_space_group_IT_number       1

loop_
  _space_group_symop_operation_xyz
  'x, y, z'

loop_
  _atom_site_type_symbol
  _atom_site_label
  _atom_site_symmetry_multiplicity
  _atom_site_fract_x
  _atom_site_fract_y
  _atom_site_fract_z
  _atom_site_occupancy
  H   H1        1.0  0.63400  0.65600  0.20400  1.0000
  H   H2        1.0  0.86600  0.07620  0.20700  1.0000
  H   H3        1.0  0.36700  0.93100  0.22900  1.0000
  H   H4        1.0  0.62700  0.29400  0.27300  1.0000
  H   H5        1.0  0.13600  0.01160  0.27600  1.0000
  H   H6        1.0  0.39200  0.26900  0.32200  1.0000
  H   H7        1.0  0.60200  0.68700  0.33200  1.0000
  H   H8        1.0  0.84300  0.06410  0.33400  1.0000
  H   H9        1.0  0.34400  0.36600  0.70400  1.0000
  H   H10       1.0  0.92400  0.13400  0.70700  1.0000
  H   H11       1.0  0.06860  0.63300  0.72900  1.0000
  H   H12       1.0  0.70600  0.37300  0.77300  1.0000
  H   H13       1.0  0.98800  0.86400  0.77600  1.0000
  H   H14       1.0  0.73100  0.60800  0.82200  1.0000
  H   H15       1.0  0.31300  0.39800  0.83200  1.0000
  H   H16       1.0  0.93600  0.15700  0.83400  1.0000
  O   O1        1.0  0.52100  0.58100  0.09380  1.0000
  O   O2        1.0  0.80600  0.25500  0.09440  1.0000
  O   O3        1.0  0.48000  0.96400  0.10100  1.0000
  O   O4        1.0  0.18500  0.31100  0.10500  1.0000
  O   O5        1.0  0.01270  0.77900  0.10900  1.0000
  O   O6        1.0  0.48000  0.31300  0.25700  1.0000
  O   O7        1.0  0.70300  0.70700  0.26900  1.0000
  O   O8        1.0  0.90100  0.14900  0.27600  1.0000
  O   O9        1.0  0.25400  0.91700  0.29000  1.0000
  O   O10       1.0  0.77800  0.48200  0.43800  1.0000
  O   O11       1.0  0.27400  0.64800  0.44100  1.0000
  O   O12       1.0  0.22800  0.27000  0.44400  1.0000
  O   O13       1.0  0.94100  0.92500  0.44700  1.0000
  O   O14       1.0  0.55800  0.98600  0.44800  1.0000
  O   O15       1.0  0.41900  0.47900  0.59400  1.0000
  O   O16       1.0  0.74500  0.19400  0.59400  1.0000
  O   O17       1.0  0.03640  0.52000  0.60100  1.0000
  O   O18       1.0  0.68900  0.81500  0.60500  1.0000
  O   O19       1.0  0.22100  0.98700  0.60900  1.0000
  O   O20       1.0  0.68700  0.52000  0.75700  1.0000
  O   O21       1.0  0.29300  0.29700  0.76900  1.0000
  O   O22       1.0  0.85100  0.09920  0.77600  1.0000
  O   O23       1.0  0.08290  0.74600  0.79000  1.0000
  O   O24       1.0  0.51800  0.22200  0.93800  1.0000
  O   O25       1.0  0.35200  0.72600  0.94100  1.0000
  O   O26       1.0  0.73000  0.77200  0.94400  1.0000
  O   O27       1.0  0.07470  0.05900  0.94700  1.0000
  O   O28       1.0  0.01420  0.44200  0.94800  1.0000
  P   P1        1.0  0.52100  0.76000  0.02080  1.0000
  P   P2        1.0  0.02020  0.26700  0.02310  1.0000
  P   P3        1.0  0.24000  0.47900  0.52100  1.0000
  P   P4        1.0  0.73300  0.98000  0.52300  1.0000
  Sr  Sr1       1.0  0.05560  0.55300  0.27800  1.0000
  Sr  Sr2       1.0  0.44700  0.94400  0.77800  1.0000
  V   V1        1.0  0.50300  0.26600  0.07070  1.0000
  V   V2        1.0  0.24600  0.96600  0.47600  1.0000
  V   V3        1.0  0.73400  0.49700  0.57100  1.0000
  V   V4        1.0  0.03410  0.75400  0.97600  1.0000
