data_image0
_chemical_formula_structural       O4Pd4Pt4Te4
_chemical_formula_sum              "O4 Pd4 Pt4 Te4"
_cell_length_a       5.52891
_cell_length_b       7.49543
_cell_length_c       6.98744
_cell_angle_alpha    90
_cell_angle_beta     90
_cell_angle_gamma    90

_space_group_name_H-M_alt    "P 1"
_space_group_IT_number       1

loop_
  _space_group_symop_operation_xyz
  'x, y, z'

loop_
  _atom_site_type_symbol
  _atom_site_label
  _atom_site_symmetry_multiplicity
  _atom_site_fract_x
  _atom_site_fract_y
  _atom_site_fract_z
  _atom_site_occupancy
  O   O1        1.0  0.46300  0.14700  0.18000  1.0000
  O   O2        1.0  0.53700  0.64700  0.32000  1.0000
  O   O3        1.0  0.03690  0.85300  0.68000  1.0000
  O   O4        1.0  0.96300  0.35300  0.82000  1.0000
  Pd  Pd1       1.0  0.29100  0.69500  0.07890  1.0000
  Pd  Pd2       1.0  0.70900  0.19500  0.42100  1.0000
  Pd  Pd3       1.0  0.20900  0.30500  0.57900  1.0000
  Pd  Pd4       1.0  0.79100  0.80500  0.92100  1.0000
  Pt  Pt1       1.0  0.22500  0.27800  0.00579  1.0000
  Pt  Pt2       1.0  0.77500  0.77800  0.49400  1.0000
  Pt  Pt3       1.0  0.27500  0.72200  0.50600  1.0000
  Pt  Pt4       1.0  0.72500  0.22200  0.99400  1.0000
  Te  Te1       1.0  0.01130  0.95900  0.22000  1.0000
  Te  Te2       1.0  0.98900  0.45900  0.28000  1.0000
  Te  Te3       1.0  0.48900  0.04060  0.72000  1.0000
  Te  Te4       1.0  0.51100  0.54100  0.78000  1.0000
