data_image0
_chemical_formula_structural       Si38Te16
_chemical_formula_sum              "Si38 Te16"
_cell_length_a       10.5512
_cell_length_b       10.5512
_cell_length_c       10.5512
_cell_angle_alpha    89.6357
_cell_angle_beta     89.6357
_cell_angle_gamma    89.6357

_space_group_name_H-M_alt    "P 1"
_space_group_IT_number       1

loop_
  _space_group_symop_operation_xyz
  'x, y, z'

loop_
  _atom_site_type_symbol
  _atom_site_label
  _atom_site_symmetry_multiplicity
  _atom_site_fract_x
  _atom_site_fract_y
  _atom_site_fract_z
  _atom_site_occupancy
  Si  Si1       1.0  0.49700  0.24200  0.00826  1.0000
  Si  Si2       1.0  0.68100  0.88600  0.01970  1.0000
  Si  Si3       1.0  0.35000  0.08150  0.07410  1.0000
  Si  Si4       1.0  0.07410  0.35000  0.08150  1.0000
  Si  Si5       1.0  0.99700  0.68200  0.11100  1.0000
  Si  Si6       1.0  0.14300  0.14300  0.14300  1.0000
  Si  Si7       1.0  0.83500  0.82500  0.16900  1.0000
  Si  Si8       1.0  0.52000  0.38600  0.18100  1.0000
  Si  Si9       1.0  0.49700  0.61100  0.18200  1.0000
  Si  Si10      1.0  0.00826  0.49700  0.24200  1.0000
  Si  Si11      1.0  0.33500  0.66900  0.32500  1.0000
  Si  Si12      1.0  0.88200  0.96900  0.33200  1.0000
  Si  Si13      1.0  0.66900  0.32500  0.33500  1.0000
  Si  Si14      1.0  0.08150  0.07410  0.35000  1.0000
  Si  Si15      1.0  0.83200  0.46900  0.38200  1.0000
  Si  Si16      1.0  0.18100  0.52000  0.38600  1.0000
  Si  Si17      1.0  0.38200  0.83200  0.46900  1.0000
  Si  Si18      1.0  0.61100  0.18200  0.49700  1.0000
  Si  Si19      1.0  0.24200  0.00826  0.49700  1.0000
  Si  Si20      1.0  0.74200  0.99700  0.50800  1.0000
  Si  Si21      1.0  0.38600  0.18100  0.52000  1.0000
  Si  Si22      1.0  0.58200  0.85000  0.57400  1.0000
  Si  Si23      1.0  0.85000  0.57400  0.58200  1.0000
  Si  Si24      1.0  0.18200  0.49700  0.61100  1.0000
  Si  Si25      1.0  0.64300  0.64300  0.64300  1.0000
  Si  Si26      1.0  0.32500  0.33500  0.66900  1.0000
  Si  Si27      1.0  0.88600  0.01970  0.68100  1.0000
  Si  Si28      1.0  0.11100  0.99700  0.68200  1.0000
  Si  Si29      1.0  0.99700  0.50800  0.74200  1.0000
  Si  Si30      1.0  0.16900  0.83500  0.82500  1.0000
  Si  Si31      1.0  0.46900  0.38200  0.83200  1.0000
  Si  Si32      1.0  0.82500  0.16900  0.83500  1.0000
  Si  Si33      1.0  0.57400  0.58200  0.85000  1.0000
  Si  Si34      1.0  0.96900  0.33200  0.88200  1.0000
  Si  Si35      1.0  0.01970  0.68100  0.88600  1.0000
  Si  Si36      1.0  0.33200  0.88200  0.96900  1.0000
  Si  Si37      1.0  0.68200  0.11100  0.99700  1.0000
  Si  Si38      1.0  0.50800  0.74200  0.99700  1.0000
  Te  Te1       1.0  0.00000  0.00000  0.00000  1.0000
  Te  Te2       1.0  0.19100  0.81700  0.18300  1.0000
  Te  Te3       1.0  0.81700  0.18300  0.19100  1.0000
  Te  Te4       1.0  0.49500  0.99100  0.25400  1.0000
  Te  Te5       1.0  0.31200  0.31200  0.31200  1.0000
  Te  Te6       1.0  0.69100  0.68300  0.31700  1.0000
  Te  Te7       1.0  0.99500  0.75400  0.49100  1.0000
  Te  Te8       1.0  0.99100  0.25400  0.49500  1.0000
  Te  Te9       1.0  0.50000  0.50000  0.50000  1.0000
  Te  Te10      1.0  0.31700  0.69100  0.68300  1.0000
  Te  Te11      1.0  0.68300  0.31700  0.69100  1.0000
  Te  Te12      1.0  0.49100  0.99500  0.75400  1.0000
  Te  Te13      1.0  0.81200  0.81200  0.81200  1.0000
  Te  Te14      1.0  0.18300  0.19100  0.81700  1.0000
  Te  Te15      1.0  0.25400  0.49500  0.99100  1.0000
  Te  Te16      1.0  0.75400  0.49100  0.99500  1.0000
