data_image0
_chemical_formula_structural       Cl20N12S16Se4
_chemical_formula_sum              "Cl20 N12 S16 Se4"
_cell_length_a       8.2735
_cell_length_b       18.0197
_cell_length_c       8.47909
_cell_angle_alpha    90
_cell_angle_beta     103.788
_cell_angle_gamma    90

_space_group_name_H-M_alt    "P 1"
_space_group_IT_number       1

loop_
  _space_group_symop_operation_xyz
  'x, y, z'

loop_
  _atom_site_type_symbol
  _atom_site_label
  _atom_site_symmetry_multiplicity
  _atom_site_fract_x
  _atom_site_fract_y
  _atom_site_fract_z
  _atom_site_occupancy
  Cl  Cl1       1.0  0.04320  0.09050  0.19200  1.0000
  Cl  Cl2       1.0  0.54300  0.41000  0.19200  1.0000
  Cl  Cl3       1.0  0.27400  0.59300  0.22700  1.0000
  Cl  Cl4       1.0  0.77400  0.90700  0.22700  1.0000
  Cl  Cl5       1.0  0.40500  0.10700  0.46200  1.0000
  Cl  Cl6       1.0  0.90500  0.39300  0.46200  1.0000
  Cl  Cl7       1.0  0.57600  0.28500  0.48500  1.0000
  Cl  Cl8       1.0  0.07550  0.21500  0.48500  1.0000
  Cl  Cl9       1.0  0.17000  0.94000  0.48600  1.0000
  Cl  Cl10      1.0  0.67000  0.56000  0.48600  1.0000
  Cl  Cl11      1.0  0.83000  0.06030  0.51400  1.0000
  Cl  Cl12      1.0  0.33000  0.44000  0.51400  1.0000
  Cl  Cl13      1.0  0.42400  0.71500  0.51500  1.0000
  Cl  Cl14      1.0  0.92400  0.78500  0.51500  1.0000
  Cl  Cl15      1.0  0.09540  0.60700  0.53800  1.0000
  Cl  Cl16      1.0  0.59500  0.89300  0.53800  1.0000
  Cl  Cl17      1.0  0.72600  0.40700  0.77300  1.0000
  Cl  Cl18      1.0  0.22600  0.09290  0.77300  1.0000
  Cl  Cl19      1.0  0.45700  0.59000  0.80800  1.0000
  Cl  Cl20      1.0  0.95700  0.91000  0.80800  1.0000
  N   N1        1.0  0.36100  0.94100  0.02950  1.0000
  N   N2        1.0  0.86100  0.55900  0.02950  1.0000
  N   N3        1.0  0.69900  0.72200  0.06880  1.0000
  N   N4        1.0  0.19900  0.77800  0.06880  1.0000
  N   N5        1.0  0.14300  0.32200  0.15800  1.0000
  N   N6        1.0  0.64300  0.17800  0.15800  1.0000
  N   N7        1.0  0.85700  0.67800  0.84200  1.0000
  N   N8        1.0  0.35700  0.82200  0.84200  1.0000
  N   N9        1.0  0.30100  0.27800  0.93100  1.0000
  N   N10       1.0  0.80100  0.22200  0.93100  1.0000
  N   N11       1.0  0.63900  0.05900  0.97100  1.0000
  N   N12       1.0  0.13900  0.44100  0.97100  1.0000
  S   S1        1.0  0.24000  0.25900  0.08600  1.0000
  S   S2        1.0  0.74000  0.24100  0.08600  1.0000
  S   S3        1.0  0.09550  0.40600  0.12200  1.0000
  S   S4        1.0  0.59500  0.09400  0.12200  1.0000
  S   S5        1.0  0.78000  0.56100  0.17800  1.0000
  S   S6        1.0  0.28000  0.93900  0.17800  1.0000
  S   S7        1.0  0.67800  0.66600  0.20600  1.0000
  S   S8        1.0  0.17800  0.83400  0.20600  1.0000
  S   S9        1.0  0.32200  0.33400  0.79400  1.0000
  S   S10       1.0  0.82200  0.16600  0.79400  1.0000
  S   S11       1.0  0.22000  0.43900  0.82200  1.0000
  S   S12       1.0  0.72000  0.06060  0.82200  1.0000
  S   S13       1.0  0.90500  0.59400  0.87800  1.0000
  S   S14       1.0  0.40500  0.90600  0.87800  1.0000
  S   S15       1.0  0.26000  0.75900  0.91400  1.0000
  S   S16       1.0  0.76000  0.74100  0.91400  1.0000
  Se  Se1       1.0  0.63700  0.40600  0.48500  1.0000
  Se  Se2       1.0  0.13700  0.09410  0.48500  1.0000
  Se  Se3       1.0  0.36300  0.59400  0.51500  1.0000
  Se  Se4       1.0  0.86300  0.90600  0.51500  1.0000
