data_image0
_chemical_formula_structural       Nb36P18
_chemical_formula_sum              "Nb36 P18"
_cell_length_a       18.0783
_cell_length_b       3.45621
_cell_length_c       13.9084
_cell_angle_alpha    90
_cell_angle_beta     90
_cell_angle_gamma    90

_space_group_name_H-M_alt    "P 1"
_space_group_IT_number       1

loop_
  _space_group_symop_operation_xyz
  'x, y, z'

loop_
  _atom_site_type_symbol
  _atom_site_label
  _atom_site_symmetry_multiplicity
  _atom_site_fract_x
  _atom_site_fract_y
  _atom_site_fract_z
  _atom_site_occupancy
  Nb  Nb1       1.0  0.00000  0.00000  0.00000  1.0000
  Nb  Nb2       1.0  0.50000  0.00000  0.00000  1.0000
  Nb  Nb3       1.0  0.14300  0.50000  0.00342  1.0000
  Nb  Nb4       1.0  0.35700  0.50000  0.00342  1.0000
  Nb  Nb5       1.0  0.75000  0.00000  0.11200  1.0000
  Nb  Nb6       1.0  0.25000  0.00000  0.11700  1.0000
  Nb  Nb7       1.0  0.00101  0.50000  0.16200  1.0000
  Nb  Nb8       1.0  0.49900  0.50000  0.16200  1.0000
  Nb  Nb9       1.0  0.66200  0.50000  0.23900  1.0000
  Nb  Nb10      1.0  0.83800  0.50000  0.23900  1.0000
  Nb  Nb11      1.0  0.16500  0.50000  0.24000  1.0000
  Nb  Nb12      1.0  0.33500  0.50000  0.24000  1.0000
  Nb  Nb13      1.0  0.06210  0.00000  0.34300  1.0000
  Nb  Nb14      1.0  0.43800  0.00000  0.34300  1.0000
  Nb  Nb15      1.0  0.25000  0.00000  0.38600  1.0000
  Nb  Nb16      1.0  0.62100  0.00000  0.43000  1.0000
  Nb  Nb17      1.0  0.87900  0.00000  0.43000  1.0000
  Nb  Nb18      1.0  0.75000  0.50000  0.43900  1.0000
  Nb  Nb19      1.0  0.00000  0.50000  0.50000  1.0000
  Nb  Nb20      1.0  0.50000  0.50000  0.50000  1.0000
  Nb  Nb21      1.0  0.25000  0.50000  0.56100  1.0000
  Nb  Nb22      1.0  0.12100  0.00000  0.57000  1.0000
  Nb  Nb23      1.0  0.37900  0.00000  0.57000  1.0000
  Nb  Nb24      1.0  0.75000  0.00000  0.61400  1.0000
  Nb  Nb25      1.0  0.56200  0.00000  0.65700  1.0000
  Nb  Nb26      1.0  0.93800  0.00000  0.65700  1.0000
  Nb  Nb27      1.0  0.66500  0.50000  0.76000  1.0000
  Nb  Nb28      1.0  0.83500  0.50000  0.76000  1.0000
  Nb  Nb29      1.0  0.16200  0.50000  0.76100  1.0000
  Nb  Nb30      1.0  0.33800  0.50000  0.76100  1.0000
  Nb  Nb31      1.0  0.50100  0.50000  0.83800  1.0000
  Nb  Nb32      1.0  0.99900  0.50000  0.83800  1.0000
  Nb  Nb33      1.0  0.75000  0.00000  0.88300  1.0000
  Nb  Nb34      1.0  0.25000  0.00000  0.88800  1.0000
  Nb  Nb35      1.0  0.64300  0.50000  0.99700  1.0000
  Nb  Nb36      1.0  0.85700  0.50000  0.99700  1.0000
  P   P1        1.0  0.60400  0.00000  0.12800  1.0000
  P   P2        1.0  0.89600  0.00000  0.12800  1.0000
  P   P3        1.0  0.10400  0.00000  0.13600  1.0000
  P   P4        1.0  0.39600  0.00000  0.13600  1.0000
  P   P5        1.0  0.75000  0.00000  0.31000  1.0000
  P   P6        1.0  0.54500  0.50000  0.32900  1.0000
  P   P7        1.0  0.95500  0.50000  0.32900  1.0000
  P   P8        1.0  0.14400  0.50000  0.43200  1.0000
  P   P9        1.0  0.35600  0.50000  0.43200  1.0000
  P   P10       1.0  0.64400  0.50000  0.56800  1.0000
  P   P11       1.0  0.85600  0.50000  0.56800  1.0000
  P   P12       1.0  0.04520  0.50000  0.67100  1.0000
  P   P13       1.0  0.45500  0.50000  0.67100  1.0000
  P   P14       1.0  0.25000  0.00000  0.69000  1.0000
  P   P15       1.0  0.60400  0.00000  0.86400  1.0000
  P   P16       1.0  0.89600  0.00000  0.86400  1.0000
  P   P17       1.0  0.10400  0.00000  0.87200  1.0000
  P   P18       1.0  0.39600  0.00000  0.87200  1.0000
