data_image0
_chemical_formula_structural       C4Cl12H24N12Sn2
_chemical_formula_sum              "C4 Cl12 H24 N12 Sn2"
_cell_length_a       8.59412
_cell_length_b       8.66495
_cell_length_c       12.1363
_cell_angle_alpha    98.034
_cell_angle_beta     110.736
_cell_angle_gamma    60.27

_space_group_name_H-M_alt    "P 1"
_space_group_IT_number       1

loop_
  _space_group_symop_operation_xyz
  'x, y, z'

loop_
  _atom_site_type_symbol
  _atom_site_label
  _atom_site_symmetry_multiplicity
  _atom_site_fract_x
  _atom_site_fract_y
  _atom_site_fract_z
  _atom_site_occupancy
  C   C1        1.0  0.36600  0.59600  0.13800  1.0000
  C   C2        1.0  0.82400  0.90400  0.36200  1.0000
  C   C3        1.0  0.17600  0.09640  0.63800  1.0000
  C   C4        1.0  0.63400  0.40400  0.86200  1.0000
  Cl  Cl1       1.0  0.29300  0.12900  0.12000  1.0000
  Cl  Cl2       1.0  0.88900  0.12600  0.12700  1.0000
  Cl  Cl3       1.0  0.89500  0.53100  0.13000  1.0000
  Cl  Cl4       1.0  0.29600  0.96900  0.37000  1.0000
  Cl  Cl5       1.0  0.88800  0.37400  0.37300  1.0000
  Cl  Cl6       1.0  0.30100  0.37100  0.38000  1.0000
  Cl  Cl7       1.0  0.69900  0.62900  0.62000  1.0000
  Cl  Cl8       1.0  0.11200  0.62600  0.62700  1.0000
  Cl  Cl9       1.0  0.70400  0.03130  0.63000  1.0000
  Cl  Cl10      1.0  0.10500  0.46900  0.87000  1.0000
  Cl  Cl11      1.0  0.11100  0.87400  0.87300  1.0000
  Cl  Cl12      1.0  0.70700  0.87100  0.88000  1.0000
  H   H1        1.0  0.10700  0.62200  0.12000  1.0000
  H   H2        1.0  0.11000  0.82100  0.12000  1.0000
  H   H3        1.0  0.38400  0.34900  0.13200  1.0000
  H   H4        1.0  0.39400  0.81900  0.13900  1.0000
  H   H5        1.0  0.59200  0.34700  0.14100  1.0000
  H   H6        1.0  0.59900  0.61800  0.14700  1.0000
  H   H7        1.0  0.06910  0.88200  0.35300  1.0000
  H   H8        1.0  0.79800  0.15300  0.35900  1.0000
  H   H9        1.0  0.07440  0.68100  0.36100  1.0000
  H   H10       1.0  0.60200  0.15100  0.36800  1.0000
  H   H11       1.0  0.81100  0.67900  0.38000  1.0000
  H   H12       1.0  0.61000  0.87800  0.38000  1.0000
  H   H13       1.0  0.39000  0.12200  0.62000  1.0000
  H   H14       1.0  0.18900  0.32100  0.62000  1.0000
  H   H15       1.0  0.39800  0.84900  0.63200  1.0000
  H   H16       1.0  0.92600  0.31900  0.63900  1.0000
  H   H17       1.0  0.20200  0.84700  0.64100  1.0000
  H   H18       1.0  0.93100  0.11800  0.64700  1.0000
  H   H19       1.0  0.40100  0.38200  0.85300  1.0000
  H   H20       1.0  0.40800  0.65300  0.85900  1.0000
  H   H21       1.0  0.60600  0.18100  0.86100  1.0000
  H   H22       1.0  0.61600  0.65100  0.86800  1.0000
  H   H23       1.0  0.89000  0.17900  0.88000  1.0000
  H   H24       1.0  0.89300  0.37800  0.88000  1.0000
  N   N1        1.0  0.18500  0.68600  0.13400  1.0000
  N   N2        1.0  0.45500  0.41800  0.14000  1.0000
  N   N3        1.0  0.45900  0.68400  0.14100  1.0000
  N   N4        1.0  0.00145  0.81600  0.35900  1.0000
  N   N5        1.0  0.73400  0.08170  0.36000  1.0000
  N   N6        1.0  0.73700  0.81400  0.36600  1.0000
  N   N7        1.0  0.26300  0.18600  0.63400  1.0000
  N   N8        1.0  0.26600  0.91800  0.64000  1.0000
  N   N9        1.0  0.99900  0.18400  0.64100  1.0000
  N   N10       1.0  0.54100  0.31600  0.85900  1.0000
  N   N11       1.0  0.54500  0.58200  0.86000  1.0000
  N   N12       1.0  0.81500  0.31400  0.86600  1.0000
  Sn  Sn1       1.0  0.09550  0.25000  0.25000  1.0000
  Sn  Sn2       1.0  0.90400  0.75000  0.75000  1.0000
