data_image0
_chemical_formula_structural       Mn2Pb8S28Sb12
_chemical_formula_sum              "Mn2 Pb8 S28 Sb12"
_cell_length_a       4.03938
_cell_length_b       19.4344
_cell_length_c       16.0362
_cell_angle_alpha    90
_cell_angle_beta     92.2274
_cell_angle_gamma    90

_space_group_name_H-M_alt    "P 1"
_space_group_IT_number       1

loop_
  _space_group_symop_operation_xyz
  'x, y, z'

loop_
  _atom_site_type_symbol
  _atom_site_label
  _atom_site_symmetry_multiplicity
  _atom_site_fract_x
  _atom_site_fract_y
  _atom_site_fract_z
  _atom_site_occupancy
  Mn  Mn1       1.0  0.50000  0.00000  0.00000  1.0000
  Mn  Mn2       1.0  0.50000  0.50000  0.50000  1.0000
  Pb  Pb1       1.0  0.42900  0.25700  0.07360  1.0000
  Pb  Pb2       1.0  0.54000  0.86200  0.18600  1.0000
  Pb  Pb3       1.0  0.46000  0.36200  0.31400  1.0000
  Pb  Pb4       1.0  0.57100  0.75700  0.42600  1.0000
  Pb  Pb5       1.0  0.42900  0.24300  0.57400  1.0000
  Pb  Pb6       1.0  0.54000  0.63800  0.68600  1.0000
  Pb  Pb7       1.0  0.46000  0.13800  0.81400  1.0000
  Pb  Pb8       1.0  0.57100  0.74300  0.92600  1.0000
  S   S1        1.0  0.56900  0.60300  0.00107  1.0000
  S   S2        1.0  0.09120  0.77100  0.05060  1.0000
  S   S3        1.0  0.52000  0.10300  0.08590  1.0000
  S   S4        1.0  0.02760  0.95500  0.09570  1.0000
  S   S5        1.0  0.93700  0.33800  0.18200  1.0000
  S   S6        1.0  0.46200  0.49300  0.21300  1.0000
  S   S7        1.0  0.61400  0.70100  0.22000  1.0000
  S   S8        1.0  0.38600  0.20100  0.28000  1.0000
  S   S9        1.0  0.53800  0.99300  0.28700  1.0000
  S   S10       1.0  0.06290  0.83800  0.31800  1.0000
  S   S11       1.0  0.97200  0.45500  0.40400  1.0000
  S   S12       1.0  0.48000  0.60300  0.41400  1.0000
  S   S13       1.0  0.90900  0.27100  0.44900  1.0000
  S   S14       1.0  0.43100  0.10300  0.49900  1.0000
  S   S15       1.0  0.56900  0.89700  0.50100  1.0000
  S   S16       1.0  0.09120  0.72900  0.55100  1.0000
  S   S17       1.0  0.52000  0.39700  0.58600  1.0000
  S   S18       1.0  0.02760  0.54500  0.59600  1.0000
  S   S19       1.0  0.93700  0.16200  0.68200  1.0000
  S   S20       1.0  0.46200  0.00704  0.71300  1.0000
  S   S21       1.0  0.61400  0.79900  0.72000  1.0000
  S   S22       1.0  0.38600  0.29900  0.78000  1.0000
  S   S23       1.0  0.53800  0.50700  0.78700  1.0000
  S   S24       1.0  0.06290  0.66200  0.81800  1.0000
  S   S25       1.0  0.97200  0.04530  0.90400  1.0000
  S   S26       1.0  0.48000  0.89700  0.91400  1.0000
  S   S27       1.0  0.90900  0.22900  0.94900  1.0000
  S   S28       1.0  0.43100  0.39700  0.99900  1.0000
  Sb  Sb1       1.0  0.86900  0.44700  0.10300  1.0000
  Sb  Sb2       1.0  0.13300  0.66000  0.12700  1.0000
  Sb  Sb3       1.0  0.09580  0.05990  0.18400  1.0000
  Sb  Sb4       1.0  0.90400  0.56000  0.31600  1.0000
  Sb  Sb5       1.0  0.86700  0.16000  0.37300  1.0000
  Sb  Sb6       1.0  0.13100  0.94700  0.39700  1.0000
  Sb  Sb7       1.0  0.86900  0.05300  0.60300  1.0000
  Sb  Sb8       1.0  0.13300  0.84000  0.62700  1.0000
  Sb  Sb9       1.0  0.09580  0.44000  0.68400  1.0000
  Sb  Sb10      1.0  0.90400  0.94000  0.81600  1.0000
  Sb  Sb11      1.0  0.86700  0.34000  0.87300  1.0000
  Sb  Sb12      1.0  0.13100  0.55300  0.89700  1.0000
