data_image0
_chemical_formula_structural       H24Mg2N4O24
_chemical_formula_sum              "H24 Mg2 N4 O24"
_cell_length_a       6.05952
_cell_length_b       12.2106
_cell_length_c       6.16695
_cell_angle_alpha    90
_cell_angle_beta     95.6846
_cell_angle_gamma    90

_space_group_name_H-M_alt    "P 1"
_space_group_IT_number       1

loop_
  _space_group_symop_operation_xyz
  'x, y, z'

loop_
  _atom_site_type_symbol
  _atom_site_label
  _atom_site_symmetry_multiplicity
  _atom_site_fract_x
  _atom_site_fract_y
  _atom_site_fract_z
  _atom_site_occupancy
  H   H1        1.0  0.07470  0.21600  0.00955  1.0000
  H   H2        1.0  0.18600  0.80800  0.02510  1.0000
  H   H3        1.0  0.41200  0.08250  0.10700  1.0000
  H   H4        1.0  0.19600  0.56900  0.13300  1.0000
  H   H5        1.0  0.19000  0.44000  0.14700  1.0000
  H   H6        1.0  0.61800  0.48300  0.22800  1.0000
  H   H7        1.0  0.38200  0.98300  0.27200  1.0000
  H   H8        1.0  0.81000  0.94000  0.35300  1.0000
  H   H9        1.0  0.80400  0.06930  0.36700  1.0000
  H   H10       1.0  0.58800  0.58300  0.39300  1.0000
  H   H11       1.0  0.81400  0.30800  0.47500  1.0000
  H   H12       1.0  0.92500  0.71600  0.49000  1.0000
  H   H13       1.0  0.07470  0.28400  0.51000  1.0000
  H   H14       1.0  0.18600  0.69200  0.52500  1.0000
  H   H15       1.0  0.41200  0.41700  0.60700  1.0000
  H   H16       1.0  0.19600  0.93100  0.63300  1.0000
  H   H17       1.0  0.19000  0.05980  0.64700  1.0000
  H   H18       1.0  0.61800  0.01670  0.72800  1.0000
  H   H19       1.0  0.38200  0.51700  0.77200  1.0000
  H   H20       1.0  0.81000  0.56000  0.85300  1.0000
  H   H21       1.0  0.80400  0.43100  0.86700  1.0000
  H   H22       1.0  0.58800  0.91700  0.89300  1.0000
  H   H23       1.0  0.81400  0.19200  0.97500  1.0000
  H   H24       1.0  0.92500  0.78400  0.99000  1.0000
  Mg  Mg1       1.0  0.00000  0.00000  0.00000  1.0000
  Mg  Mg2       1.0  0.00000  0.50000  0.50000  1.0000
  N   N1        1.0  0.47000  0.29600  0.04480  1.0000
  N   N2        1.0  0.53000  0.79600  0.45500  1.0000
  N   N3        1.0  0.47000  0.20400  0.54500  1.0000
  N   N4        1.0  0.53000  0.70400  0.95500  1.0000
  O   O1        1.0  0.54000  0.20100  0.01100  1.0000
  O   O2        1.0  0.59900  0.37700  0.03590  1.0000
  O   O3        1.0  0.03870  0.83600  0.05630  1.0000
  O   O4        1.0  0.27300  0.31000  0.08820  1.0000
  O   O5        1.0  0.30600  0.03000  0.15900  1.0000
  O   O6        1.0  0.14000  0.50800  0.21400  1.0000
  O   O7        1.0  0.86000  0.00844  0.28600  1.0000
  O   O8        1.0  0.69400  0.53000  0.34100  1.0000
  O   O9        1.0  0.72700  0.81000  0.41200  1.0000
  O   O10       1.0  0.96100  0.33600  0.44400  1.0000
  O   O11       1.0  0.40100  0.87700  0.46400  1.0000
  O   O12       1.0  0.46000  0.70100  0.48900  1.0000
  O   O13       1.0  0.54000  0.29900  0.51100  1.0000
  O   O14       1.0  0.59900  0.12300  0.53600  1.0000
  O   O15       1.0  0.03870  0.66400  0.55600  1.0000
  O   O16       1.0  0.27300  0.19000  0.58800  1.0000
  O   O17       1.0  0.30600  0.47000  0.65900  1.0000
  O   O18       1.0  0.14000  0.99200  0.71400  1.0000
  O   O19       1.0  0.86000  0.49200  0.78600  1.0000
  O   O20       1.0  0.69400  0.97000  0.84100  1.0000
  O   O21       1.0  0.72700  0.69000  0.91200  1.0000
  O   O22       1.0  0.96100  0.16400  0.94400  1.0000
  O   O23       1.0  0.40100  0.62300  0.96400  1.0000
  O   O24       1.0  0.46000  0.79900  0.98900  1.0000
