data_image0
_chemical_formula_structural       C6F18K6O18S6
_chemical_formula_sum              "C6 F18 K6 O18 S6"
_cell_length_a       10.163
_cell_length_b       5.64967
_cell_length_c       13.8647
_cell_angle_alpha    90
_cell_angle_beta     110.557
_cell_angle_gamma    90

_space_group_name_H-M_alt    "P 1"
_space_group_IT_number       1

loop_
  _space_group_symop_operation_xyz
  'x, y, z'

loop_
  _atom_site_type_symbol
  _atom_site_label
  _atom_site_symmetry_multiplicity
  _atom_site_fract_x
  _atom_site_fract_y
  _atom_site_fract_z
  _atom_site_occupancy
  C   C1        1.0  0.83000  0.17700  0.19800  1.0000
  C   C2        1.0  0.18400  0.70200  0.29200  1.0000
  C   C3        1.0  0.84600  0.77400  0.47100  1.0000
  C   C4        1.0  0.15400  0.27400  0.52900  1.0000
  C   C5        1.0  0.81600  0.20200  0.70800  1.0000
  C   C6        1.0  0.17000  0.67700  0.80200  1.0000
  F   F1        1.0  0.93100  0.19400  0.15400  1.0000
  F   F2        1.0  0.83100  0.95200  0.23300  1.0000
  F   F3        1.0  0.86000  0.32900  0.27700  1.0000
  F   F4        1.0  0.10100  0.88000  0.29800  1.0000
  F   F5        1.0  0.12500  0.49200  0.30000  1.0000
  F   F6        1.0  0.30900  0.72200  0.37200  1.0000
  F   F7        1.0  0.90800  0.72600  0.40200  1.0000
  F   F8        1.0  0.09820  0.13100  0.44600  1.0000
  F   F9        1.0  0.12800  0.50100  0.49800  1.0000
  F   F10       1.0  0.87200  0.00108  0.50200  1.0000
  F   F11       1.0  0.90200  0.63100  0.55400  1.0000
  F   F12       1.0  0.09160  0.22600  0.59800  1.0000
  F   F13       1.0  0.69100  0.22200  0.62800  1.0000
  F   F14       1.0  0.87500  0.99200  0.70000  1.0000
  F   F15       1.0  0.89900  0.38000  0.70200  1.0000
  F   F16       1.0  0.14000  0.82900  0.72300  1.0000
  F   F17       1.0  0.16900  0.45200  0.76700  1.0000
  F   F18       1.0  0.06930  0.69400  0.84600  1.0000
  K   K1        1.0  0.18300  0.24100  0.01510  1.0000
  K   K2        1.0  0.53700  0.72600  0.15500  1.0000
  K   K3        1.0  0.42900  0.21500  0.33500  1.0000
  K   K4        1.0  0.57100  0.71500  0.66500  1.0000
  K   K5        1.0  0.46300  0.22600  0.84500  1.0000
  K   K6        1.0  0.81700  0.74100  0.98500  1.0000
  O   O1        1.0  0.64300  0.03500  0.02850  1.0000
  O   O2        1.0  0.67300  0.46300  0.05740  1.0000
  O   O3        1.0  0.07990  0.68600  0.08760  1.0000
  O   O4        1.0  0.55600  0.22800  0.15200  1.0000
  O   O5        1.0  0.28300  0.94300  0.17100  1.0000
  O   O6        1.0  0.31000  0.51100  0.17800  1.0000
  O   O7        1.0  0.61700  0.92000  0.33500  1.0000
  O   O8        1.0  0.63900  0.49500  0.36800  1.0000
  O   O9        1.0  0.60200  0.76800  0.49500  1.0000
  O   O10       1.0  0.39800  0.26800  0.50500  1.0000
  O   O11       1.0  0.36100  0.99500  0.63200  1.0000
  O   O12       1.0  0.38300  0.42000  0.66500  1.0000
  O   O13       1.0  0.69000  0.01140  0.82200  1.0000
  O   O14       1.0  0.71700  0.44300  0.82900  1.0000
  O   O15       1.0  0.44400  0.72800  0.84800  1.0000
  O   O16       1.0  0.92000  0.18600  0.91200  1.0000
  O   O17       1.0  0.32700  0.96300  0.94300  1.0000
  O   O18       1.0  0.35700  0.53500  0.97100  1.0000
  S   S1        1.0  0.65600  0.23300  0.09920  1.0000
  S   S2        1.0  0.21600  0.71300  0.16900  1.0000
  S   S3        1.0  0.65600  0.73200  0.41200  1.0000
  S   S4        1.0  0.34400  0.23200  0.58800  1.0000
  S   S5        1.0  0.78400  0.21300  0.83100  1.0000
  S   S6        1.0  0.34400  0.73300  0.90100  1.0000
