data_image0
_chemical_formula_structural       H4K8N4O28S8
_chemical_formula_sum              "H4 K8 N4 O28 S8"
_cell_length_a       10.6833
_cell_length_b       9.85296
_cell_length_c       7.22542
_cell_angle_alpha    90
_cell_angle_beta     108.609
_cell_angle_gamma    90

_space_group_name_H-M_alt    "P 1"
_space_group_IT_number       1

loop_
  _space_group_symop_operation_xyz
  'x, y, z'

loop_
  _atom_site_type_symbol
  _atom_site_label
  _atom_site_symmetry_multiplicity
  _atom_site_fract_x
  _atom_site_fract_y
  _atom_site_fract_z
  _atom_site_occupancy
  H   H1        1.0  0.42100  0.43300  0.37000  1.0000
  H   H2        1.0  0.92100  0.06720  0.37000  1.0000
  H   H3        1.0  0.57900  0.56700  0.63000  1.0000
  H   H4        1.0  0.07890  0.93300  0.63000  1.0000
  K   K1        1.0  0.01580  0.75100  0.04770  1.0000
  K   K2        1.0  0.51600  0.74900  0.04770  1.0000
  K   K3        1.0  0.80800  0.41000  0.35300  1.0000
  K   K4        1.0  0.30800  0.08990  0.35300  1.0000
  K   K5        1.0  0.19200  0.59000  0.64700  1.0000
  K   K6        1.0  0.69200  0.91000  0.64700  1.0000
  K   K7        1.0  0.48400  0.25100  0.95200  1.0000
  K   K8        1.0  0.98400  0.24900  0.95200  1.0000
  N   N1        1.0  0.34400  0.50200  0.32300  1.0000
  N   N2        1.0  0.84400  0.99800  0.32300  1.0000
  N   N3        1.0  0.65600  0.49800  0.67700  1.0000
  N   N4        1.0  0.15600  0.00221  0.67700  1.0000
  O   O1        1.0  0.64200  0.97300  0.01850  1.0000
  O   O2        1.0  0.14200  0.52700  0.01850  1.0000
  O   O3        1.0  0.14500  0.98400  0.02620  1.0000
  O   O4        1.0  0.64500  0.51600  0.02620  1.0000
  O   O5        1.0  0.75100  0.19300  0.11300  1.0000
  O   O6        1.0  0.25100  0.30700  0.11300  1.0000
  O   O7        1.0  0.91300  0.87200  0.30900  1.0000
  O   O8        1.0  0.41300  0.62800  0.30900  1.0000
  O   O9        1.0  0.06050  0.20200  0.35400  1.0000
  O   O10       1.0  0.56000  0.29800  0.35400  1.0000
  O   O11       1.0  0.23800  0.76600  0.38700  1.0000
  O   O12       1.0  0.73800  0.73400  0.38700  1.0000
  O   O13       1.0  0.45100  0.86000  0.38900  1.0000
  O   O14       1.0  0.95100  0.64000  0.38900  1.0000
  O   O15       1.0  0.04880  0.36000  0.61100  1.0000
  O   O16       1.0  0.54900  0.14000  0.61100  1.0000
  O   O17       1.0  0.76200  0.23400  0.61300  1.0000
  O   O18       1.0  0.26200  0.26600  0.61300  1.0000
  O   O19       1.0  0.44000  0.70200  0.64600  1.0000
  O   O20       1.0  0.94000  0.79800  0.64600  1.0000
  O   O21       1.0  0.58700  0.37200  0.69100  1.0000
  O   O22       1.0  0.08730  0.12800  0.69100  1.0000
  O   O23       1.0  0.74900  0.69300  0.88700  1.0000
  O   O24       1.0  0.24900  0.80700  0.88700  1.0000
  O   O25       1.0  0.85500  0.01620  0.97400  1.0000
  O   O26       1.0  0.35500  0.48400  0.97400  1.0000
  O   O27       1.0  0.35800  0.02680  0.98100  1.0000
  O   O28       1.0  0.85800  0.47300  0.98100  1.0000
  S   S1        1.0  0.76600  0.04800  0.08530  1.0000
  S   S2        1.0  0.26600  0.45200  0.08530  1.0000
  S   S3        1.0  0.38000  0.74900  0.44500  1.0000
  S   S4        1.0  0.88000  0.75100  0.44500  1.0000
  S   S5        1.0  0.62000  0.25100  0.55500  1.0000
  S   S6        1.0  0.12000  0.24900  0.55500  1.0000
  S   S7        1.0  0.73400  0.54800  0.91500  1.0000
  S   S8        1.0  0.23400  0.95200  0.91500  1.0000
