data_image0
_chemical_formula_structural       Lu4Mn4Si4
_chemical_formula_sum              "Lu4 Mn4 Si4"
_cell_length_a       6.77041
_cell_length_b       3.98507
_cell_length_c       7.57063
_cell_angle_alpha    90
_cell_angle_beta     90
_cell_angle_gamma    90

_space_group_name_H-M_alt    "P 1"
_space_group_IT_number       1

loop_
  _space_group_symop_operation_xyz
  'x, y, z'

loop_
  _atom_site_type_symbol
  _atom_site_label
  _atom_site_symmetry_multiplicity
  _atom_site_fract_x
  _atom_site_fract_y
  _atom_site_fract_z
  _atom_site_occupancy
  Lu  Lu1       1.0  0.48300  0.75000  0.18400  1.0000
  Lu  Lu2       1.0  0.98300  0.75000  0.31600  1.0000
  Lu  Lu3       1.0  0.01690  0.25000  0.68400  1.0000
  Lu  Lu4       1.0  0.51700  0.25000  0.81600  1.0000
  Mn  Mn1       1.0  0.14000  0.25000  0.05800  1.0000
  Mn  Mn2       1.0  0.64000  0.25000  0.44200  1.0000
  Mn  Mn3       1.0  0.36000  0.75000  0.55800  1.0000
  Mn  Mn4       1.0  0.86000  0.75000  0.94200  1.0000
  Si  Si1       1.0  0.78400  0.25000  0.11500  1.0000
  Si  Si2       1.0  0.28400  0.25000  0.38500  1.0000
  Si  Si3       1.0  0.71600  0.75000  0.61500  1.0000
  Si  Si4       1.0  0.21600  0.75000  0.88500  1.0000
