data_image0
_chemical_formula_structural       I12O36Tb4
_chemical_formula_sum              "I12 O36 Tb4"
_cell_length_a       8.63334
_cell_length_b       5.78489
_cell_length_c       14.7891
_cell_angle_alpha    90
_cell_angle_beta     97.0713
_cell_angle_gamma    90

_space_group_name_H-M_alt    "P 1"
_space_group_IT_number       1

loop_
  _space_group_symop_operation_xyz
  'x, y, z'

loop_
  _atom_site_type_symbol
  _atom_site_label
  _atom_site_symmetry_multiplicity
  _atom_site_fract_x
  _atom_site_fract_y
  _atom_site_fract_z
  _atom_site_occupancy
  I   I1        1.0  0.66200  0.15300  0.02430  1.0000
  I   I2        1.0  0.22700  0.31200  0.15100  1.0000
  I   I3        1.0  0.62000  0.59800  0.20200  1.0000
  I   I4        1.0  0.88000  0.09800  0.29800  1.0000
  I   I5        1.0  0.27300  0.81200  0.34900  1.0000
  I   I6        1.0  0.83800  0.65300  0.47600  1.0000
  I   I7        1.0  0.16200  0.34700  0.52400  1.0000
  I   I8        1.0  0.72700  0.18800  0.65100  1.0000
  I   I9        1.0  0.12000  0.90200  0.70200  1.0000
  I   I10       1.0  0.38000  0.40200  0.79800  1.0000
  I   I11       1.0  0.77300  0.68800  0.84900  1.0000
  I   I12       1.0  0.33800  0.84700  0.97600  1.0000
  O   O1        1.0  0.14000  0.89900  0.00912  1.0000
  O   O2        1.0  0.13800  0.41000  0.03780  1.0000
  O   O3        1.0  0.41400  0.08560  0.05650  1.0000
  O   O4        1.0  0.45000  0.59200  0.11200  1.0000
  O   O5        1.0  0.72100  0.96600  0.12400  1.0000
  O   O6        1.0  0.77200  0.49400  0.13300  1.0000
  O   O7        1.0  0.07210  0.10500  0.17400  1.0000
  O   O8        1.0  0.14200  0.56400  0.20400  1.0000
  O   O9        1.0  0.58600  0.30400  0.24200  1.0000
  O   O10       1.0  0.91400  0.80400  0.25800  1.0000
  O   O11       1.0  0.35800  0.06450  0.29600  1.0000
  O   O12       1.0  0.42800  0.60500  0.32600  1.0000
  O   O13       1.0  0.72800  0.99400  0.36700  1.0000
  O   O14       1.0  0.77900  0.46600  0.37600  1.0000
  O   O15       1.0  0.05000  0.09190  0.38800  1.0000
  O   O16       1.0  0.08640  0.58600  0.44400  1.0000
  O   O17       1.0  0.36200  0.91000  0.46200  1.0000
  O   O18       1.0  0.36000  0.39900  0.49100  1.0000
  O   O19       1.0  0.64000  0.60100  0.50900  1.0000
  O   O20       1.0  0.63800  0.09030  0.53800  1.0000
  O   O21       1.0  0.91400  0.41400  0.55600  1.0000
  O   O22       1.0  0.95000  0.90800  0.61200  1.0000
  O   O23       1.0  0.22100  0.53400  0.62400  1.0000
  O   O24       1.0  0.27200  0.00637  0.63300  1.0000
  O   O25       1.0  0.57200  0.39500  0.67400  1.0000
  O   O26       1.0  0.64200  0.93600  0.70400  1.0000
  O   O27       1.0  0.08620  0.19600  0.74200  1.0000
  O   O28       1.0  0.41400  0.69600  0.75800  1.0000
  O   O29       1.0  0.85800  0.43600  0.79600  1.0000
  O   O30       1.0  0.92800  0.89500  0.82600  1.0000
  O   O31       1.0  0.22800  0.50600  0.86700  1.0000
  O   O32       1.0  0.27900  0.03420  0.87600  1.0000
  O   O33       1.0  0.55000  0.40800  0.88800  1.0000
  O   O34       1.0  0.58600  0.91400  0.94400  1.0000
  O   O35       1.0  0.86200  0.59000  0.96200  1.0000
  O   O36       1.0  0.86000  0.10100  0.99100  1.0000
  Tb  Tb1       1.0  0.96100  0.77100  0.09970  1.0000
  Tb  Tb2       1.0  0.53900  0.27100  0.40000  1.0000
  Tb  Tb3       1.0  0.46100  0.72900  0.60000  1.0000
  Tb  Tb4       1.0  0.03930  0.22900  0.90000  1.0000
