data_image0
_chemical_formula_structural       Al44Mo10
_chemical_formula_sum              "Al44 Mo10"
_cell_length_a       4.94293
_cell_length_b       5.21585
_cell_length_c       37.0289
_cell_angle_alpha    91.8123
_cell_angle_beta     86.173
_cell_angle_gamma    118.284

_space_group_name_H-M_alt    "P 1"
_space_group_IT_number       1

loop_
  _space_group_symop_operation_xyz
  'x, y, z'

loop_
  _atom_site_type_symbol
  _atom_site_label
  _atom_site_symmetry_multiplicity
  _atom_site_fract_x
  _atom_site_fract_y
  _atom_site_fract_z
  _atom_site_occupancy
  Al  Al1       1.0  0.54700  0.45500  0.01750  1.0000
  Al  Al2       1.0  0.43900  0.92000  0.03760  1.0000
  Al  Al3       1.0  0.99300  0.35200  0.05560  1.0000
  Al  Al4       1.0  0.85900  0.79000  0.07330  1.0000
  Al  Al5       1.0  0.40900  0.25500  0.09420  1.0000
  Al  Al6       1.0  0.84500  0.16500  0.12900  1.0000
  Al  Al7       1.0  0.73400  0.63300  0.14900  1.0000
  Al  Al8       1.0  0.28200  0.05010  0.16800  1.0000
  Al  Al9       1.0  0.15800  0.49500  0.18300  1.0000
  Al  Al10      1.0  0.68900  0.95800  0.20800  1.0000
  Al  Al11      1.0  0.12600  0.91200  0.24400  1.0000
  Al  Al12      1.0  0.12100  0.41200  0.25600  1.0000
  Al  Al13      1.0  0.64700  0.45800  0.29200  1.0000
  Al  Al14      1.0  0.09130  0.99500  0.31700  1.0000
  Al  Al15      1.0  0.19900  0.55000  0.33200  1.0000
  Al  Al16      1.0  0.63300  0.13300  0.35100  1.0000
  Al  Al17      1.0  0.72300  0.66500  0.37100  1.0000
  Al  Al18      1.0  0.25300  0.75500  0.40600  1.0000
  Al  Al19      1.0  0.68200  0.29000  0.42700  1.0000
  Al  Al20      1.0  0.79900  0.85200  0.44400  1.0000
  Al  Al21      1.0  0.22700  0.42000  0.46200  1.0000
  Al  Al22      1.0  0.31500  0.95500  0.48200  1.0000
  Al  Al23      1.0  0.84200  0.04450  0.51800  1.0000
  Al  Al24      1.0  0.26900  0.58000  0.53800  1.0000
  Al  Al25      1.0  0.39100  0.14800  0.55600  1.0000
  Al  Al26      1.0  0.81800  0.71000  0.57300  1.0000
  Al  Al27      1.0  0.90400  0.24500  0.59400  1.0000
  Al  Al28      1.0  0.43000  0.33500  0.62900  1.0000
  Al  Al29      1.0  0.85200  0.86700  0.64900  1.0000
  Al  Al30      1.0  0.98200  0.45000  0.66800  1.0000
  Al  Al31      1.0  0.41400  0.00527  0.68300  1.0000
  Al  Al32      1.0  0.48100  0.54200  0.70800  1.0000
  Al  Al33      1.0  0.96400  0.58800  0.74400  1.0000
  Al  Al34      1.0  0.45800  0.08760  0.75600  1.0000
  Al  Al35      1.0  0.93900  0.04190  0.79200  1.0000
  Al  Al36      1.0  0.84700  0.50500  0.81700  1.0000
  Al  Al37      1.0  0.39900  0.95000  0.83200  1.0000
  Al  Al38      1.0  0.25000  0.36700  0.85100  1.0000
  Al  Al39      1.0  0.80900  0.83500  0.87100  1.0000
  Al  Al40      1.0  0.24800  0.74500  0.90600  1.0000
  Al  Al41      1.0  0.14200  0.21000  0.92700  1.0000
  Al  Al42      1.0  0.69600  0.64800  0.94400  1.0000
  Al  Al43      1.0  0.55700  0.08020  0.96200  1.0000
  Al  Al44      1.0  0.10900  0.54500  0.98200  1.0000
  Mo  Mo1       1.0  0.00050  0.00000  0.00000  1.0000
  Mo  Mo2       1.0  0.30200  0.71200  0.11000  1.0000
  Mo  Mo3       1.0  0.61800  0.42600  0.21800  1.0000
  Mo  Mo4       1.0  0.58600  0.92600  0.28200  1.0000
  Mo  Mo5       1.0  0.16200  0.21200  0.39000  1.0000
  Mo  Mo6       1.0  0.75100  0.50000  0.50000  1.0000
  Mo  Mo7       1.0  0.34000  0.78800  0.61000  1.0000
  Mo  Mo8       1.0  0.94200  0.07420  0.71800  1.0000
  Mo  Mo9       1.0  0.41000  0.57400  0.78200  1.0000
  Mo  Mo10      1.0  0.70000  0.28800  0.89000  1.0000
