data_image0
_chemical_formula_structural       H4O32Se8Tl4U4
_chemical_formula_sum              "H4 O32 Se8 Tl4 U4"
_cell_length_a       8.29269
_cell_length_b       10.3199
_cell_length_c       9.60009
_cell_angle_alpha    90
_cell_angle_beta     98.9665
_cell_angle_gamma    90

_space_group_name_H-M_alt    "P 1"
_space_group_IT_number       1

loop_
  _space_group_symop_operation_xyz
  'x, y, z'

loop_
  _atom_site_type_symbol
  _atom_site_label
  _atom_site_symmetry_multiplicity
  _atom_site_fract_x
  _atom_site_fract_y
  _atom_site_fract_z
  _atom_site_occupancy
  H   H1        1.0  0.74800  0.34400  0.17100  1.0000
  H   H2        1.0  0.75200  0.84400  0.32900  1.0000
  H   H3        1.0  0.24800  0.15600  0.67100  1.0000
  H   H4        1.0  0.25200  0.65600  0.82900  1.0000
  O   O1        1.0  0.32700  0.46800  0.02600  1.0000
  O   O2        1.0  0.59700  0.29400  0.04750  1.0000
  O   O3        1.0  0.22800  0.19500  0.05430  1.0000
  O   O4        1.0  0.19500  0.66900  0.12600  1.0000
  O   O5        1.0  0.00000  0.88400  0.19700  1.0000
  O   O6        1.0  0.54500  0.09790  0.21100  1.0000
  O   O7        1.0  0.34500  0.90000  0.23400  1.0000
  O   O8        1.0  0.84400  0.36100  0.24700  1.0000
  O   O9        1.0  0.65600  0.86100  0.25300  1.0000
  O   O10       1.0  0.15500  0.40000  0.26600  1.0000
  O   O11       1.0  0.95500  0.59800  0.28900  1.0000
  O   O12       1.0  0.50000  0.38400  0.30300  1.0000
  O   O13       1.0  0.30500  0.16900  0.37400  1.0000
  O   O14       1.0  0.27200  0.69500  0.44600  1.0000
  O   O15       1.0  0.90300  0.79400  0.45300  1.0000
  O   O16       1.0  0.17300  0.96800  0.47400  1.0000
  O   O17       1.0  0.82700  0.03210  0.52600  1.0000
  O   O18       1.0  0.09670  0.20600  0.54700  1.0000
  O   O19       1.0  0.72800  0.30500  0.55400  1.0000
  O   O20       1.0  0.69500  0.83100  0.62600  1.0000
  O   O21       1.0  0.50000  0.61600  0.69700  1.0000
  O   O22       1.0  0.04460  0.40200  0.71100  1.0000
  O   O23       1.0  0.84500  0.60000  0.73400  1.0000
  O   O24       1.0  0.34400  0.13900  0.74700  1.0000
  O   O25       1.0  0.15600  0.63900  0.75300  1.0000
  O   O26       1.0  0.65500  0.10000  0.76600  1.0000
  O   O27       1.0  0.45500  0.90200  0.78900  1.0000
  O   O28       1.0  0.00011  0.11600  0.80300  1.0000
  O   O29       1.0  0.80500  0.33100  0.87400  1.0000
  O   O30       1.0  0.77200  0.80500  0.94600  1.0000
  O   O31       1.0  0.40300  0.70600  0.95300  1.0000
  O   O32       1.0  0.67300  0.53200  0.97400  1.0000
  Se  Se1       1.0  0.38600  0.61700  0.10200  1.0000
  Se  Se2       1.0  0.98000  0.47100  0.18000  1.0000
  Se  Se3       1.0  0.52000  0.97100  0.32000  1.0000
  Se  Se4       1.0  0.11400  0.11700  0.39800  1.0000
  Se  Se5       1.0  0.88600  0.88300  0.60200  1.0000
  Se  Se6       1.0  0.48000  0.02890  0.68000  1.0000
  Se  Se7       1.0  0.01960  0.52900  0.82000  1.0000
  Se  Se8       1.0  0.61400  0.38300  0.89800  1.0000
  Tl  Tl1       1.0  0.78600  0.06670  0.05060  1.0000
  Tl  Tl2       1.0  0.71400  0.56700  0.44900  1.0000
  Tl  Tl3       1.0  0.28600  0.43300  0.55100  1.0000
  Tl  Tl4       1.0  0.21400  0.93300  0.94900  1.0000
  U   U1        1.0  0.36800  0.28700  0.17800  1.0000
  U   U2        1.0  0.13200  0.78700  0.32200  1.0000
  U   U3        1.0  0.86800  0.21300  0.67800  1.0000
  U   U4        1.0  0.63200  0.71300  0.82200  1.0000
