data_image0
_chemical_formula_structural       Cs6Hf4P10S36
_chemical_formula_sum              "Cs6 Hf4 P10 S36"
_cell_length_a       6.9183
_cell_length_b       6.9183
_cell_length_c       34.3015
_cell_angle_alpha    93.148
_cell_angle_beta     93.148
_cell_angle_gamma    93.1955

_space_group_name_H-M_alt    "P 1"
_space_group_IT_number       1

loop_
  _space_group_symop_operation_xyz
  'x, y, z'

loop_
  _atom_site_type_symbol
  _atom_site_label
  _atom_site_symmetry_multiplicity
  _atom_site_fract_x
  _atom_site_fract_y
  _atom_site_fract_z
  _atom_site_occupancy
  Cs  Cs1       1.0  0.27600  0.49700  0.06850  1.0000
  Cs  Cs2       1.0  0.15400  0.43900  0.25500  1.0000
  Cs  Cs3       1.0  0.78200  0.97600  0.36300  1.0000
  Cs  Cs4       1.0  0.49700  0.27600  0.56800  1.0000
  Cs  Cs5       1.0  0.43900  0.15400  0.75500  1.0000
  Cs  Cs6       1.0  0.97600  0.78200  0.86300  1.0000
  Hf  Hf1       1.0  0.84600  0.02520  0.15500  1.0000
  Hf  Hf2       1.0  0.03970  0.62600  0.46400  1.0000
  Hf  Hf3       1.0  0.02520  0.84600  0.65500  1.0000
  Hf  Hf4       1.0  0.62600  0.03970  0.96400  1.0000
  P   P1        1.0  0.76300  0.06040  0.05860  1.0000
  P   P2        1.0  0.30100  0.93200  0.17400  1.0000
  P   P3        1.0  0.65500  0.15100  0.23800  1.0000
  P   P4        1.0  0.24700  0.69300  0.38000  1.0000
  P   P5        1.0  0.57500  0.51300  0.44500  1.0000
  P   P6        1.0  0.06040  0.76300  0.55900  1.0000
  P   P7        1.0  0.93200  0.30100  0.67400  1.0000
  P   P8        1.0  0.15100  0.65500  0.73800  1.0000
  P   P9        1.0  0.69300  0.24700  0.88000  1.0000
  P   P10       1.0  0.51300  0.57500  0.94500  1.0000
  S   S1        1.0  0.91900  0.14100  0.01260  1.0000
  S   S2        1.0  0.49100  0.98900  0.03300  1.0000
  S   S3        1.0  0.87700  0.83700  0.08760  1.0000
  S   S4        1.0  0.76500  0.27700  0.10200  1.0000
  S   S5        1.0  0.51900  0.82700  0.14300  1.0000
  S   S6        1.0  0.19400  0.18400  0.15500  1.0000
  S   S7        1.0  0.07730  0.72700  0.16900  1.0000
  S   S8        1.0  0.67100  0.30700  0.18900  1.0000
  S   S9        1.0  0.86000  0.95500  0.22900  1.0000
  S   S10       1.0  0.37900  0.98000  0.23500  1.0000
  S   S11       1.0  0.65800  0.30100  0.28900  1.0000
  S   S12       1.0  0.26200  0.81200  0.32900  1.0000
  S   S13       1.0  0.50200  0.52300  0.38400  1.0000
  S   S14       1.0  0.01650  0.50800  0.39000  1.0000
  S   S15       1.0  0.24900  0.88100  0.42800  1.0000
  S   S16       1.0  0.77900  0.31500  0.45000  1.0000
  S   S17       1.0  0.70600  0.77600  0.46400  1.0000
  S   S18       1.0  0.34200  0.42500  0.47500  1.0000
  S   S19       1.0  0.14100  0.91900  0.51300  1.0000
  S   S20       1.0  0.98900  0.49100  0.53300  1.0000
  S   S21       1.0  0.83700  0.87700  0.58800  1.0000
  S   S22       1.0  0.27700  0.76500  0.60200  1.0000
  S   S23       1.0  0.82700  0.51900  0.64300  1.0000
  S   S24       1.0  0.18400  0.19400  0.65500  1.0000
  S   S25       1.0  0.72700  0.07730  0.66900  1.0000
  S   S26       1.0  0.30700  0.67100  0.68900  1.0000
  S   S27       1.0  0.95500  0.86000  0.72900  1.0000
  S   S28       1.0  0.98000  0.37900  0.73500  1.0000
  S   S29       1.0  0.30100  0.65800  0.78900  1.0000
  S   S30       1.0  0.81200  0.26200  0.82900  1.0000
  S   S31       1.0  0.52300  0.50200  0.88400  1.0000
  S   S32       1.0  0.50800  0.01650  0.89000  1.0000
  S   S33       1.0  0.88100  0.24900  0.92800  1.0000
  S   S34       1.0  0.31500  0.77900  0.95000  1.0000
  S   S35       1.0  0.77600  0.70600  0.96400  1.0000
  S   S36       1.0  0.42500  0.34200  0.97500  1.0000
