data_image0
_chemical_formula_structural       Cr8F36K4Pb4
_chemical_formula_sum              "Cr8 F36 K4 Pb4"
_cell_length_a       9.60454
_cell_length_b       5.23207
_cell_length_c       13.6334
_cell_angle_alpha    90
_cell_angle_beta     90
_cell_angle_gamma    90

_space_group_name_H-M_alt    "P 1"
_space_group_IT_number       1

loop_
  _space_group_symop_operation_xyz
  'x, y, z'

loop_
  _atom_site_type_symbol
  _atom_site_label
  _atom_site_symmetry_multiplicity
  _atom_site_fract_x
  _atom_site_fract_y
  _atom_site_fract_z
  _atom_site_occupancy
  Cr  Cr1       1.0  0.23000  0.75000  0.00561  1.0000
  Cr  Cr2       1.0  0.06540  0.25000  0.15900  1.0000
  Cr  Cr3       1.0  0.56500  0.25000  0.34100  1.0000
  Cr  Cr4       1.0  0.73000  0.75000  0.49400  1.0000
  Cr  Cr5       1.0  0.27000  0.25000  0.50600  1.0000
  Cr  Cr6       1.0  0.43500  0.75000  0.65900  1.0000
  Cr  Cr7       1.0  0.93500  0.75000  0.84100  1.0000
  Cr  Cr8       1.0  0.77000  0.25000  0.99400  1.0000
  F   F1        1.0  0.65300  0.50200  0.05230  1.0000
  F   F2        1.0  0.65300  0.99800  0.05230  1.0000
  F   F3        1.0  0.11000  0.00278  0.05940  1.0000
  F   F4        1.0  0.11000  0.49700  0.05940  1.0000
  F   F5        1.0  0.87400  0.25000  0.11500  1.0000
  F   F6        1.0  0.35000  0.75000  0.11500  1.0000
  F   F7        1.0  0.24600  0.25000  0.21300  1.0000
  F   F8        1.0  0.51700  0.50100  0.24800  1.0000
  F   F9        1.0  0.51700  0.99900  0.24800  1.0000
  F   F10       1.0  0.01750  0.50100  0.25200  1.0000
  F   F11       1.0  0.01750  0.99900  0.25200  1.0000
  F   F12       1.0  0.74600  0.25000  0.28700  1.0000
  F   F13       1.0  0.85000  0.75000  0.38500  1.0000
  F   F14       1.0  0.37400  0.25000  0.38500  1.0000
  F   F15       1.0  0.61000  0.00278  0.44100  1.0000
  F   F16       1.0  0.61000  0.49700  0.44100  1.0000
  F   F17       1.0  0.15300  0.50200  0.44800  1.0000
  F   F18       1.0  0.15300  0.99800  0.44800  1.0000
  F   F19       1.0  0.84700  0.00196  0.55200  1.0000
  F   F20       1.0  0.84700  0.49800  0.55200  1.0000
  F   F21       1.0  0.39000  0.50300  0.55900  1.0000
  F   F22       1.0  0.39000  0.99700  0.55900  1.0000
  F   F23       1.0  0.62600  0.75000  0.61500  1.0000
  F   F24       1.0  0.15000  0.25000  0.61500  1.0000
  F   F25       1.0  0.25400  0.75000  0.71300  1.0000
  F   F26       1.0  0.98300  0.00105  0.74800  1.0000
  F   F27       1.0  0.98300  0.49900  0.74800  1.0000
  F   F28       1.0  0.48300  0.00105  0.75200  1.0000
  F   F29       1.0  0.48300  0.49900  0.75200  1.0000
  F   F30       1.0  0.75400  0.75000  0.78700  1.0000
  F   F31       1.0  0.65000  0.25000  0.88500  1.0000
  F   F32       1.0  0.12600  0.75000  0.88500  1.0000
  F   F33       1.0  0.89000  0.50300  0.94100  1.0000
  F   F34       1.0  0.89000  0.99700  0.94100  1.0000
  F   F35       1.0  0.34700  0.00196  0.94800  1.0000
  F   F36       1.0  0.34700  0.49800  0.94800  1.0000
  K   K1        1.0  0.77300  0.75000  0.20000  1.0000
  K   K2        1.0  0.27300  0.75000  0.30000  1.0000
  K   K3        1.0  0.72700  0.25000  0.70000  1.0000
  K   K4        1.0  0.22700  0.25000  0.80000  1.0000
  Pb  Pb1       1.0  0.44300  0.25000  0.10600  1.0000
  Pb  Pb2       1.0  0.94300  0.25000  0.39400  1.0000
  Pb  Pb3       1.0  0.05750  0.75000  0.60600  1.0000
  Pb  Pb4       1.0  0.55700  0.75000  0.89400  1.0000
