data_image0
_chemical_formula_structural       H6K10O28S10
_chemical_formula_sum              "H6 K10 O28 S10"
_cell_length_a       5.86571
_cell_length_b       10.4467
_cell_length_c       14.518
_cell_angle_alpha    103.791
_cell_angle_beta     90
_cell_angle_gamma    106.305

_space_group_name_H-M_alt    "P 1"
_space_group_IT_number       1

loop_
  _space_group_symop_operation_xyz
  'x, y, z'

loop_
  _atom_site_type_symbol
  _atom_site_label
  _atom_site_symmetry_multiplicity
  _atom_site_fract_x
  _atom_site_fract_y
  _atom_site_fract_z
  _atom_site_occupancy
  H   H1        1.0  0.90600  0.81300  0.08030  1.0000
  H   H2        1.0  0.61300  0.22500  0.35800  1.0000
  H   H3        1.0  0.17300  0.34500  0.46500  1.0000
  H   H4        1.0  0.82700  0.65500  0.53500  1.0000
  H   H5        1.0  0.38700  0.77500  0.64200  1.0000
  H   H6        1.0  0.09360  0.18700  0.92000  1.0000
  K   K1        1.0  0.50000  0.00000  0.00000  1.0000
  K   K2        1.0  0.71900  0.43700  0.11700  1.0000
  K   K3        1.0  0.08540  0.17100  0.21500  1.0000
  K   K4        1.0  0.92300  0.84500  0.30000  1.0000
  K   K5        1.0  0.29300  0.58600  0.36800  1.0000
  K   K6        1.0  0.50000  0.00000  0.50000  1.0000
  K   K7        1.0  0.70700  0.41400  0.63200  1.0000
  K   K8        1.0  0.07750  0.15500  0.70000  1.0000
  K   K9        1.0  0.91500  0.82900  0.78500  1.0000
  K   K10       1.0  0.28100  0.56300  0.88300  1.0000
  O   O1        1.0  0.20300  0.40500  0.01330  1.0000
  O   O2        1.0  0.31600  0.21500  0.05370  1.0000
  O   O3        1.0  0.90000  0.21500  0.05370  1.0000
  O   O4        1.0  0.27000  0.96100  0.17100  1.0000
  O   O5        1.0  0.69000  0.96100  0.17100  1.0000
  O   O6        1.0  0.11200  0.64500  0.20400  1.0000
  O   O7        1.0  0.53300  0.64500  0.20400  1.0000
  O   O8        1.0  0.47800  0.37100  0.29600  1.0000
  O   O9        1.0  0.89300  0.37100  0.29600  1.0000
  O   O10       1.0  0.46900  0.93800  0.31400  1.0000
  O   O11       1.0  0.05900  0.11800  0.39000  1.0000
  O   O12       1.0  0.72200  0.44400  0.44700  1.0000
  O   O13       1.0  0.10000  0.78600  0.46100  1.0000
  O   O14       1.0  0.68500  0.78600  0.46100  1.0000
  O   O15       1.0  0.31500  0.21400  0.53900  1.0000
  O   O16       1.0  0.90000  0.21400  0.53900  1.0000
  O   O17       1.0  0.27800  0.55600  0.55300  1.0000
  O   O18       1.0  0.94100  0.88200  0.61000  1.0000
  O   O19       1.0  0.53100  0.06230  0.68600  1.0000
  O   O20       1.0  0.10700  0.62900  0.70400  1.0000
  O   O21       1.0  0.52200  0.62900  0.70400  1.0000
  O   O22       1.0  0.46700  0.35500  0.79600  1.0000
  O   O23       1.0  0.88800  0.35500  0.79600  1.0000
  O   O24       1.0  0.31000  0.03940  0.82900  1.0000
  O   O25       1.0  0.73000  0.03940  0.82900  1.0000
  O   O26       1.0  0.10000  0.78500  0.94600  1.0000
  O   O27       1.0  0.68400  0.78500  0.94600  1.0000
  O   O28       1.0  0.79700  0.59500  0.98700  1.0000
  S   S1        1.0  0.12900  0.25900  0.01230  1.0000
  S   S2        1.0  0.33800  0.67500  0.15400  1.0000
  S   S3        1.0  0.45500  0.91000  0.20900  1.0000
  S   S4        1.0  0.67900  0.35800  0.35000  1.0000
  S   S5        1.0  0.10900  0.21900  0.48300  1.0000
  S   S6        1.0  0.89100  0.78100  0.51700  1.0000
  S   S7        1.0  0.32100  0.64200  0.65000  1.0000
  S   S8        1.0  0.54500  0.09040  0.79100  1.0000
  S   S9        1.0  0.66200  0.32500  0.84600  1.0000
  S   S10       1.0  0.87100  0.74100  0.98800  1.0000
