data_image0
_chemical_formula_structural       As4C4Cl8F36S4
_chemical_formula_sum              "As4 C4 Cl8 F36 S4"
_cell_length_a       7.20981
_cell_length_b       8.94245
_cell_length_c       11.556
_cell_angle_alpha    90
_cell_angle_beta     101.208
_cell_angle_gamma    90

_space_group_name_H-M_alt    "P 1"
_space_group_IT_number       1

loop_
  _space_group_symop_operation_xyz
  'x, y, z'

loop_
  _atom_site_type_symbol
  _atom_site_label
  _atom_site_symmetry_multiplicity
  _atom_site_fract_x
  _atom_site_fract_y
  _atom_site_fract_z
  _atom_site_occupancy
  As  As1       1.0  0.19600  0.25500  0.07050  1.0000
  As  As2       1.0  0.80400  0.75500  0.43000  1.0000
  As  As3       1.0  0.19600  0.24500  0.57000  1.0000
  As  As4       1.0  0.80400  0.74500  0.93000  1.0000
  C   C1        1.0  0.38400  0.83000  0.11500  1.0000
  C   C2        1.0  0.61600  0.33000  0.38500  1.0000
  C   C3        1.0  0.38400  0.67000  0.61500  1.0000
  C   C4        1.0  0.61600  0.17000  0.88500  1.0000
  Cl  Cl1       1.0  0.73200  0.44600  0.16400  1.0000
  Cl  Cl2       1.0  0.18200  0.61900  0.24800  1.0000
  Cl  Cl3       1.0  0.81800  0.11900  0.25200  1.0000
  Cl  Cl4       1.0  0.26800  0.94600  0.33600  1.0000
  Cl  Cl5       1.0  0.73200  0.05370  0.66400  1.0000
  Cl  Cl6       1.0  0.18200  0.88100  0.74800  1.0000
  Cl  Cl7       1.0  0.81800  0.38100  0.75200  1.0000
  Cl  Cl8       1.0  0.26800  0.55400  0.83600  1.0000
  F   F1        1.0  0.96800  0.31800  0.00000  1.0000
  F   F2        1.0  0.03210  0.68200  0.00000  1.0000
  F   F3        1.0  0.32500  0.89100  0.00913  1.0000
  F   F4        1.0  0.29500  0.42900  0.04540  1.0000
  F   F5        1.0  0.76600  0.81200  0.06520  1.0000
  F   F6        1.0  0.09380  0.08060  0.09590  1.0000
  F   F7        1.0  0.44100  0.69100  0.10400  1.0000
  F   F8        1.0  0.41900  0.19200  0.14300  1.0000
  F   F9        1.0  0.51800  0.91200  0.18000  1.0000
  F   F10       1.0  0.14600  0.32000  0.20600  1.0000
  F   F11       1.0  0.85400  0.82000  0.29400  1.0000
  F   F12       1.0  0.48200  0.41200  0.32000  1.0000
  F   F13       1.0  0.58100  0.69200  0.35700  1.0000
  F   F14       1.0  0.55900  0.19100  0.39600  1.0000
  F   F15       1.0  0.90600  0.58100  0.40400  1.0000
  F   F16       1.0  0.23400  0.31200  0.43500  1.0000
  F   F17       1.0  0.70500  0.92900  0.45500  1.0000
  F   F18       1.0  0.67500  0.39100  0.49100  1.0000
  F   F19       1.0  0.96800  0.18200  0.50000  1.0000
  F   F20       1.0  0.03210  0.81800  0.50000  1.0000
  F   F21       1.0  0.32500  0.60900  0.50900  1.0000
  F   F22       1.0  0.29500  0.07080  0.54500  1.0000
  F   F23       1.0  0.76600  0.68800  0.56500  1.0000
  F   F24       1.0  0.09380  0.41900  0.59600  1.0000
  F   F25       1.0  0.44100  0.80900  0.60400  1.0000
  F   F26       1.0  0.41900  0.30800  0.64300  1.0000
  F   F27       1.0  0.51800  0.58800  0.68000  1.0000
  F   F28       1.0  0.14600  0.18000  0.70600  1.0000
  F   F29       1.0  0.85400  0.68000  0.79400  1.0000
  F   F30       1.0  0.48200  0.08780  0.82000  1.0000
  F   F31       1.0  0.58100  0.80800  0.85700  1.0000
  F   F32       1.0  0.55900  0.30900  0.89600  1.0000
  F   F33       1.0  0.90600  0.91900  0.90400  1.0000
  F   F34       1.0  0.23400  0.18800  0.93500  1.0000
  F   F35       1.0  0.70500  0.57100  0.95500  1.0000
  F   F36       1.0  0.67500  0.10900  0.99100  1.0000
  S   S1        1.0  0.16400  0.82700  0.19400  1.0000
  S   S2        1.0  0.83600  0.32700  0.30600  1.0000
  S   S3        1.0  0.16400  0.67300  0.69400  1.0000
  S   S4        1.0  0.83600  0.17300  0.80600  1.0000
