data_image0
_chemical_formula_structural       Ce4P8Rb12Se32
_chemical_formula_sum              "Ce4 P8 Rb12 Se32"
_cell_length_a       9.74975
_cell_length_b       18.5763
_cell_length_c       10.3779
_cell_angle_alpha    90
_cell_angle_beta     92.1447
_cell_angle_gamma    90

_space_group_name_H-M_alt    "P 1"
_space_group_IT_number       1

loop_
  _space_group_symop_operation_xyz
  'x, y, z'

loop_
  _atom_site_type_symbol
  _atom_site_label
  _atom_site_symmetry_multiplicity
  _atom_site_fract_x
  _atom_site_fract_y
  _atom_site_fract_z
  _atom_site_occupancy
  Ce  Ce1       1.0  0.72900  0.51100  0.02500  1.0000
  Ce  Ce2       1.0  0.27100  0.01140  0.47500  1.0000
  Ce  Ce3       1.0  0.72900  0.98900  0.52500  1.0000
  Ce  Ce4       1.0  0.27100  0.48900  0.97500  1.0000
  P   P1        1.0  0.02880  0.40200  0.22000  1.0000
  P   P2        1.0  0.50400  0.60100  0.23700  1.0000
  P   P3        1.0  0.49600  0.10100  0.26300  1.0000
  P   P4        1.0  0.97100  0.90200  0.28000  1.0000
  P   P5        1.0  0.02880  0.09770  0.72000  1.0000
  P   P6        1.0  0.50400  0.89900  0.73700  1.0000
  P   P7        1.0  0.49600  0.39900  0.76300  1.0000
  P   P8        1.0  0.97100  0.59800  0.78000  1.0000
  Rb  Rb1       1.0  0.23900  0.96300  0.01350  1.0000
  Rb  Rb2       1.0  0.61300  0.79000  0.13500  1.0000
  Rb  Rb3       1.0  0.09630  0.71100  0.13800  1.0000
  Rb  Rb4       1.0  0.90400  0.21100  0.36200  1.0000
  Rb  Rb5       1.0  0.38700  0.29000  0.36500  1.0000
  Rb  Rb6       1.0  0.76100  0.46300  0.48700  1.0000
  Rb  Rb7       1.0  0.23900  0.53700  0.51300  1.0000
  Rb  Rb8       1.0  0.61300  0.71000  0.63500  1.0000
  Rb  Rb9       1.0  0.09630  0.78900  0.63800  1.0000
  Rb  Rb10      1.0  0.90400  0.28900  0.86200  1.0000
  Rb  Rb11      1.0  0.38700  0.21000  0.86500  1.0000
  Rb  Rb12      1.0  0.76100  0.03700  0.98700  1.0000
  Se  Se1       1.0  0.47400  0.61900  0.02240  1.0000
  Se  Se2       1.0  0.92500  0.87700  0.07660  1.0000
  Se  Se3       1.0  0.17600  0.34700  0.09360  1.0000
  Se  Se4       1.0  0.60800  0.18100  0.15100  1.0000
  Se  Se5       1.0  0.81400  0.37000  0.16200  1.0000
  Se  Se6       1.0  0.03920  0.52100  0.17600  1.0000
  Se  Se7       1.0  0.27000  0.10900  0.23100  1.0000
  Se  Se8       1.0  0.55700  0.98500  0.24700  1.0000
  Se  Se9       1.0  0.44300  0.48500  0.25300  1.0000
  Se  Se10      1.0  0.73000  0.60900  0.26900  1.0000
  Se  Se11      1.0  0.96100  0.02110  0.32400  1.0000
  Se  Se12      1.0  0.18600  0.87000  0.33800  1.0000
  Se  Se13      1.0  0.39200  0.68100  0.34900  1.0000
  Se  Se14      1.0  0.82400  0.84700  0.40600  1.0000
  Se  Se15      1.0  0.07520  0.37700  0.42300  1.0000
  Se  Se16      1.0  0.52600  0.11900  0.47800  1.0000
  Se  Se17      1.0  0.47400  0.88100  0.52200  1.0000
  Se  Se18      1.0  0.92500  0.62300  0.57700  1.0000
  Se  Se19      1.0  0.17600  0.15300  0.59400  1.0000
  Se  Se20      1.0  0.60800  0.31900  0.65100  1.0000
  Se  Se21      1.0  0.81400  0.13000  0.66200  1.0000
  Se  Se22      1.0  0.03920  0.97900  0.67600  1.0000
  Se  Se23      1.0  0.27000  0.39100  0.73100  1.0000
  Se  Se24      1.0  0.55700  0.51500  0.74700  1.0000
  Se  Se25      1.0  0.44300  0.01460  0.75300  1.0000
  Se  Se26      1.0  0.73000  0.89100  0.76900  1.0000
  Se  Se27      1.0  0.96100  0.47900  0.82400  1.0000
  Se  Se28      1.0  0.18600  0.63000  0.83800  1.0000
  Se  Se29      1.0  0.39200  0.81900  0.84900  1.0000
  Se  Se30      1.0  0.82400  0.65300  0.90600  1.0000
  Se  Se31      1.0  0.07520  0.12300  0.92300  1.0000
  Se  Se32      1.0  0.52600  0.38100  0.97800  1.0000
