data_image0
_chemical_formula_structural       C8Cs4H16Mg2O24
_chemical_formula_sum              "C8 Cs4 H16 Mg2 O24"
_cell_length_a       7.16566
_cell_length_b       8.95992
_cell_length_c       11.0968
_cell_angle_alpha    97.3637
_cell_angle_beta     108.837
_cell_angle_gamma    66.4297

_space_group_name_H-M_alt    "P 1"
_space_group_IT_number       1

loop_
  _space_group_symop_operation_xyz
  'x, y, z'

loop_
  _atom_site_type_symbol
  _atom_site_label
  _atom_site_symmetry_multiplicity
  _atom_site_fract_x
  _atom_site_fract_y
  _atom_site_fract_z
  _atom_site_occupancy
  C   C1        1.0  0.05380  0.25700  0.00000  1.0000
  C   C2        1.0  0.94600  0.74300  0.00000  1.0000
  C   C3        1.0  0.92100  0.39500  0.07500  1.0000
  C   C4        1.0  0.24100  0.10500  0.42500  1.0000
  C   C5        1.0  0.31100  0.24300  0.50000  1.0000
  C   C6        1.0  0.68900  0.75700  0.50000  1.0000
  C   C7        1.0  0.75900  0.89500  0.57500  1.0000
  C   C8        1.0  0.07920  0.60500  0.92500  1.0000
  Cs  Cs1       1.0  0.46600  0.80600  0.10900  1.0000
  Cs  Cs2       1.0  0.16200  0.69400  0.39100  1.0000
  Cs  Cs3       1.0  0.83800  0.30600  0.60900  1.0000
  Cs  Cs4       1.0  0.53400  0.19400  0.89100  1.0000
  H   H1        1.0  0.92400  0.96600  0.13300  1.0000
  H   H2        1.0  0.36800  0.47600  0.13500  1.0000
  H   H3        1.0  0.00536  0.09520  0.21300  1.0000
  H   H4        1.0  0.73300  0.08270  0.23800  1.0000
  H   H5        1.0  0.57800  0.41700  0.26200  1.0000
  H   H6        1.0  0.88800  0.40500  0.28700  1.0000
  H   H7        1.0  0.71000  0.02380  0.36500  1.0000
  H   H8        1.0  0.75800  0.53400  0.36700  1.0000
  H   H9        1.0  0.24200  0.46600  0.63300  1.0000
  H   H10       1.0  0.29000  0.97600  0.63500  1.0000
  H   H11       1.0  0.11200  0.59500  0.71300  1.0000
  H   H12       1.0  0.42200  0.58300  0.73800  1.0000
  H   H13       1.0  0.26700  0.91700  0.76200  1.0000
  H   H14       1.0  0.99500  0.90500  0.78700  1.0000
  H   H15       1.0  0.63200  0.52400  0.86500  1.0000
  H   H16       1.0  0.07550  0.03430  0.86700  1.0000
  Mg  Mg1       1.0  0.34000  0.25000  0.25000  1.0000
  Mg  Mg2       1.0  0.66000  0.75000  0.75000  1.0000
  O   O1        1.0  0.72900  0.47800  0.02090  1.0000
  O   O2        1.0  0.25000  0.18200  0.05990  1.0000
  O   O3        1.0  0.04170  0.77200  0.11100  1.0000
  O   O4        1.0  0.87300  0.08570  0.15300  1.0000
  O   O5        1.0  0.02220  0.41000  0.19100  1.0000
  O   O6        1.0  0.42400  0.43000  0.22200  1.0000
  O   O7        1.0  0.63100  0.07040  0.27800  1.0000
  O   O8        1.0  0.24100  0.08990  0.30900  1.0000
  O   O9        1.0  0.80500  0.41400  0.34700  1.0000
  O   O10       1.0  0.70300  0.72800  0.38900  1.0000
  O   O11       1.0  0.37200  0.31800  0.44000  1.0000
  O   O12       1.0  0.18700  0.02160  0.47900  1.0000
  O   O13       1.0  0.81300  0.97800  0.52100  1.0000
  O   O14       1.0  0.62800  0.68200  0.56000  1.0000
  O   O15       1.0  0.29700  0.27200  0.61100  1.0000
  O   O16       1.0  0.19500  0.58600  0.65300  1.0000
  O   O17       1.0  0.75900  0.91000  0.69100  1.0000
  O   O18       1.0  0.36900  0.93000  0.72200  1.0000
  O   O19       1.0  0.57600  0.57000  0.77800  1.0000
  O   O20       1.0  0.97800  0.59000  0.80900  1.0000
  O   O21       1.0  0.12700  0.91400  0.84700  1.0000
  O   O22       1.0  0.95800  0.22800  0.88900  1.0000
  O   O23       1.0  0.75000  0.81800  0.94000  1.0000
  O   O24       1.0  0.27100  0.52200  0.97900  1.0000
