data_image0
_chemical_formula_structural       Cu4H12N12O24
_chemical_formula_sum              "Cu4 H12 N12 O24"
_cell_length_a       6.42133
_cell_length_b       8.38874
_cell_length_c       9.22832
_cell_angle_alpha    90
_cell_angle_beta     101.986
_cell_angle_gamma    90

_space_group_name_H-M_alt    "P 1"
_space_group_IT_number       1

loop_
  _space_group_symop_operation_xyz
  'x, y, z'

loop_
  _atom_site_type_symbol
  _atom_site_label
  _atom_site_symmetry_multiplicity
  _atom_site_fract_x
  _atom_site_fract_y
  _atom_site_fract_z
  _atom_site_occupancy
  Cu  Cu1       1.0  0.06760  0.08650  0.16800  1.0000
  Cu  Cu2       1.0  0.93200  0.58700  0.33200  1.0000
  Cu  Cu3       1.0  0.06760  0.41300  0.66800  1.0000
  Cu  Cu4       1.0  0.93200  0.91300  0.83200  1.0000
  H   H1        1.0  0.68300  0.66000  0.09900  1.0000
  H   H2        1.0  0.66800  0.46300  0.12900  1.0000
  H   H3        1.0  0.54900  0.59200  0.22400  1.0000
  H   H4        1.0  0.45100  0.09150  0.27600  1.0000
  H   H5        1.0  0.33200  0.96300  0.37100  1.0000
  H   H6        1.0  0.31700  0.16000  0.40100  1.0000
  H   H7        1.0  0.68300  0.84000  0.59900  1.0000
  H   H8        1.0  0.66800  0.03690  0.62900  1.0000
  H   H9        1.0  0.54900  0.90800  0.72400  1.0000
  H   H10       1.0  0.45100  0.40800  0.77600  1.0000
  H   H11       1.0  0.33200  0.53700  0.87100  1.0000
  H   H12       1.0  0.31700  0.34000  0.90100  1.0000
  N   N1        1.0  0.35100  0.85200  0.00406  1.0000
  N   N2        1.0  0.14200  0.40800  0.14600  1.0000
  N   N3        1.0  0.68000  0.57400  0.17800  1.0000
  N   N4        1.0  0.32000  0.07370  0.32200  1.0000
  N   N5        1.0  0.85800  0.90800  0.35400  1.0000
  N   N6        1.0  0.64900  0.35200  0.49600  1.0000
  N   N7        1.0  0.35100  0.64800  0.50400  1.0000
  N   N8        1.0  0.14200  0.09160  0.64600  1.0000
  N   N9        1.0  0.68000  0.92600  0.67800  1.0000
  N   N10       1.0  0.32000  0.42600  0.82200  1.0000
  N   N11       1.0  0.85800  0.59200  0.85400  1.0000
  N   N12       1.0  0.64900  0.14800  0.99600  1.0000
  O   O1        1.0  0.16900  0.92200  0.00380  1.0000
  O   O2        1.0  0.17600  0.28200  0.07550  1.0000
  O   O3        1.0  0.63300  0.23200  0.10400  1.0000
  O   O4        1.0  0.19800  0.54100  0.11000  1.0000
  O   O5        1.0  0.49800  0.87500  0.11300  1.0000
  O   O6        1.0  0.95200  0.88800  0.24600  1.0000
  O   O7        1.0  0.04760  0.38800  0.25400  1.0000
  O   O8        1.0  0.50200  0.37500  0.38700  1.0000
  O   O9        1.0  0.80200  0.04150  0.39000  1.0000
  O   O10       1.0  0.36700  0.73200  0.39600  1.0000
  O   O11       1.0  0.82400  0.78200  0.42500  1.0000
  O   O12       1.0  0.83100  0.42200  0.49600  1.0000
  O   O13       1.0  0.16900  0.57800  0.50400  1.0000
  O   O14       1.0  0.17600  0.21800  0.57500  1.0000
  O   O15       1.0  0.63300  0.26800  0.60400  1.0000
  O   O16       1.0  0.19800  0.95900  0.61000  1.0000
  O   O17       1.0  0.49800  0.62500  0.61300  1.0000
  O   O18       1.0  0.95200  0.61200  0.74600  1.0000
  O   O19       1.0  0.04760  0.11200  0.75400  1.0000
  O   O20       1.0  0.50200  0.12500  0.88700  1.0000
  O   O21       1.0  0.80200  0.45900  0.89000  1.0000
  O   O22       1.0  0.36700  0.76800  0.89600  1.0000
  O   O23       1.0  0.82400  0.71800  0.92500  1.0000
  O   O24       1.0  0.83100  0.07780  0.99600  1.0000
