data_image0
_chemical_formula_structural       C14Cs6Cu4N14S14Sr2
_chemical_formula_sum              "C14 Cs6 Cu4 N14 S14 Sr2"
_cell_length_a       12.5237
_cell_length_b       10.8484
_cell_length_c       10.8484
_cell_angle_alpha    90
_cell_angle_beta     115.665
_cell_angle_gamma    115.665

_space_group_name_H-M_alt    "P 1"
_space_group_IT_number       1

loop_
  _space_group_symop_operation_xyz
  'x, y, z'

loop_
  _atom_site_type_symbol
  _atom_site_label
  _atom_site_symmetry_multiplicity
  _atom_site_fract_x
  _atom_site_fract_y
  _atom_site_fract_z
  _atom_site_occupancy
  C   C1        1.0  0.29300  0.83000  0.07190  1.0000
  C   C2        1.0  0.70700  0.77900  0.17000  1.0000
  C   C3        1.0  0.99000  0.20500  0.20500  1.0000
  C   C4        1.0  0.01000  0.79500  0.21500  1.0000
  C   C5        1.0  0.29300  0.46200  0.22100  1.0000
  C   C6        1.0  0.58700  0.29300  0.29300  1.0000
  C   C7        1.0  0.29300  0.22100  0.46200  1.0000
  C   C8        1.0  0.70700  0.92800  0.53800  1.0000
  C   C9        1.0  0.41300  0.70700  0.70700  1.0000
  C   C10       1.0  0.70700  0.17000  0.77900  1.0000
  C   C11       1.0  0.99000  0.78500  0.78500  1.0000
  C   C12       1.0  0.01000  0.21500  0.79500  1.0000
  C   C13       1.0  0.29300  0.07190  0.83000  1.0000
  C   C14       1.0  0.70700  0.53800  0.92800  1.0000
  Cs  Cs1       1.0  0.00000  0.50000  0.00000  1.0000
  Cs  Cs2       1.0  0.60100  0.06510  0.06510  1.0000
  Cs  Cs3       1.0  0.39900  0.93500  0.46400  1.0000
  Cs  Cs4       1.0  0.00000  0.00000  0.50000  1.0000
  Cs  Cs5       1.0  0.60100  0.53600  0.53600  1.0000
  Cs  Cs6       1.0  0.39900  0.46400  0.93500  1.0000
  Cu  Cu1       1.0  0.80300  0.55000  0.25300  1.0000
  Cu  Cu2       1.0  0.19700  0.45000  0.45000  1.0000
  Cu  Cu3       1.0  0.80300  0.25300  0.55000  1.0000
  Cu  Cu4       1.0  0.19700  0.74700  0.74700  1.0000
  N   N1        1.0  0.72000  0.85800  0.09500  1.0000
  N   N2        1.0  0.00000  0.86700  0.13300  1.0000
  N   N3        1.0  0.00000  0.13300  0.13300  1.0000
  N   N4        1.0  0.28000  0.90500  0.13800  1.0000
  N   N5        1.0  0.28000  0.37500  0.14200  1.0000
  N   N6        1.0  0.46700  0.23400  0.23400  1.0000
  N   N7        1.0  0.28000  0.14200  0.37500  1.0000
  N   N8        1.0  0.72000  0.86200  0.62500  1.0000
  N   N9        1.0  0.53300  0.76600  0.76600  1.0000
  N   N10       1.0  0.72000  0.09500  0.85800  1.0000
  N   N11       1.0  0.72000  0.62500  0.86200  1.0000
  N   N12       1.0  0.00000  0.13300  0.86700  1.0000
  N   N13       1.0  0.00000  0.86700  0.86700  1.0000
  N   N14       1.0  0.28000  0.13800  0.90500  1.0000
  S   S1        1.0  0.69100  0.41800  0.02080  1.0000
  S   S2        1.0  0.69100  0.67000  0.27300  1.0000
  S   S3        1.0  0.97000  0.30200  0.30200  1.0000
  S   S4        1.0  0.30900  0.58200  0.33000  1.0000
  S   S5        1.0  0.02980  0.69800  0.33100  1.0000
  S   S6        1.0  0.75400  0.37700  0.37700  1.0000
  S   S7        1.0  0.69100  0.02080  0.41800  1.0000
  S   S8        1.0  0.30900  0.33000  0.58200  1.0000
  S   S9        1.0  0.24600  0.62300  0.62300  1.0000
  S   S10       1.0  0.97000  0.66900  0.66900  1.0000
  S   S11       1.0  0.69100  0.27300  0.67000  1.0000
  S   S12       1.0  0.02980  0.33100  0.69800  1.0000
  S   S13       1.0  0.30900  0.97900  0.72700  1.0000
  S   S14       1.0  0.30900  0.72700  0.97900  1.0000
  Sr  Sr1       1.0  0.19100  0.09570  0.09570  1.0000
  Sr  Sr2       1.0  0.80900  0.90400  0.90400  1.0000
