data_image0
_chemical_formula_structural       Fe4Li4O36P12
_chemical_formula_sum              "Fe4 Li4 O36 P12"
_cell_length_a       8.37036
_cell_length_b       8.47943
_cell_length_c       8.65886
_cell_angle_alpha    90
_cell_angle_beta     90
_cell_angle_gamma    90

_space_group_name_H-M_alt    "P 1"
_space_group_IT_number       1

loop_
  _space_group_symop_operation_xyz
  'x, y, z'

loop_
  _atom_site_type_symbol
  _atom_site_label
  _atom_site_symmetry_multiplicity
  _atom_site_fract_x
  _atom_site_fract_y
  _atom_site_fract_z
  _atom_site_occupancy
  Fe  Fe1       1.0  0.12800  0.14200  0.15800  1.0000
  Fe  Fe2       1.0  0.87200  0.64200  0.34200  1.0000
  Fe  Fe3       1.0  0.37200  0.85800  0.65800  1.0000
  Fe  Fe4       1.0  0.62800  0.35800  0.84200  1.0000
  Li  Li1       1.0  0.84700  0.36600  0.11400  1.0000
  Li  Li2       1.0  0.15300  0.86600  0.38600  1.0000
  Li  Li3       1.0  0.65300  0.63400  0.61400  1.0000
  Li  Li4       1.0  0.34700  0.13400  0.88600  1.0000
  O   O1        1.0  0.22500  0.63300  0.04360  1.0000
  O   O2        1.0  0.60800  0.37800  0.08570  1.0000
  O   O3        1.0  0.84300  0.63400  0.09830  1.0000
  O   O4        1.0  0.37200  0.18900  0.11900  1.0000
  O   O5        1.0  0.08810  0.38500  0.13600  1.0000
  O   O6        1.0  0.46100  0.76900  0.15100  1.0000
  O   O7        1.0  0.18800  0.90600  0.15600  1.0000
  O   O8        1.0  0.87500  0.12000  0.17800  1.0000
  O   O9        1.0  0.36200  0.46300  0.23700  1.0000
  O   O10       1.0  0.63800  0.96300  0.26300  1.0000
  O   O11       1.0  0.12500  0.62000  0.32200  1.0000
  O   O12       1.0  0.81200  0.40600  0.34400  1.0000
  O   O13       1.0  0.53900  0.26900  0.34900  1.0000
  O   O14       1.0  0.91200  0.88500  0.36400  1.0000
  O   O15       1.0  0.62800  0.68900  0.38100  1.0000
  O   O16       1.0  0.15700  0.13400  0.40200  1.0000
  O   O17       1.0  0.39200  0.87800  0.41400  1.0000
  O   O18       1.0  0.77500  0.13300  0.45600  1.0000
  O   O19       1.0  0.27500  0.36700  0.54400  1.0000
  O   O20       1.0  0.89200  0.62200  0.58600  1.0000
  O   O21       1.0  0.65700  0.36600  0.59800  1.0000
  O   O22       1.0  0.12800  0.81100  0.61900  1.0000
  O   O23       1.0  0.41200  0.61500  0.63600  1.0000
  O   O24       1.0  0.03940  0.23100  0.65100  1.0000
  O   O25       1.0  0.31200  0.09380  0.65600  1.0000
  O   O26       1.0  0.62500  0.88000  0.67800  1.0000
  O   O27       1.0  0.13800  0.53700  0.73700  1.0000
  O   O28       1.0  0.86200  0.03650  0.76300  1.0000
  O   O29       1.0  0.37500  0.38000  0.82200  1.0000
  O   O30       1.0  0.68800  0.59400  0.84400  1.0000
  O   O31       1.0  0.96100  0.73100  0.84900  1.0000
  O   O32       1.0  0.58800  0.11500  0.86400  1.0000
  O   O33       1.0  0.87200  0.31100  0.88100  1.0000
  O   O34       1.0  0.34300  0.86600  0.90200  1.0000
  O   O35       1.0  0.10800  0.12200  0.91400  1.0000
  O   O36       1.0  0.72500  0.86700  0.95600  1.0000
  P   P1        1.0  0.29800  0.80800  0.05810  1.0000
  P   P2        1.0  0.47300  0.31900  0.18300  1.0000
  P   P3        1.0  0.18700  0.52100  0.19000  1.0000
  P   P4        1.0  0.81300  0.02120  0.31000  1.0000
  P   P5        1.0  0.52700  0.81900  0.31700  1.0000
  P   P6        1.0  0.70200  0.30800  0.44200  1.0000
  P   P7        1.0  0.20200  0.19200  0.55800  1.0000
  P   P8        1.0  0.02670  0.68100  0.68300  1.0000
  P   P9        1.0  0.31300  0.47900  0.69000  1.0000
  P   P10       1.0  0.68700  0.97900  0.81000  1.0000
  P   P11       1.0  0.97300  0.18100  0.81700  1.0000
  P   P12       1.0  0.79800  0.69200  0.94200  1.0000
