data_image0
_chemical_formula_structural       As4B4Ba4F40
_chemical_formula_sum              "As4 B4 Ba4 F40"
_cell_length_a       9.89032
_cell_length_b       6.1754
_cell_length_c       10.9992
_cell_angle_alpha    90
_cell_angle_beta     90
_cell_angle_gamma    90

_space_group_name_H-M_alt    "P 1"
_space_group_IT_number       1

loop_
  _space_group_symop_operation_xyz
  'x, y, z'

loop_
  _atom_site_type_symbol
  _atom_site_label
  _atom_site_symmetry_multiplicity
  _atom_site_fract_x
  _atom_site_fract_y
  _atom_site_fract_z
  _atom_site_occupancy
  As  As1       1.0  0.49800  0.25000  0.19000  1.0000
  As  As2       1.0  0.99800  0.25000  0.31000  1.0000
  As  As3       1.0  0.00173  0.75000  0.69000  1.0000
  As  As4       1.0  0.50200  0.75000  0.81000  1.0000
  B   B1        1.0  0.13200  0.75000  0.07050  1.0000
  B   B2        1.0  0.63200  0.75000  0.42900  1.0000
  B   B3        1.0  0.36800  0.25000  0.57100  1.0000
  B   B4        1.0  0.86800  0.25000  0.92900  1.0000
  Ba  Ba1       1.0  0.77400  0.75000  0.11700  1.0000
  Ba  Ba2       1.0  0.27400  0.75000  0.38300  1.0000
  Ba  Ba3       1.0  0.72600  0.25000  0.61700  1.0000
  Ba  Ba4       1.0  0.22600  0.25000  0.88300  1.0000
  F   F1        1.0  0.01040  0.75000  0.00446  1.0000
  F   F2        1.0  0.20800  0.56600  0.04290  1.0000
  F   F3        1.0  0.20800  0.93400  0.04290  1.0000
  F   F4        1.0  0.36900  0.25000  0.08200  1.0000
  F   F5        1.0  0.57800  0.04500  0.10400  1.0000
  F   F6        1.0  0.57800  0.45500  0.10400  1.0000
  F   F7        1.0  0.10300  0.75000  0.19700  1.0000
  F   F8        1.0  0.13200  0.25000  0.20800  1.0000
  F   F9        1.0  0.90800  0.05230  0.22700  1.0000
  F   F10       1.0  0.90800  0.44800  0.22700  1.0000
  F   F11       1.0  0.40800  0.05230  0.27300  1.0000
  F   F12       1.0  0.40800  0.44800  0.27300  1.0000
  F   F13       1.0  0.63200  0.25000  0.29200  1.0000
  F   F14       1.0  0.60300  0.75000  0.30300  1.0000
  F   F15       1.0  0.07770  0.04500  0.39600  1.0000
  F   F16       1.0  0.07770  0.45500  0.39600  1.0000
  F   F17       1.0  0.86900  0.25000  0.41800  1.0000
  F   F18       1.0  0.70800  0.56600  0.45700  1.0000
  F   F19       1.0  0.70800  0.93400  0.45700  1.0000
  F   F20       1.0  0.51000  0.75000  0.49600  1.0000
  F   F21       1.0  0.49000  0.25000  0.50400  1.0000
  F   F22       1.0  0.29200  0.06640  0.54300  1.0000
  F   F23       1.0  0.29200  0.43400  0.54300  1.0000
  F   F24       1.0  0.13100  0.75000  0.58200  1.0000
  F   F25       1.0  0.92200  0.54500  0.60400  1.0000
  F   F26       1.0  0.92200  0.95500  0.60400  1.0000
  F   F27       1.0  0.39700  0.25000  0.69700  1.0000
  F   F28       1.0  0.36800  0.75000  0.70800  1.0000
  F   F29       1.0  0.59200  0.55200  0.72700  1.0000
  F   F30       1.0  0.59200  0.94800  0.72700  1.0000
  F   F31       1.0  0.09190  0.55200  0.77300  1.0000
  F   F32       1.0  0.09190  0.94800  0.77300  1.0000
  F   F33       1.0  0.86800  0.75000  0.79200  1.0000
  F   F34       1.0  0.89700  0.25000  0.80300  1.0000
  F   F35       1.0  0.42200  0.54500  0.89600  1.0000
  F   F36       1.0  0.42200  0.95500  0.89600  1.0000
  F   F37       1.0  0.63100  0.75000  0.91800  1.0000
  F   F38       1.0  0.79200  0.06640  0.95700  1.0000
  F   F39       1.0  0.79200  0.43400  0.95700  1.0000
  F   F40       1.0  0.99000  0.25000  0.99600  1.0000
