data_image0
_chemical_formula_structural       Ba4H32O20
_chemical_formula_sum              "Ba4 H32 O20"
_cell_length_a       7.40253
_cell_length_b       11.1421
_cell_length_c       5.82126
_cell_angle_alpha    90
_cell_angle_beta     90
_cell_angle_gamma    90

_space_group_name_H-M_alt    "P 1"
_space_group_IT_number       1

loop_
  _space_group_symop_operation_xyz
  'x, y, z'

loop_
  _atom_site_type_symbol
  _atom_site_label
  _atom_site_symmetry_multiplicity
  _atom_site_fract_x
  _atom_site_fract_y
  _atom_site_fract_z
  _atom_site_occupancy
  Ba  Ba1       1.0  0.46900  0.75000  0.07960  1.0000
  Ba  Ba2       1.0  0.96900  0.75000  0.42000  1.0000
  Ba  Ba3       1.0  0.03100  0.25000  0.58000  1.0000
  Ba  Ba4       1.0  0.53100  0.25000  0.92000  1.0000
  H   H1        1.0  0.16600  0.08170  0.02010  1.0000
  H   H2        1.0  0.16600  0.41800  0.02010  1.0000
  H   H3        1.0  0.95400  0.17800  0.10800  1.0000
  H   H4        1.0  0.95400  0.32200  0.10800  1.0000
  H   H5        1.0  0.69300  0.52100  0.17100  1.0000
  H   H6        1.0  0.69300  0.97900  0.17100  1.0000
  H   H7        1.0  0.95700  0.01960  0.23500  1.0000
  H   H8        1.0  0.95700  0.48000  0.23500  1.0000
  H   H9        1.0  0.45700  0.01960  0.26500  1.0000
  H   H10       1.0  0.45700  0.48000  0.26500  1.0000
  H   H11       1.0  0.19300  0.52100  0.32900  1.0000
  H   H12       1.0  0.19300  0.97900  0.32900  1.0000
  H   H13       1.0  0.45400  0.17800  0.39200  1.0000
  H   H14       1.0  0.45400  0.32200  0.39200  1.0000
  H   H15       1.0  0.66600  0.08170  0.48000  1.0000
  H   H16       1.0  0.66600  0.41800  0.48000  1.0000
  H   H17       1.0  0.33400  0.58200  0.52000  1.0000
  H   H18       1.0  0.33400  0.91800  0.52000  1.0000
  H   H19       1.0  0.54600  0.67800  0.60800  1.0000
  H   H20       1.0  0.54600  0.82200  0.60800  1.0000
  H   H21       1.0  0.80700  0.02130  0.67100  1.0000
  H   H22       1.0  0.80700  0.47900  0.67100  1.0000
  H   H23       1.0  0.54300  0.52000  0.73500  1.0000
  H   H24       1.0  0.54300  0.98000  0.73500  1.0000
  H   H25       1.0  0.04330  0.52000  0.76500  1.0000
  H   H26       1.0  0.04330  0.98000  0.76500  1.0000
  H   H27       1.0  0.30700  0.02130  0.82900  1.0000
  H   H28       1.0  0.30700  0.47900  0.82900  1.0000
  H   H29       1.0  0.04570  0.67800  0.89200  1.0000
  H   H30       1.0  0.04570  0.82200  0.89200  1.0000
  H   H31       1.0  0.83400  0.58200  0.98000  1.0000
  H   H32       1.0  0.83400  0.91800  0.98000  1.0000
  O   O1        1.0  0.89400  0.25000  0.03020  1.0000
  O   O2        1.0  0.77600  0.59400  0.13800  1.0000
  O   O3        1.0  0.77600  0.90600  0.13800  1.0000
  O   O4        1.0  0.55700  0.07630  0.24700  1.0000
  O   O5        1.0  0.55700  0.42400  0.24700  1.0000
  O   O6        1.0  0.05750  0.07630  0.25300  1.0000
  O   O7        1.0  0.05750  0.42400  0.25300  1.0000
  O   O8        1.0  0.27600  0.59400  0.36200  1.0000
  O   O9        1.0  0.27600  0.90600  0.36200  1.0000
  O   O10       1.0  0.39400  0.25000  0.47000  1.0000
  O   O11       1.0  0.60600  0.75000  0.53000  1.0000
  O   O12       1.0  0.72400  0.09380  0.63800  1.0000
  O   O13       1.0  0.72400  0.40600  0.63800  1.0000
  O   O14       1.0  0.94300  0.57600  0.74700  1.0000
  O   O15       1.0  0.94300  0.92400  0.74700  1.0000
  O   O16       1.0  0.44300  0.57600  0.75300  1.0000
  O   O17       1.0  0.44300  0.92400  0.75300  1.0000
  O   O18       1.0  0.22400  0.09380  0.86200  1.0000
  O   O19       1.0  0.22400  0.40600  0.86200  1.0000
  O   O20       1.0  0.10600  0.75000  0.97000  1.0000
