data_image0
_chemical_formula_structural       Br12H32Hg2N8
_chemical_formula_sum              "Br12 H32 Hg2 N8"
_cell_length_a       8.86104
_cell_length_b       9.09607
_cell_length_c       9.00905
_cell_angle_alpha    90.0013
_cell_angle_beta     89.9012
_cell_angle_gamma    90.0004

_space_group_name_H-M_alt    "P 1"
_space_group_IT_number       1

loop_
  _space_group_symop_operation_xyz
  'x, y, z'

loop_
  _atom_site_type_symbol
  _atom_site_label
  _atom_site_symmetry_multiplicity
  _atom_site_fract_x
  _atom_site_fract_y
  _atom_site_fract_z
  _atom_site_occupancy
  Br  Br1       1.0  0.32000  0.88200  0.00078  1.0000
  Br  Br2       1.0  0.87100  0.68000  0.00283  1.0000
  Br  Br3       1.0  0.50100  0.50100  0.20600  1.0000
  Br  Br4       1.0  0.99900  0.00125  0.29400  1.0000
  Br  Br5       1.0  0.62900  0.18000  0.49700  1.0000
  Br  Br6       1.0  0.18000  0.38200  0.49900  1.0000
  Br  Br7       1.0  0.82000  0.61800  0.50100  1.0000
  Br  Br8       1.0  0.37100  0.82000  0.50300  1.0000
  Br  Br9       1.0  0.00069  0.99900  0.70600  1.0000
  Br  Br10      1.0  0.49900  0.49900  0.79400  1.0000
  Br  Br11      1.0  0.12900  0.32000  0.99700  1.0000
  Br  Br12      1.0  0.68000  0.11800  0.99900  1.0000
  H   H1        1.0  0.62700  0.92400  0.16800  1.0000
  H   H2        1.0  0.94200  0.34900  0.16900  1.0000
  H   H3        1.0  0.35900  0.06810  0.17000  1.0000
  H   H4        1.0  0.05800  0.64700  0.17400  1.0000
  H   H5        1.0  0.24900  0.63600  0.19200  1.0000
  H   H6        1.0  0.75500  0.38900  0.19200  1.0000
  H   H7        1.0  0.35000  0.25200  0.20000  1.0000
  H   H8        1.0  0.66700  0.74900  0.21400  1.0000
  H   H9        1.0  0.83300  0.24900  0.28600  1.0000
  H   H10       1.0  0.15000  0.75200  0.30000  1.0000
  H   H11       1.0  0.74500  0.88900  0.30800  1.0000
  H   H12       1.0  0.25100  0.13600  0.30800  1.0000
  H   H13       1.0  0.44200  0.14700  0.32600  1.0000
  H   H14       1.0  0.14100  0.56800  0.33000  1.0000
  H   H15       1.0  0.55800  0.84900  0.33100  1.0000
  H   H16       1.0  0.87300  0.42400  0.33200  1.0000
  H   H17       1.0  0.12700  0.57600  0.66800  1.0000
  H   H18       1.0  0.44200  0.15100  0.66900  1.0000
  H   H19       1.0  0.85900  0.43200  0.67000  1.0000
  H   H20       1.0  0.55800  0.85300  0.67400  1.0000
  H   H21       1.0  0.74900  0.86400  0.69200  1.0000
  H   H22       1.0  0.25500  0.11100  0.69200  1.0000
  H   H23       1.0  0.85000  0.24800  0.70000  1.0000
  H   H24       1.0  0.16700  0.75100  0.71400  1.0000
  H   H25       1.0  0.33300  0.25100  0.78600  1.0000
  H   H26       1.0  0.65000  0.74800  0.80000  1.0000
  H   H27       1.0  0.24500  0.61100  0.80800  1.0000
  H   H28       1.0  0.75100  0.36400  0.80800  1.0000
  H   H29       1.0  0.94200  0.35300  0.82600  1.0000
  H   H30       1.0  0.64100  0.93200  0.83000  1.0000
  H   H31       1.0  0.05780  0.65100  0.83100  1.0000
  H   H32       1.0  0.37300  0.07550  0.83200  1.0000
  Hg  Hg1       1.0  0.00000  0.00000  0.00000  1.0000
  Hg  Hg2       1.0  0.50000  0.50000  0.50000  1.0000
  N   N1        1.0  0.85200  0.35300  0.24400  1.0000
  N   N2        1.0  0.14800  0.65000  0.24900  1.0000
  N   N3        1.0  0.35200  0.15000  0.25100  1.0000
  N   N4        1.0  0.64800  0.85300  0.25600  1.0000
  N   N5        1.0  0.35200  0.14700  0.74400  1.0000
  N   N6        1.0  0.64800  0.85000  0.74900  1.0000
  N   N7        1.0  0.85200  0.35000  0.75100  1.0000
  N   N8        1.0  0.14800  0.64700  0.75600  1.0000
