data_image0
_chemical_formula_structural       Ba8Si46
_chemical_formula_sum              "Ba8 Si46"
_cell_length_a       10.3874
_cell_length_b       10.3874
_cell_length_c       10.3874
_cell_angle_alpha    90
_cell_angle_beta     90
_cell_angle_gamma    90

_space_group_name_H-M_alt    "P 1"
_space_group_IT_number       1

loop_
  _space_group_symop_operation_xyz
  'x, y, z'

loop_
  _atom_site_type_symbol
  _atom_site_label
  _atom_site_symmetry_multiplicity
  _atom_site_fract_x
  _atom_site_fract_y
  _atom_site_fract_z
  _atom_site_occupancy
  Ba  Ba1       1.0  0.00000  0.00000  0.00000  1.0000
  Ba  Ba2       1.0  0.25000  0.50000  0.00000  1.0000
  Ba  Ba3       1.0  0.75000  0.50000  0.00000  1.0000
  Ba  Ba4       1.0  0.50000  0.00000  0.25000  1.0000
  Ba  Ba5       1.0  0.00000  0.25000  0.50000  1.0000
  Ba  Ba6       1.0  0.50000  0.50000  0.50000  1.0000
  Ba  Ba7       1.0  0.00000  0.75000  0.50000  1.0000
  Ba  Ba8       1.0  0.50000  0.00000  0.75000  1.0000
  Si  Si1       1.0  0.30700  0.12100  0.00000  1.0000
  Si  Si2       1.0  0.69300  0.12100  0.00000  1.0000
  Si  Si3       1.0  0.50000  0.25000  0.00000  1.0000
  Si  Si4       1.0  0.50000  0.75000  0.00000  1.0000
  Si  Si5       1.0  0.30700  0.87900  0.00000  1.0000
  Si  Si6       1.0  0.69300  0.87900  0.00000  1.0000
  Si  Si7       1.0  0.00000  0.30700  0.12100  1.0000
  Si  Si8       1.0  0.00000  0.69300  0.12100  1.0000
  Si  Si9       1.0  0.18500  0.18500  0.18500  1.0000
  Si  Si10      1.0  0.81500  0.18500  0.18500  1.0000
  Si  Si11      1.0  0.18500  0.81500  0.18500  1.0000
  Si  Si12      1.0  0.81500  0.81500  0.18500  1.0000
  Si  Si13      1.0  0.50000  0.37900  0.19300  1.0000
  Si  Si14      1.0  0.50000  0.62100  0.19300  1.0000
  Si  Si15      1.0  0.00000  0.50000  0.25000  1.0000
  Si  Si16      1.0  0.12100  0.00000  0.30700  1.0000
  Si  Si17      1.0  0.87900  0.00000  0.30700  1.0000
  Si  Si18      1.0  0.31500  0.31500  0.31500  1.0000
  Si  Si19      1.0  0.68500  0.31500  0.31500  1.0000
  Si  Si20      1.0  0.31500  0.68500  0.31500  1.0000
  Si  Si21      1.0  0.68500  0.68500  0.31500  1.0000
  Si  Si22      1.0  0.19300  0.50000  0.37900  1.0000
  Si  Si23      1.0  0.80700  0.50000  0.37900  1.0000
  Si  Si24      1.0  0.25000  0.00000  0.50000  1.0000
  Si  Si25      1.0  0.75000  0.00000  0.50000  1.0000
  Si  Si26      1.0  0.37900  0.19300  0.50000  1.0000
  Si  Si27      1.0  0.62100  0.19300  0.50000  1.0000
  Si  Si28      1.0  0.37900  0.80700  0.50000  1.0000
  Si  Si29      1.0  0.62100  0.80700  0.50000  1.0000
  Si  Si30      1.0  0.19300  0.50000  0.62100  1.0000
  Si  Si31      1.0  0.80700  0.50000  0.62100  1.0000
  Si  Si32      1.0  0.31500  0.31500  0.68500  1.0000
  Si  Si33      1.0  0.68500  0.31500  0.68500  1.0000
  Si  Si34      1.0  0.31500  0.68500  0.68500  1.0000
  Si  Si35      1.0  0.68500  0.68500  0.68500  1.0000
  Si  Si36      1.0  0.12100  0.00000  0.69300  1.0000
  Si  Si37      1.0  0.87900  0.00000  0.69300  1.0000
  Si  Si38      1.0  0.00000  0.50000  0.75000  1.0000
  Si  Si39      1.0  0.50000  0.37900  0.80700  1.0000
  Si  Si40      1.0  0.50000  0.62100  0.80700  1.0000
  Si  Si41      1.0  0.18500  0.18500  0.81500  1.0000
  Si  Si42      1.0  0.81500  0.18500  0.81500  1.0000
  Si  Si43      1.0  0.18500  0.81500  0.81500  1.0000
  Si  Si44      1.0  0.81500  0.81500  0.81500  1.0000
  Si  Si45      1.0  0.00000  0.30700  0.87900  1.0000
  Si  Si46      1.0  0.00000  0.69300  0.87900  1.0000
