data_image0
_chemical_formula_structural       Ag35Te20
_chemical_formula_sum              "Ag35 Te20"
_cell_length_a       13.467
_cell_length_b       13.467
_cell_length_c       8.76367
_cell_angle_alpha    90
_cell_angle_beta     90
_cell_angle_gamma    120.004

_space_group_name_H-M_alt    "P 1"
_space_group_IT_number       1

loop_
  _space_group_symop_operation_xyz
  'x, y, z'

loop_
  _atom_site_type_symbol
  _atom_site_label
  _atom_site_symmetry_multiplicity
  _atom_site_fract_x
  _atom_site_fract_y
  _atom_site_fract_z
  _atom_site_occupancy
  Ag  Ag1       1.0  0.50000  0.00000  0.00000  1.0000
  Ag  Ag2       1.0  0.87800  0.12200  0.00000  1.0000
  Ag  Ag3       1.0  0.24300  0.12200  0.00000  1.0000
  Ag  Ag4       1.0  0.12200  0.24300  0.00000  1.0000
  Ag  Ag5       1.0  0.00000  0.50000  0.00000  1.0000
  Ag  Ag6       1.0  0.50000  0.50000  0.00000  1.0000
  Ag  Ag7       1.0  0.87800  0.75700  0.00000  1.0000
  Ag  Ag8       1.0  0.75700  0.87800  0.00000  1.0000
  Ag  Ag9       1.0  0.12200  0.87800  0.00000  1.0000
  Ag  Ag10      1.0  0.00000  0.00000  0.15300  1.0000
  Ag  Ag11      1.0  0.74800  0.49700  0.23000  1.0000
  Ag  Ag12      1.0  0.49700  0.74800  0.23000  1.0000
  Ag  Ag13      1.0  0.50300  0.25200  0.23000  1.0000
  Ag  Ag14      1.0  0.25200  0.50300  0.23000  1.0000
  Ag  Ag15      1.0  0.74800  0.25200  0.23000  1.0000
  Ag  Ag16      1.0  0.25200  0.74800  0.23000  1.0000
  Ag  Ag17      1.0  0.66300  0.12400  0.50000  1.0000
  Ag  Ag18      1.0  0.46100  0.12400  0.50000  1.0000
  Ag  Ag19      1.0  0.46100  0.33700  0.50000  1.0000
  Ag  Ag20      1.0  0.87600  0.33700  0.50000  1.0000
  Ag  Ag21      1.0  0.33700  0.46100  0.50000  1.0000
  Ag  Ag22      1.0  0.12400  0.46100  0.50000  1.0000
  Ag  Ag23      1.0  0.87600  0.53900  0.50000  1.0000
  Ag  Ag24      1.0  0.66300  0.53900  0.50000  1.0000
  Ag  Ag25      1.0  0.12400  0.66300  0.50000  1.0000
  Ag  Ag26      1.0  0.53900  0.66300  0.50000  1.0000
  Ag  Ag27      1.0  0.53900  0.87600  0.50000  1.0000
  Ag  Ag28      1.0  0.33700  0.87600  0.50000  1.0000
  Ag  Ag29      1.0  0.74800  0.25200  0.77000  1.0000
  Ag  Ag30      1.0  0.25200  0.74800  0.77000  1.0000
  Ag  Ag31      1.0  0.50300  0.25200  0.77000  1.0000
  Ag  Ag32      1.0  0.25200  0.50300  0.77000  1.0000
  Ag  Ag33      1.0  0.74800  0.49700  0.77000  1.0000
  Ag  Ag34      1.0  0.49700  0.74800  0.77000  1.0000
  Ag  Ag35      1.0  0.00000  0.00000  0.84700  1.0000
  Te  Te1       1.0  0.66700  0.33300  0.00000  1.0000
  Te  Te2       1.0  0.33300  0.66700  0.00000  1.0000
  Te  Te3       1.0  0.65900  0.00000  0.19500  1.0000
  Te  Te4       1.0  0.00000  0.65900  0.19500  1.0000
  Te  Te5       1.0  0.34100  0.00000  0.19500  1.0000
  Te  Te6       1.0  0.00000  0.34100  0.19500  1.0000
  Te  Te7       1.0  0.34100  0.34100  0.19500  1.0000
  Te  Te8       1.0  0.65900  0.65900  0.19500  1.0000
  Te  Te9       1.0  0.20700  0.00000  0.50000  1.0000
  Te  Te10      1.0  0.79300  0.00000  0.50000  1.0000
  Te  Te11      1.0  0.20700  0.20700  0.50000  1.0000
  Te  Te12      1.0  0.00000  0.20700  0.50000  1.0000
  Te  Te13      1.0  0.00000  0.79300  0.50000  1.0000
  Te  Te14      1.0  0.79300  0.79300  0.50000  1.0000
  Te  Te15      1.0  0.34100  0.34100  0.80500  1.0000
  Te  Te16      1.0  0.65900  0.65900  0.80500  1.0000
  Te  Te17      1.0  0.34100  0.00000  0.80500  1.0000
  Te  Te18      1.0  0.00000  0.34100  0.80500  1.0000
  Te  Te19      1.0  0.65900  0.00000  0.80500  1.0000
  Te  Te20      1.0  0.00000  0.65900  0.80500  1.0000
