data_image0
_chemical_formula_structural       H26N6O16Se4
_chemical_formula_sum              "H26 N6 O16 Se4"
_cell_length_a       5.83635
_cell_length_b       5.9085
_cell_length_c       15.1817
_cell_angle_alpha    100.257
_cell_angle_beta     101.082
_cell_angle_gamma    60.4031

_space_group_name_H-M_alt    "P 1"
_space_group_IT_number       1

loop_
  _space_group_symop_operation_xyz
  'x, y, z'

loop_
  _atom_site_type_symbol
  _atom_site_label
  _atom_site_symmetry_multiplicity
  _atom_site_fract_x
  _atom_site_fract_y
  _atom_site_fract_z
  _atom_site_occupancy
  H   H1        1.0  0.22800  0.20200  0.01860  1.0000
  H   H2        1.0  0.82900  0.01620  0.04710  1.0000
  H   H3        1.0  0.01660  0.70000  0.07360  1.0000
  H   H4        1.0  0.69100  0.86800  0.08950  1.0000
  H   H5        1.0  0.27000  0.34200  0.20800  1.0000
  H   H6        1.0  0.22800  0.08600  0.21100  1.0000
  H   H7        1.0  0.76100  0.25400  0.25100  1.0000
  H   H8        1.0  0.06100  0.37000  0.27700  1.0000
  H   H9        1.0  0.38900  0.17700  0.30300  1.0000
  H   H10       1.0  0.45400  0.62700  0.41800  1.0000
  H   H11       1.0  0.63200  0.78900  0.42600  1.0000
  H   H12       1.0  0.79300  0.46400  0.44500  1.0000
  H   H13       1.0  0.44000  0.26700  0.48500  1.0000
  H   H14       1.0  0.58900  0.70200  0.51900  1.0000
  H   H15       1.0  0.20200  0.51600  0.54700  1.0000
  H   H16       1.0  0.35700  0.20000  0.57400  1.0000
  H   H17       1.0  0.53000  0.36800  0.58900  1.0000
  H   H18       1.0  0.59600  0.84200  0.70800  1.0000
  H   H19       1.0  0.89800  0.58600  0.71100  1.0000
  H   H20       1.0  0.23500  0.75400  0.75100  1.0000
  H   H21       1.0  0.84600  0.87000  0.77700  1.0000
  H   H22       1.0  0.73700  0.67700  0.80300  1.0000
  H   H23       1.0  0.33700  0.12700  0.91800  1.0000
  H   H24       1.0  0.00525  0.28900  0.92600  1.0000
  H   H25       1.0  0.18800  0.96400  0.94500  1.0000
  H   H26       1.0  0.77800  0.76700  0.98500  1.0000
  N   N1        1.0  0.82900  0.84000  0.04850  1.0000
  N   N2        1.0  0.23500  0.24400  0.25100  1.0000
  N   N3        1.0  0.61900  0.64300  0.45200  1.0000
  N   N4        1.0  0.37900  0.34000  0.54900  1.0000
  N   N5        1.0  0.77100  0.74400  0.75100  1.0000
  N   N6        1.0  0.18900  0.14300  0.95200  1.0000
  O   O1        1.0  0.80900  0.33500  0.07920  1.0000
  O   O2        1.0  0.31700  0.42700  0.11000  1.0000
  O   O3        1.0  0.42500  0.83600  0.12400  1.0000
  O   O4        1.0  0.65800  0.48000  0.24800  1.0000
  O   O5        1.0  0.88600  0.00595  0.25400  1.0000
  O   O6        1.0  0.13500  0.65000  0.37900  1.0000
  O   O7        1.0  0.63100  0.05870  0.39200  1.0000
  O   O8        1.0  0.05750  0.15300  0.42200  1.0000
  O   O9        1.0  0.93500  0.83500  0.57900  1.0000
  O   O10       1.0  0.36600  0.92700  0.61000  1.0000
  O   O11       1.0  0.86400  0.33600  0.62400  1.0000
  O   O12       1.0  0.11000  0.98000  0.74800  1.0000
  O   O13       1.0  0.36200  0.50600  0.75400  1.0000
  O   O14       1.0  0.59400  0.15000  0.87900  1.0000
  O   O15       1.0  0.70300  0.55900  0.89200  1.0000
  O   O16       1.0  0.21100  0.65300  0.92200  1.0000
  Se  Se1       1.0  0.55100  0.52200  0.13500  1.0000
  Se  Se2       1.0  0.93400  0.96200  0.36500  1.0000
  Se  Se3       1.0  0.06250  0.02200  0.63500  1.0000
  Se  Se4       1.0  0.46900  0.46200  0.86500  1.0000
