data_image0
_chemical_formula_structural       Cl8Cr2F2H30N10Zn2
_chemical_formula_sum              "Cl8 Cr2 F2 H30 N10 Zn2"
_cell_length_a       7.72659
_cell_length_b       8.86157
_cell_length_c       9.29294
_cell_angle_alpha    90
_cell_angle_beta     65.4351
_cell_angle_gamma    90

_space_group_name_H-M_alt    "P 1"
_space_group_IT_number       1

loop_
  _space_group_symop_operation_xyz
  'x, y, z'

loop_
  _atom_site_type_symbol
  _atom_site_label
  _atom_site_symmetry_multiplicity
  _atom_site_fract_x
  _atom_site_fract_y
  _atom_site_fract_z
  _atom_site_occupancy
  Cl  Cl1       1.0  0.97600  0.07200  0.04830  1.0000
  Cl  Cl2       1.0  0.09710  0.41300  0.30000  1.0000
  Cl  Cl3       1.0  0.60300  0.41300  0.30000  1.0000
  Cl  Cl4       1.0  0.82000  0.74900  0.35900  1.0000
  Cl  Cl5       1.0  0.18000  0.24900  0.64100  1.0000
  Cl  Cl6       1.0  0.39700  0.91300  0.70000  1.0000
  Cl  Cl7       1.0  0.90300  0.91300  0.70000  1.0000
  Cl  Cl8       1.0  0.02410  0.57200  0.95200  1.0000
  Cr  Cr1       1.0  0.39600  0.91700  0.20700  1.0000
  Cr  Cr2       1.0  0.60400  0.41700  0.79300  1.0000
  F   F1        1.0  0.47500  0.06940  0.05040  1.0000
  F   F2        1.0  0.52500  0.56900  0.95000  1.0000
  H   H1        1.0  0.27700  0.36800  0.02220  1.0000
  H   H2        1.0  0.70100  0.36800  0.02220  1.0000
  H   H3        1.0  0.33400  0.70100  0.03970  1.0000
  H   H4        1.0  0.62600  0.70100  0.03970  1.0000
  H   H5        1.0  0.12900  0.79300  0.13600  1.0000
  H   H6        1.0  0.73500  0.79300  0.13600  1.0000
  H   H7        1.0  0.14000  0.13300  0.27200  1.0000
  H   H8        1.0  0.58700  0.13300  0.27200  1.0000
  H   H9        1.0  0.02560  0.97100  0.33900  1.0000
  H   H10       1.0  0.63600  0.97100  0.33900  1.0000
  H   H11       1.0  0.21100  0.67300  0.36500  1.0000
  H   H12       1.0  0.42300  0.67300  0.36500  1.0000
  H   H13       1.0  0.11800  0.06340  0.44400  1.0000
  H   H14       1.0  0.43800  0.06340  0.44400  1.0000
  H   H15       1.0  0.25500  0.78400  0.49100  1.0000
  H   H16       1.0  0.74500  0.28400  0.50900  1.0000
  H   H17       1.0  0.56200  0.56300  0.55600  1.0000
  H   H18       1.0  0.88200  0.56300  0.55600  1.0000
  H   H19       1.0  0.57700  0.17300  0.63500  1.0000
  H   H20       1.0  0.78900  0.17300  0.63500  1.0000
  H   H21       1.0  0.36400  0.47100  0.66100  1.0000
  H   H22       1.0  0.97400  0.47100  0.66100  1.0000
  H   H23       1.0  0.41300  0.63300  0.72800  1.0000
  H   H24       1.0  0.86000  0.63300  0.72800  1.0000
  H   H25       1.0  0.26500  0.29300  0.86400  1.0000
  H   H26       1.0  0.87100  0.29300  0.86400  1.0000
  H   H27       1.0  0.37400  0.20100  0.96000  1.0000
  H   H28       1.0  0.66600  0.20100  0.96000  1.0000
  H   H29       1.0  0.29900  0.86800  0.97800  1.0000
  H   H30       1.0  0.72300  0.86800  0.97800  1.0000
  N   N1        1.0  0.27400  0.80600  0.07840  1.0000
  N   N2        1.0  0.64700  0.80600  0.07840  1.0000
  N   N3        1.0  0.14100  0.03400  0.33100  1.0000
  N   N4        1.0  0.52800  0.03400  0.33100  1.0000
  N   N5        1.0  0.31100  0.74300  0.37700  1.0000
  N   N6        1.0  0.68900  0.24300  0.62300  1.0000
  N   N7        1.0  0.47200  0.53400  0.66900  1.0000
  N   N8        1.0  0.85900  0.53400  0.66900  1.0000
  N   N9        1.0  0.35300  0.30600  0.92200  1.0000
  N   N10       1.0  0.72600  0.30600  0.92200  1.0000
  Zn  Zn1       1.0  0.89400  0.52300  0.21200  1.0000
  Zn  Zn2       1.0  0.10600  0.02270  0.78800  1.0000
