data_image0
_chemical_formula_structural       Er4I12O36
_chemical_formula_sum              "Er4 I12 O36"
_cell_length_a       8.57572
_cell_length_b       5.84687
_cell_length_c       14.6674
_cell_angle_alpha    90
_cell_angle_beta     97.2742
_cell_angle_gamma    90

_space_group_name_H-M_alt    "P 1"
_space_group_IT_number       1

loop_
  _space_group_symop_operation_xyz
  'x, y, z'

loop_
  _atom_site_type_symbol
  _atom_site_label
  _atom_site_symmetry_multiplicity
  _atom_site_fract_x
  _atom_site_fract_y
  _atom_site_fract_z
  _atom_site_occupancy
  Er  Er1       1.0  0.95900  0.78000  0.10200  1.0000
  Er  Er2       1.0  0.54100  0.28000  0.39800  1.0000
  Er  Er3       1.0  0.45900  0.72000  0.60200  1.0000
  Er  Er4       1.0  0.04090  0.22000  0.89800  1.0000
  I   I1        1.0  0.66200  0.15700  0.02380  1.0000
  I   I2        1.0  0.22700  0.31100  0.14900  1.0000
  I   I3        1.0  0.62000  0.60000  0.20200  1.0000
  I   I4        1.0  0.88000  0.09960  0.29800  1.0000
  I   I5        1.0  0.27300  0.81100  0.35100  1.0000
  I   I6        1.0  0.83800  0.65700  0.47600  1.0000
  I   I7        1.0  0.16200  0.34300  0.52400  1.0000
  I   I8        1.0  0.72700  0.18900  0.64900  1.0000
  I   I9        1.0  0.12000  0.90000  0.70200  1.0000
  I   I10       1.0  0.38000  0.40000  0.79800  1.0000
  I   I11       1.0  0.77300  0.68900  0.85100  1.0000
  I   I12       1.0  0.33800  0.84300  0.97600  1.0000
  O   O1        1.0  0.13900  0.88300  0.01050  1.0000
  O   O2        1.0  0.14600  0.38800  0.03180  1.0000
  O   O3        1.0  0.41400  0.07440  0.05950  1.0000
  O   O4        1.0  0.45200  0.59000  0.11000  1.0000
  O   O5        1.0  0.72500  0.96900  0.12400  1.0000
  O   O6        1.0  0.77700  0.50000  0.13500  1.0000
  O   O7        1.0  0.07480  0.10300  0.17400  1.0000
  O   O8        1.0  0.13600  0.56300  0.19700  1.0000
  O   O9        1.0  0.58500  0.30800  0.24100  1.0000
  O   O10       1.0  0.91500  0.80800  0.25900  1.0000
  O   O11       1.0  0.36400  0.06320  0.30300  1.0000
  O   O12       1.0  0.42500  0.60300  0.32600  1.0000
  O   O13       1.0  0.72300  0.00000  0.36500  1.0000
  O   O14       1.0  0.77500  0.46900  0.37600  1.0000
  O   O15       1.0  0.04850  0.08950  0.39000  1.0000
  O   O16       1.0  0.08600  0.57400  0.44100  1.0000
  O   O17       1.0  0.35400  0.88800  0.46800  1.0000
  O   O18       1.0  0.36100  0.38300  0.49000  1.0000
  O   O19       1.0  0.63900  0.61700  0.51000  1.0000
  O   O20       1.0  0.64600  0.11200  0.53200  1.0000
  O   O21       1.0  0.91400  0.42600  0.55900  1.0000
  O   O22       1.0  0.95200  0.91000  0.61000  1.0000
  O   O23       1.0  0.22500  0.53100  0.62400  1.0000
  O   O24       1.0  0.27700  0.00029  0.63500  1.0000
  O   O25       1.0  0.57500  0.39700  0.67400  1.0000
  O   O26       1.0  0.63600  0.93700  0.69700  1.0000
  O   O27       1.0  0.08530  0.19200  0.74100  1.0000
  O   O28       1.0  0.41500  0.69200  0.75900  1.0000
  O   O29       1.0  0.86400  0.43700  0.80300  1.0000
  O   O30       1.0  0.92500  0.89700  0.82600  1.0000
  O   O31       1.0  0.22300  0.50000  0.86500  1.0000
  O   O32       1.0  0.27500  0.03120  0.87600  1.0000
  O   O33       1.0  0.54800  0.41000  0.89000  1.0000
  O   O34       1.0  0.58600  0.92600  0.94100  1.0000
  O   O35       1.0  0.85400  0.61200  0.96800  1.0000
  O   O36       1.0  0.86100  0.11700  0.99000  1.0000
