data_image0
_chemical_formula_structural       Ce4I12O36
_chemical_formula_sum              "Ce4 I12 O36"
_cell_length_a       8.84964
_cell_length_b       5.87449
_cell_length_c       15.2062
_cell_angle_alpha    90
_cell_angle_beta     97.0408
_cell_angle_gamma    90

_space_group_name_H-M_alt    "P 1"
_space_group_IT_number       1

loop_
  _space_group_symop_operation_xyz
  'x, y, z'

loop_
  _atom_site_type_symbol
  _atom_site_label
  _atom_site_symmetry_multiplicity
  _atom_site_fract_x
  _atom_site_fract_y
  _atom_site_fract_z
  _atom_site_occupancy
  Ce  Ce1       1.0  0.96300  0.76000  0.09870  1.0000
  Ce  Ce2       1.0  0.53700  0.26000  0.40100  1.0000
  Ce  Ce3       1.0  0.46300  0.74000  0.59900  1.0000
  Ce  Ce4       1.0  0.03740  0.24000  0.90100  1.0000
  I   I1        1.0  0.66000  0.14200  0.02560  1.0000
  I   I2        1.0  0.22700  0.31100  0.15400  1.0000
  I   I3        1.0  0.61400  0.59300  0.20000  1.0000
  I   I4        1.0  0.88600  0.09270  0.30000  1.0000
  I   I5        1.0  0.27300  0.81100  0.34600  1.0000
  I   I6        1.0  0.84000  0.64200  0.47400  1.0000
  I   I7        1.0  0.16000  0.35800  0.52600  1.0000
  I   I8        1.0  0.72700  0.18900  0.65400  1.0000
  I   I9        1.0  0.11400  0.90700  0.70000  1.0000
  I   I10       1.0  0.38600  0.40700  0.80000  1.0000
  I   I11       1.0  0.77300  0.68900  0.84600  1.0000
  I   I12       1.0  0.34000  0.85800  0.97400  1.0000
  O   O1        1.0  0.14500  0.90800  0.00608  1.0000
  O   O2        1.0  0.13600  0.42300  0.04630  1.0000
  O   O3        1.0  0.41300  0.09400  0.05220  1.0000
  O   O4        1.0  0.44500  0.59400  0.11700  1.0000
  O   O5        1.0  0.71200  0.96700  0.12500  1.0000
  O   O6        1.0  0.75800  0.49100  0.13100  1.0000
  O   O7        1.0  0.07260  0.11200  0.17300  1.0000
  O   O8        1.0  0.15000  0.55200  0.21300  1.0000
  O   O9        1.0  0.58400  0.30700  0.24300  1.0000
  O   O10       1.0  0.91600  0.80700  0.25700  1.0000
  O   O11       1.0  0.35000  0.05190  0.28700  1.0000
  O   O12       1.0  0.42700  0.61200  0.32700  1.0000
  O   O13       1.0  0.74200  0.99100  0.36900  1.0000
  O   O14       1.0  0.78800  0.46700  0.37500  1.0000
  O   O15       1.0  0.05500  0.09430  0.38300  1.0000
  O   O16       1.0  0.08690  0.59400  0.44800  1.0000
  O   O17       1.0  0.36400  0.92300  0.45400  1.0000
  O   O18       1.0  0.35500  0.40800  0.49400  1.0000
  O   O19       1.0  0.64500  0.59200  0.50600  1.0000
  O   O20       1.0  0.63600  0.07720  0.54600  1.0000
  O   O21       1.0  0.91300  0.40600  0.55200  1.0000
  O   O22       1.0  0.94500  0.90600  0.61700  1.0000
  O   O23       1.0  0.21200  0.53300  0.62500  1.0000
  O   O24       1.0  0.25800  0.00874  0.63100  1.0000
  O   O25       1.0  0.57300  0.38800  0.67300  1.0000
  O   O26       1.0  0.65000  0.94800  0.71300  1.0000
  O   O27       1.0  0.08450  0.19300  0.74300  1.0000
  O   O28       1.0  0.41600  0.69300  0.75700  1.0000
  O   O29       1.0  0.85000  0.44800  0.78700  1.0000
  O   O30       1.0  0.92700  0.88800  0.82700  1.0000
  O   O31       1.0  0.24200  0.50900  0.86900  1.0000
  O   O32       1.0  0.28800  0.03290  0.87500  1.0000
  O   O33       1.0  0.55500  0.40600  0.88300  1.0000
  O   O34       1.0  0.58700  0.90600  0.94800  1.0000
  O   O35       1.0  0.86400  0.57700  0.95400  1.0000
  O   O36       1.0  0.85500  0.09180  0.99400  1.0000
