data_image0
_chemical_formula_structural       AsH36Li3N12Se4
_chemical_formula_sum              "As1 H36 Li3 N12 Se4"
_cell_length_a       8.80511
_cell_length_b       8.80511
_cell_length_c       8.80511
_cell_angle_alpha    109.471
_cell_angle_beta     109.471
_cell_angle_gamma    109.471

_space_group_name_H-M_alt    "P 1"
_space_group_IT_number       1

loop_
  _space_group_symop_operation_xyz
  'x, y, z'

loop_
  _atom_site_type_symbol
  _atom_site_label
  _atom_site_symmetry_multiplicity
  _atom_site_fract_x
  _atom_site_fract_y
  _atom_site_fract_z
  _atom_site_occupancy
  As  As1       1.0  0.00000  0.00000  0.00000  1.0000
  H   H1        1.0  0.38100  0.20400  0.00000  1.0000
  H   H2        1.0  0.20400  0.38100  0.00000  1.0000
  H   H3        1.0  0.60500  0.27900  0.11300  1.0000
  H   H4        1.0  0.27900  0.60500  0.11300  1.0000
  H   H5        1.0  0.88700  0.49200  0.16700  1.0000
  H   H6        1.0  0.49200  0.88700  0.16700  1.0000
  H   H7        1.0  0.79600  0.79600  0.17700  1.0000
  H   H8        1.0  0.38100  0.00000  0.20400  1.0000
  H   H9        1.0  0.00000  0.38100  0.20400  1.0000
  H   H10       1.0  0.60500  0.11300  0.27900  1.0000
  H   H11       1.0  0.11300  0.60500  0.27900  1.0000
  H   H12       1.0  0.83300  0.72100  0.32600  1.0000
  H   H13       1.0  0.72100  0.83300  0.32600  1.0000
  H   H14       1.0  0.20400  0.00000  0.38100  1.0000
  H   H15       1.0  0.00000  0.20400  0.38100  1.0000
  H   H16       1.0  0.67400  0.50800  0.39500  1.0000
  H   H17       1.0  0.50800  0.67400  0.39500  1.0000
  H   H18       1.0  0.88700  0.16700  0.49200  1.0000
  H   H19       1.0  0.16700  0.88700  0.49200  1.0000
  H   H20       1.0  0.67400  0.39500  0.50800  1.0000
  H   H21       1.0  0.39500  0.67400  0.50800  1.0000
  H   H22       1.0  0.27900  0.11300  0.60500  1.0000
  H   H23       1.0  0.11300  0.27900  0.60500  1.0000
  H   H24       1.0  0.82300  0.61900  0.61900  1.0000
  H   H25       1.0  0.61900  0.82300  0.61900  1.0000
  H   H26       1.0  0.50800  0.39500  0.67400  1.0000
  H   H27       1.0  0.39500  0.50800  0.67400  1.0000
  H   H28       1.0  0.83300  0.32600  0.72100  1.0000
  H   H29       1.0  0.32600  0.83300  0.72100  1.0000
  H   H30       1.0  0.79600  0.17700  0.79600  1.0000
  H   H31       1.0  0.17700  0.79600  0.79600  1.0000
  H   H32       1.0  0.61900  0.61900  0.82300  1.0000
  H   H33       1.0  0.72100  0.32600  0.83300  1.0000
  H   H34       1.0  0.32600  0.72100  0.83300  1.0000
  H   H35       1.0  0.49200  0.16700  0.88700  1.0000
  H   H36       1.0  0.16700  0.49200  0.88700  1.0000
  Li  Li1       1.0  0.50000  0.50000  0.00000  1.0000
  Li  Li2       1.0  0.50000  0.00000  0.50000  1.0000
  Li  Li3       1.0  0.00000  0.50000  0.50000  1.0000
  N   N1        1.0  0.50400  0.26500  0.00000  1.0000
  N   N2        1.0  0.26500  0.50400  0.00000  1.0000
  N   N3        1.0  0.73500  0.73500  0.23800  1.0000
  N   N4        1.0  0.50400  0.00000  0.26500  1.0000
  N   N5        1.0  0.00000  0.50400  0.26500  1.0000
  N   N6        1.0  0.76200  0.49600  0.49600  1.0000
  N   N7        1.0  0.49600  0.76200  0.49600  1.0000
  N   N8        1.0  0.26500  0.00000  0.50400  1.0000
  N   N9        1.0  0.00000  0.26500  0.50400  1.0000
  N   N10       1.0  0.73500  0.23800  0.73500  1.0000
  N   N11       1.0  0.23800  0.73500  0.73500  1.0000
  N   N12       1.0  0.49600  0.49600  0.76200  1.0000
  Se  Se1       1.0  0.73500  0.00000  0.00000  1.0000
  Se  Se2       1.0  0.00000  0.73500  0.00000  1.0000
  Se  Se3       1.0  0.26500  0.26500  0.26500  1.0000
  Se  Se4       1.0  0.00000  0.00000  0.73500  1.0000
