data_image0
_chemical_formula_structural       Ge18Ho8Ir26
_chemical_formula_sum              "Ge18 Ho8 Ir26"
_cell_length_a       3.99451
_cell_length_b       11.2987
_cell_length_c       19.4997
_cell_angle_alpha    90
_cell_angle_beta     90
_cell_angle_gamma    90

_space_group_name_H-M_alt    "P 1"
_space_group_IT_number       1

loop_
  _space_group_symop_operation_xyz
  'x, y, z'

loop_
  _atom_site_type_symbol
  _atom_site_label
  _atom_site_symmetry_multiplicity
  _atom_site_fract_x
  _atom_site_fract_y
  _atom_site_fract_z
  _atom_site_occupancy
  Ge  Ge1       1.0  0.25000  0.56400  0.08120  1.0000
  Ge  Ge2       1.0  0.25000  0.93600  0.08120  1.0000
  Ge  Ge3       1.0  0.75000  0.25000  0.09970  1.0000
  Ge  Ge4       1.0  0.25000  0.75000  0.26500  1.0000
  Ge  Ge5       1.0  0.25000  0.12000  0.26900  1.0000
  Ge  Ge6       1.0  0.25000  0.38000  0.26900  1.0000
  Ge  Ge7       1.0  0.25000  0.25000  0.39900  1.0000
  Ge  Ge8       1.0  0.75000  0.57100  0.41500  1.0000
  Ge  Ge9       1.0  0.75000  0.92900  0.41500  1.0000
  Ge  Ge10      1.0  0.25000  0.07060  0.58500  1.0000
  Ge  Ge11      1.0  0.25000  0.42900  0.58500  1.0000
  Ge  Ge12      1.0  0.75000  0.75000  0.60100  1.0000
  Ge  Ge13      1.0  0.75000  0.62000  0.73100  1.0000
  Ge  Ge14      1.0  0.75000  0.88000  0.73100  1.0000
  Ge  Ge15      1.0  0.75000  0.25000  0.73500  1.0000
  Ge  Ge16      1.0  0.25000  0.75000  0.90000  1.0000
  Ge  Ge17      1.0  0.75000  0.06400  0.91900  1.0000
  Ge  Ge18      1.0  0.75000  0.43600  0.91900  1.0000
  Ho  Ho1       1.0  0.75000  0.75000  0.02250  1.0000
  Ho  Ho2       1.0  0.75000  0.55900  0.20700  1.0000
  Ho  Ho3       1.0  0.75000  0.94100  0.20700  1.0000
  Ho  Ho4       1.0  0.25000  0.75000  0.48100  1.0000
  Ho  Ho5       1.0  0.75000  0.25000  0.51900  1.0000
  Ho  Ho6       1.0  0.25000  0.05900  0.79300  1.0000
  Ho  Ho7       1.0  0.25000  0.44100  0.79300  1.0000
  Ho  Ho8       1.0  0.25000  0.25000  0.97700  1.0000
  Ir  Ir1       1.0  0.75000  0.04960  0.04610  1.0000
  Ir  Ir2       1.0  0.75000  0.45000  0.04610  1.0000
  Ir  Ir3       1.0  0.25000  0.75000  0.14100  1.0000
  Ir  Ir4       1.0  0.25000  0.12600  0.14200  1.0000
  Ir  Ir5       1.0  0.25000  0.37400  0.14200  1.0000
  Ir  Ir6       1.0  0.75000  0.25000  0.22700  1.0000
  Ir  Ir7       1.0  0.25000  0.56700  0.33500  1.0000
  Ir  Ir8       1.0  0.25000  0.93300  0.33500  1.0000
  Ir  Ir9       1.0  0.75000  0.75000  0.34200  1.0000
  Ir  Ir10      1.0  0.75000  0.12300  0.35400  1.0000
  Ir  Ir11      1.0  0.75000  0.37700  0.35400  1.0000
  Ir  Ir12      1.0  0.25000  0.05960  0.46000  1.0000
  Ir  Ir13      1.0  0.25000  0.44000  0.46000  1.0000
  Ir  Ir14      1.0  0.75000  0.56000  0.54000  1.0000
  Ir  Ir15      1.0  0.75000  0.94000  0.54000  1.0000
  Ir  Ir16      1.0  0.25000  0.62300  0.64600  1.0000
  Ir  Ir17      1.0  0.25000  0.87700  0.64600  1.0000
  Ir  Ir18      1.0  0.25000  0.25000  0.65800  1.0000
  Ir  Ir19      1.0  0.75000  0.06700  0.66500  1.0000
  Ir  Ir20      1.0  0.75000  0.43300  0.66500  1.0000
  Ir  Ir21      1.0  0.25000  0.75000  0.77300  1.0000
  Ir  Ir22      1.0  0.75000  0.62600  0.85800  1.0000
  Ir  Ir23      1.0  0.75000  0.87400  0.85800  1.0000
  Ir  Ir24      1.0  0.75000  0.25000  0.85900  1.0000
  Ir  Ir25      1.0  0.25000  0.55000  0.95400  1.0000
  Ir  Ir26      1.0  0.25000  0.95000  0.95400  1.0000
