data_image0
_chemical_formula_structural       B16K6Na2O28
_chemical_formula_sum              "B16 K6 Na2 O28"
_cell_length_a       6.40721
_cell_length_b       9.43671
_cell_length_c       10.1619
_cell_angle_alpha    88.6338
_cell_angle_beta     100.875
_cell_angle_gamma    102.563

_space_group_name_H-M_alt    "P 1"
_space_group_IT_number       1

loop_
  _space_group_symop_operation_xyz
  'x, y, z'

loop_
  _atom_site_type_symbol
  _atom_site_label
  _atom_site_symmetry_multiplicity
  _atom_site_fract_x
  _atom_site_fract_y
  _atom_site_fract_z
  _atom_site_occupancy
  B   B1        1.0  0.94200  0.21300  0.09590  1.0000
  B   B2        1.0  0.12800  0.81100  0.16000  1.0000
  B   B3        1.0  0.86900  0.43800  0.18800  1.0000
  B   B4        1.0  0.80100  0.67800  0.25400  1.0000
  B   B5        1.0  0.53600  0.83600  0.27600  1.0000
  B   B6        1.0  0.80600  0.08230  0.28300  1.0000
  B   B7        1.0  0.11900  0.29900  0.31600  1.0000
  B   B8        1.0  0.64200  0.68100  0.45900  1.0000
  B   B9        1.0  0.35800  0.31900  0.54100  1.0000
  B   B10       1.0  0.88100  0.70100  0.68400  1.0000
  B   B11       1.0  0.19400  0.91800  0.71700  1.0000
  B   B12       1.0  0.46400  0.16400  0.72400  1.0000
  B   B13       1.0  0.19900  0.32200  0.74600  1.0000
  B   B14       1.0  0.13100  0.56200  0.81200  1.0000
  B   B15       1.0  0.87200  0.18900  0.84000  1.0000
  B   B16       1.0  0.05770  0.78700  0.90400  1.0000
  K   K1        1.0  0.38200  0.13100  0.04130  1.0000
  K   K2        1.0  0.33100  0.51900  0.12500  1.0000
  K   K3        1.0  0.26200  0.01700  0.39700  1.0000
  K   K4        1.0  0.73800  0.98300  0.60300  1.0000
  K   K5        1.0  0.66900  0.48100  0.87500  1.0000
  K   K6        1.0  0.61800  0.86900  0.95900  1.0000
  Na  Na1       1.0  0.15700  0.63800  0.47400  1.0000
  Na  Na2       1.0  0.84300  0.36200  0.52600  1.0000
  O   O1        1.0  0.00991  0.81400  0.03380  1.0000
  O   O2        1.0  0.82500  0.33600  0.08650  1.0000
  O   O3        1.0  0.79700  0.08640  0.14700  1.0000
  O   O4        1.0  0.76000  0.54800  0.16600  1.0000
  O   O5        1.0  0.34800  0.87100  0.18400  1.0000
  O   O6        1.0  0.14900  0.25100  0.18900  1.0000
  O   O7        1.0  0.64500  0.76200  0.19800  1.0000
  O   O8        1.0  0.03070  0.76000  0.26700  1.0000
  O   O9        1.0  0.02440  0.43300  0.30300  1.0000
  O   O10       1.0  0.67000  0.97600  0.34100  1.0000
  O   O11       1.0  0.95400  0.18300  0.37200  1.0000
  O   O12       1.0  0.47700  0.74600  0.39400  1.0000
  O   O13       1.0  0.78000  0.63000  0.39400  1.0000
  O   O14       1.0  0.33300  0.32700  0.40400  1.0000
  O   O15       1.0  0.66700  0.67300  0.59600  1.0000
  O   O16       1.0  0.22000  0.37000  0.60600  1.0000
  O   O17       1.0  0.52300  0.25400  0.60600  1.0000
  O   O18       1.0  0.04630  0.81700  0.62800  1.0000
  O   O19       1.0  0.33000  0.02360  0.65900  1.0000
  O   O20       1.0  0.97600  0.56700  0.69700  1.0000
  O   O21       1.0  0.96900  0.24000  0.73300  1.0000
  O   O22       1.0  0.35500  0.23800  0.80200  1.0000
  O   O23       1.0  0.85100  0.74900  0.81100  1.0000
  O   O24       1.0  0.65200  0.12900  0.81600  1.0000
  O   O25       1.0  0.24000  0.45200  0.83400  1.0000
  O   O26       1.0  0.20300  0.91400  0.85300  1.0000
  O   O27       1.0  0.17500  0.66400  0.91400  1.0000
  O   O28       1.0  0.99000  0.18600  0.96600  1.0000
