data_image0
_chemical_formula_structural       Eu8Li8P8S32
_chemical_formula_sum              "Eu8 Li8 P8 S32"
_cell_length_a       12.7095
_cell_length_b       11.3821
_cell_length_c       11.3821
_cell_angle_alpha    90
_cell_angle_beta     116.601
_cell_angle_gamma    116.601

_space_group_name_H-M_alt    "P 1"
_space_group_IT_number       1

loop_
  _space_group_symop_operation_xyz
  'x, y, z'

loop_
  _atom_site_type_symbol
  _atom_site_label
  _atom_site_symmetry_multiplicity
  _atom_site_fract_x
  _atom_site_fract_y
  _atom_site_fract_z
  _atom_site_occupancy
  Eu  Eu1       1.0  0.75000  0.37500  0.12500  1.0000
  Eu  Eu2       1.0  0.75000  0.87500  0.12500  1.0000
  Eu  Eu3       1.0  0.25000  0.12500  0.37500  1.0000
  Eu  Eu4       1.0  0.25000  0.62500  0.37500  1.0000
  Eu  Eu5       1.0  0.75000  0.37500  0.62500  1.0000
  Eu  Eu6       1.0  0.75000  0.87500  0.62500  1.0000
  Eu  Eu7       1.0  0.25000  0.12500  0.87500  1.0000
  Eu  Eu8       1.0  0.25000  0.62500  0.87500  1.0000
  Li  Li1       1.0  0.00000  0.75000  0.03360  1.0000
  Li  Li2       1.0  0.50000  0.46600  0.25000  1.0000
  Li  Li3       1.0  0.50000  0.96600  0.25000  1.0000
  Li  Li4       1.0  0.00000  0.25000  0.46600  1.0000
  Li  Li5       1.0  0.00000  0.75000  0.53400  1.0000
  Li  Li6       1.0  0.50000  0.03360  0.75000  1.0000
  Li  Li7       1.0  0.50000  0.53400  0.75000  1.0000
  Li  Li8       1.0  0.00000  0.25000  0.96600  1.0000
  P   P1        1.0  0.00000  0.25000  0.21600  1.0000
  P   P2        1.0  0.50000  0.21600  0.25000  1.0000
  P   P3        1.0  0.50000  0.71600  0.25000  1.0000
  P   P4        1.0  0.00000  0.75000  0.28400  1.0000
  P   P5        1.0  0.00000  0.25000  0.71600  1.0000
  P   P6        1.0  0.50000  0.28400  0.75000  1.0000
  P   P7        1.0  0.50000  0.78400  0.75000  1.0000
  P   P8        1.0  0.00000  0.75000  0.78400  1.0000
  S   S1        1.0  0.82800  0.66100  0.09680  1.0000
  S   S2        1.0  0.49500  0.11300  0.09680  1.0000
  S   S3        1.0  0.50500  0.61800  0.10200  1.0000
  S   S4        1.0  0.99500  0.09680  0.11300  1.0000
  S   S5        1.0  0.00499  0.40300  0.11800  1.0000
  S   S6        1.0  0.32800  0.73100  0.16100  1.0000
  S   S7        1.0  0.32800  0.23100  0.16700  1.0000
  S   S8        1.0  0.82800  0.16700  0.23100  1.0000
  S   S9        1.0  0.17200  0.83900  0.26900  1.0000
  S   S10       1.0  0.67200  0.40300  0.33300  1.0000
  S   S11       1.0  0.67200  0.90300  0.33900  1.0000
  S   S12       1.0  0.99500  0.89800  0.38200  1.0000
  S   S13       1.0  0.00499  0.60200  0.38700  1.0000
  S   S14       1.0  0.49500  0.61300  0.39800  1.0000
  S   S15       1.0  0.50500  0.11800  0.40300  1.0000
  S   S16       1.0  0.17200  0.33300  0.40300  1.0000
  S   S17       1.0  0.82800  0.66700  0.59700  1.0000
  S   S18       1.0  0.49500  0.88200  0.59700  1.0000
  S   S19       1.0  0.50500  0.38700  0.60200  1.0000
  S   S20       1.0  0.99500  0.39800  0.61300  1.0000
  S   S21       1.0  0.00499  0.10200  0.61800  1.0000
  S   S22       1.0  0.32800  0.09680  0.66100  1.0000
  S   S23       1.0  0.32800  0.59700  0.66700  1.0000
  S   S24       1.0  0.82800  0.16100  0.73100  1.0000
  S   S25       1.0  0.17200  0.83300  0.76900  1.0000
  S   S26       1.0  0.67200  0.76900  0.83300  1.0000
  S   S27       1.0  0.67200  0.26900  0.83900  1.0000
  S   S28       1.0  0.99500  0.59700  0.88200  1.0000
  S   S29       1.0  0.00499  0.90300  0.88700  1.0000
  S   S30       1.0  0.49500  0.38200  0.89800  1.0000
  S   S31       1.0  0.50500  0.88700  0.90300  1.0000
  S   S32       1.0  0.17200  0.33900  0.90300  1.0000
