data_image0
_chemical_formula_structural       Ca4H16N24O8
_chemical_formula_sum              "Ca4 H16 N24 O8"
_cell_length_a       11.26
_cell_length_b       5.90388
_cell_length_c       7.80033
_cell_angle_alpha    90
_cell_angle_beta     108.467
_cell_angle_gamma    90

_space_group_name_H-M_alt    "P 1"
_space_group_IT_number       1

loop_
  _space_group_symop_operation_xyz
  'x, y, z'

loop_
  _atom_site_type_symbol
  _atom_site_label
  _atom_site_symmetry_multiplicity
  _atom_site_fract_x
  _atom_site_fract_y
  _atom_site_fract_z
  _atom_site_occupancy
  Ca  Ca1       1.0  0.51300  0.74700  0.17900  1.0000
  Ca  Ca2       1.0  0.98700  0.24700  0.32100  1.0000
  Ca  Ca3       1.0  0.01270  0.75300  0.67900  1.0000
  Ca  Ca4       1.0  0.48700  0.25300  0.82100  1.0000
  H   H1        1.0  0.69700  0.98100  0.00567  1.0000
  H   H2        1.0  0.70400  0.45900  0.11400  1.0000
  H   H3        1.0  0.39100  0.20200  0.12300  1.0000
  H   H4        1.0  0.62900  0.29100  0.20500  1.0000
  H   H5        1.0  0.87100  0.79100  0.29500  1.0000
  H   H6        1.0  0.10900  0.70200  0.37700  1.0000
  H   H7        1.0  0.79600  0.95900  0.38600  1.0000
  H   H8        1.0  0.80300  0.48100  0.49400  1.0000
  H   H9        1.0  0.19700  0.51900  0.50600  1.0000
  H   H10       1.0  0.20400  0.04080  0.61400  1.0000
  H   H11       1.0  0.89100  0.29800  0.62300  1.0000
  H   H12       1.0  0.12900  0.20900  0.70500  1.0000
  H   H13       1.0  0.37100  0.70900  0.79500  1.0000
  H   H14       1.0  0.60900  0.79800  0.87700  1.0000
  H   H15       1.0  0.29600  0.54100  0.88600  1.0000
  H   H16       1.0  0.30300  0.01940  0.99400  1.0000
  N   N1        1.0  0.87100  0.60300  0.01160  1.0000
  N   N2        1.0  0.83600  0.11200  0.02120  1.0000
  N   N3        1.0  0.13200  0.90000  0.11000  1.0000
  N   N4        1.0  0.11000  0.37500  0.12600  1.0000
  N   N5        1.0  0.85100  0.57300  0.15200  1.0000
  N   N6        1.0  0.10000  0.91700  0.24000  1.0000
  N   N7        1.0  0.40000  0.41700  0.26000  1.0000
  N   N8        1.0  0.64900  0.07270  0.34800  1.0000
  N   N9        1.0  0.39000  0.87500  0.37400  1.0000
  N   N10       1.0  0.36800  0.40000  0.39000  1.0000
  N   N11       1.0  0.66400  0.61200  0.47900  1.0000
  N   N12       1.0  0.62900  0.10300  0.48800  1.0000
  N   N13       1.0  0.37100  0.89700  0.51200  1.0000
  N   N14       1.0  0.33600  0.38800  0.52100  1.0000
  N   N15       1.0  0.63200  0.60000  0.61000  1.0000
  N   N16       1.0  0.61000  0.12500  0.62600  1.0000
  N   N17       1.0  0.35100  0.92700  0.65200  1.0000
  N   N18       1.0  0.60000  0.58300  0.74000  1.0000
  N   N19       1.0  0.90000  0.08350  0.76000  1.0000
  N   N20       1.0  0.14900  0.42700  0.84800  1.0000
  N   N21       1.0  0.89000  0.62500  0.87400  1.0000
  N   N22       1.0  0.86800  0.10000  0.89000  1.0000
  N   N23       1.0  0.16400  0.88800  0.97900  1.0000
  N   N24       1.0  0.12900  0.39700  0.98800  1.0000
  O   O1        1.0  0.38900  0.08520  0.02650  1.0000
  O   O2        1.0  0.61700  0.41000  0.10700  1.0000
  O   O3        1.0  0.88300  0.91000  0.39300  1.0000
  O   O4        1.0  0.11100  0.58500  0.47300  1.0000
  O   O5        1.0  0.88900  0.41500  0.52700  1.0000
  O   O6        1.0  0.11700  0.09050  0.60700  1.0000
  O   O7        1.0  0.38300  0.59000  0.89300  1.0000
  O   O8        1.0  0.61100  0.91500  0.97300  1.0000
