data_image0
_chemical_formula_structural       Cu36Ga16
_chemical_formula_sum              "Cu36 Ga16"
_cell_length_a       8.75211
_cell_length_b       8.75211
_cell_length_c       8.75211
_cell_angle_alpha    90
_cell_angle_beta     90
_cell_angle_gamma    90

_space_group_name_H-M_alt    "P 1"
_space_group_IT_number       1

loop_
  _space_group_symop_operation_xyz
  'x, y, z'

loop_
  _atom_site_type_symbol
  _atom_site_label
  _atom_site_symmetry_multiplicity
  _atom_site_fract_x
  _atom_site_fract_y
  _atom_site_fract_z
  _atom_site_occupancy
  Cu  Cu1       1.0  0.35600  0.00000  0.00000  1.0000
  Cu  Cu2       1.0  0.64400  0.00000  0.00000  1.0000
  Cu  Cu3       1.0  0.00000  0.35600  0.00000  1.0000
  Cu  Cu4       1.0  0.00000  0.64400  0.00000  1.0000
  Cu  Cu5       1.0  0.31500  0.31500  0.03180  1.0000
  Cu  Cu6       1.0  0.68500  0.68500  0.03180  1.0000
  Cu  Cu7       1.0  0.50000  0.50000  0.14300  1.0000
  Cu  Cu8       1.0  0.82800  0.17200  0.17200  1.0000
  Cu  Cu9       1.0  0.17200  0.82800  0.17200  1.0000
  Cu  Cu10      1.0  0.31500  0.03180  0.31500  1.0000
  Cu  Cu11      1.0  0.03180  0.31500  0.31500  1.0000
  Cu  Cu12      1.0  0.96800  0.68500  0.31500  1.0000
  Cu  Cu13      1.0  0.68500  0.96800  0.31500  1.0000
  Cu  Cu14      1.0  0.32700  0.32700  0.32700  1.0000
  Cu  Cu15      1.0  0.67300  0.67300  0.32700  1.0000
  Cu  Cu16      1.0  0.00000  0.00000  0.35600  1.0000
  Cu  Cu17      1.0  0.60500  0.39500  0.39500  1.0000
  Cu  Cu18      1.0  0.39500  0.60500  0.39500  1.0000
  Cu  Cu19      1.0  0.50000  0.14300  0.50000  1.0000
  Cu  Cu20      1.0  0.14300  0.50000  0.50000  1.0000
  Cu  Cu21      1.0  0.85700  0.50000  0.50000  1.0000
  Cu  Cu22      1.0  0.50000  0.85700  0.50000  1.0000
  Cu  Cu23      1.0  0.39500  0.39500  0.60500  1.0000
  Cu  Cu24      1.0  0.60500  0.60500  0.60500  1.0000
  Cu  Cu25      1.0  0.00000  0.00000  0.64400  1.0000
  Cu  Cu26      1.0  0.67300  0.32700  0.67300  1.0000
  Cu  Cu27      1.0  0.32700  0.67300  0.67300  1.0000
  Cu  Cu28      1.0  0.68500  0.03180  0.68500  1.0000
  Cu  Cu29      1.0  0.96800  0.31500  0.68500  1.0000
  Cu  Cu30      1.0  0.03180  0.68500  0.68500  1.0000
  Cu  Cu31      1.0  0.31500  0.96800  0.68500  1.0000
  Cu  Cu32      1.0  0.17200  0.17200  0.82800  1.0000
  Cu  Cu33      1.0  0.82800  0.82800  0.82800  1.0000
  Cu  Cu34      1.0  0.50000  0.50000  0.85700  1.0000
  Cu  Cu35      1.0  0.68500  0.31500  0.96800  1.0000
  Cu  Cu36      1.0  0.31500  0.68500  0.96800  1.0000
  Ga  Ga1       1.0  0.12100  0.12100  0.12100  1.0000
  Ga  Ga2       1.0  0.87900  0.87900  0.12100  1.0000
  Ga  Ga3       1.0  0.53400  0.19100  0.19100  1.0000
  Ga  Ga4       1.0  0.80900  0.46600  0.19100  1.0000
  Ga  Ga5       1.0  0.19100  0.53400  0.19100  1.0000
  Ga  Ga6       1.0  0.46600  0.80900  0.19100  1.0000
  Ga  Ga7       1.0  0.80900  0.19100  0.46600  1.0000
  Ga  Ga8       1.0  0.19100  0.80900  0.46600  1.0000
  Ga  Ga9       1.0  0.19100  0.19100  0.53400  1.0000
  Ga  Ga10      1.0  0.80900  0.80900  0.53400  1.0000
  Ga  Ga11      1.0  0.46600  0.19100  0.80900  1.0000
  Ga  Ga12      1.0  0.19100  0.46600  0.80900  1.0000
  Ga  Ga13      1.0  0.80900  0.53400  0.80900  1.0000
  Ga  Ga14      1.0  0.53400  0.80900  0.80900  1.0000
  Ga  Ga15      1.0  0.87900  0.12100  0.87900  1.0000
  Ga  Ga16      1.0  0.12100  0.87900  0.87900  1.0000
