data_image0
_chemical_formula_structural       Ag4O4Pd4Te4
_chemical_formula_sum              "Ag4 O4 Pd4 Te4"
_cell_length_a       5.77511
_cell_length_b       7.25608
_cell_length_c       6.93524
_cell_angle_alpha    90
_cell_angle_beta     90
_cell_angle_gamma    90

_space_group_name_H-M_alt    "P 1"
_space_group_IT_number       1

loop_
  _space_group_symop_operation_xyz
  'x, y, z'

loop_
  _atom_site_type_symbol
  _atom_site_label
  _atom_site_symmetry_multiplicity
  _atom_site_fract_x
  _atom_site_fract_y
  _atom_site_fract_z
  _atom_site_occupancy
  Ag  Ag1       1.0  0.28700  0.69900  0.02270  1.0000
  Ag  Ag2       1.0  0.71300  0.19900  0.47700  1.0000
  Ag  Ag3       1.0  0.21300  0.30100  0.52300  1.0000
  Ag  Ag4       1.0  0.78700  0.80100  0.97700  1.0000
  O   O1        1.0  0.47600  0.19800  0.19400  1.0000
  O   O2        1.0  0.52400  0.69800  0.30600  1.0000
  O   O3        1.0  0.02440  0.80200  0.69400  1.0000
  O   O4        1.0  0.97600  0.30200  0.80600  1.0000
  Pd  Pd1       1.0  0.23000  0.28100  0.00399  1.0000
  Pd  Pd2       1.0  0.77000  0.78100  0.49600  1.0000
  Pd  Pd3       1.0  0.27000  0.71900  0.50400  1.0000
  Pd  Pd4       1.0  0.73000  0.21900  0.99600  1.0000
  Te  Te1       1.0  0.94300  0.49900  0.24600  1.0000
  Te  Te2       1.0  0.05750  0.99900  0.25400  1.0000
  Te  Te3       1.0  0.55700  0.50100  0.74600  1.0000
  Te  Te4       1.0  0.44300  0.00118  0.75400  1.0000
