data_image0
_chemical_formula_structural       H12Mg2O32S8
_chemical_formula_sum              "H12 Mg2 O32 S8"
_cell_length_a       4.95495
_cell_length_b       15.0525
_cell_length_c       7.53868
_cell_angle_alpha    90
_cell_angle_beta     104.402
_cell_angle_gamma    90

_space_group_name_H-M_alt    "P 1"
_space_group_IT_number       1

loop_
  _space_group_symop_operation_xyz
  'x, y, z'

loop_
  _atom_site_type_symbol
  _atom_site_label
  _atom_site_symmetry_multiplicity
  _atom_site_fract_x
  _atom_site_fract_y
  _atom_site_fract_z
  _atom_site_occupancy
  H   H1        1.0  0.27900  0.52800  0.08670  1.0000
  H   H2        1.0  0.55100  0.26200  0.14100  1.0000
  H   H3        1.0  0.82000  0.77100  0.19800  1.0000
  H   H4        1.0  0.18000  0.27100  0.30200  1.0000
  H   H5        1.0  0.44900  0.76200  0.35900  1.0000
  H   H6        1.0  0.72100  0.02790  0.41300  1.0000
  H   H7        1.0  0.27900  0.97200  0.58700  1.0000
  H   H8        1.0  0.55100  0.23800  0.64100  1.0000
  H   H9        1.0  0.82000  0.72900  0.69800  1.0000
  H   H10       1.0  0.18000  0.22900  0.80200  1.0000
  H   H11       1.0  0.44900  0.73800  0.85900  1.0000
  H   H12       1.0  0.72100  0.47200  0.91300  1.0000
  Mg  Mg1       1.0  0.00000  0.00000  0.00000  1.0000
  Mg  Mg2       1.0  0.00000  0.50000  0.50000  1.0000
  O   O1        1.0  0.27300  0.46000  0.07420  1.0000
  O   O2        1.0  0.67500  0.21500  0.09650  1.0000
  O   O3        1.0  0.70100  0.94200  0.09740  1.0000
  O   O4        1.0  0.29000  0.62700  0.12400  1.0000
  O   O5        1.0  0.94500  0.73700  0.12800  1.0000
  O   O6        1.0  0.03210  0.10600  0.17700  1.0000
  O   O7        1.0  0.28000  0.93400  0.20600  1.0000
  O   O8        1.0  0.36900  0.31900  0.21500  1.0000
  O   O9        1.0  0.63100  0.81900  0.28500  1.0000
  O   O10       1.0  0.72000  0.43400  0.29400  1.0000
  O   O11       1.0  0.96800  0.60600  0.32300  1.0000
  O   O12       1.0  0.05530  0.23700  0.37200  1.0000
  O   O13       1.0  0.71000  0.12700  0.37600  1.0000
  O   O14       1.0  0.29900  0.44200  0.40300  1.0000
  O   O15       1.0  0.32500  0.71500  0.40300  1.0000
  O   O16       1.0  0.72700  0.96000  0.42600  1.0000
  O   O17       1.0  0.27300  0.04040  0.57400  1.0000
  O   O18       1.0  0.67500  0.28500  0.59700  1.0000
  O   O19       1.0  0.70100  0.55800  0.59700  1.0000
  O   O20       1.0  0.29000  0.87300  0.62400  1.0000
  O   O21       1.0  0.94500  0.76300  0.62800  1.0000
  O   O22       1.0  0.03210  0.39400  0.67700  1.0000
  O   O23       1.0  0.28000  0.56600  0.70600  1.0000
  O   O24       1.0  0.36900  0.18100  0.71500  1.0000
  O   O25       1.0  0.63100  0.68100  0.78500  1.0000
  O   O26       1.0  0.72000  0.06570  0.79400  1.0000
  O   O27       1.0  0.96800  0.89400  0.82300  1.0000
  O   O28       1.0  0.05530  0.26300  0.87200  1.0000
  O   O29       1.0  0.71000  0.37300  0.87600  1.0000
  O   O30       1.0  0.29900  0.05770  0.90300  1.0000
  O   O31       1.0  0.32500  0.78500  0.90300  1.0000
  O   O32       1.0  0.72700  0.54000  0.92600  1.0000
  S   S1        1.0  0.13100  0.66600  0.24200  1.0000
  S   S2        1.0  0.57600  0.91500  0.24400  1.0000
  S   S3        1.0  0.42400  0.41500  0.25600  1.0000
  S   S4        1.0  0.86900  0.16600  0.25800  1.0000
  S   S5        1.0  0.13100  0.83400  0.74200  1.0000
  S   S6        1.0  0.57600  0.58500  0.74400  1.0000
  S   S7        1.0  0.42400  0.08530  0.75600  1.0000
  S   S8        1.0  0.86900  0.33400  0.75800  1.0000
