data_image0
_chemical_formula_structural       FGd13Ge6O31
_chemical_formula_sum              "F1 Gd13 Ge6 O31"
_cell_length_a       9.51538
_cell_length_b       9.68274
_cell_length_c       9.68274
_cell_angle_alpha    109.819
_cell_angle_beta     109.121
_cell_angle_gamma    109.121

_space_group_name_H-M_alt    "P 1"
_space_group_IT_number       1

loop_
  _space_group_symop_operation_xyz
  'x, y, z'

loop_
  _atom_site_type_symbol
  _atom_site_label
  _atom_site_symmetry_multiplicity
  _atom_site_fract_x
  _atom_site_fract_y
  _atom_site_fract_z
  _atom_site_occupancy
  F   F1        1.0  0.66900  0.00000  0.00000  1.0000
  Gd  Gd1       1.0  0.03430  0.00000  0.00000  1.0000
  Gd  Gd2       1.0  0.94400  0.66900  0.09880  1.0000
  Gd  Gd3       1.0  0.68000  0.84800  0.14700  1.0000
  Gd  Gd4       1.0  0.83200  0.29800  0.15200  1.0000
  Gd  Gd5       1.0  0.47100  0.14400  0.28700  1.0000
  Gd  Gd6       1.0  0.27500  0.43000  0.33100  1.0000
  Gd  Gd7       1.0  0.15600  0.09860  0.42900  1.0000
  Gd  Gd8       1.0  0.84600  0.90100  0.57000  1.0000
  Gd  Gd9       1.0  0.72700  0.57100  0.66900  1.0000
  Gd  Gd10      1.0  0.53300  0.85300  0.70200  1.0000
  Gd  Gd11      1.0  0.32700  0.14200  0.85600  1.0000
  Gd  Gd12      1.0  0.18500  0.71300  0.85800  1.0000
  Gd  Gd13      1.0  0.05750  0.33100  0.90100  1.0000
  Ge  Ge1       1.0  0.56000  0.48600  0.21200  1.0000
  Ge  Ge2       1.0  0.34800  0.78800  0.27400  1.0000
  Ge  Ge3       1.0  0.93100  0.27500  0.48800  1.0000
  Ge  Ge4       1.0  0.07430  0.72600  0.51400  1.0000
  Ge  Ge5       1.0  0.65600  0.21300  0.72500  1.0000
  Ge  Ge6       1.0  0.44300  0.51200  0.78700  1.0000
  O   O1        1.0  0.28800  0.00000  0.00000  1.0000
  O   O2        1.0  0.17700  0.61800  0.07300  1.0000
  O   O3        1.0  0.33800  0.40300  0.08440  1.0000
  O   O4        1.0  0.02080  0.25500  0.08530  1.0000
  O   O5        1.0  0.59700  0.33700  0.08630  1.0000
  O   O6        1.0  0.93600  0.91500  0.17000  1.0000
  O   O7        1.0  0.51100  0.91400  0.25000  1.0000
  O   O8        1.0  0.70200  0.69500  0.27800  1.0000
  O   O9        1.0  0.25400  0.18500  0.27800  1.0000
  O   O10       1.0  0.00750  0.58300  0.30500  1.0000
  O   O11       1.0  0.25400  0.91600  0.31900  1.0000
  O   O12       1.0  0.74700  0.25200  0.33600  1.0000
  O   O13       1.0  0.55900  0.45500  0.38200  1.0000
  O   O14       1.0  0.07080  0.32600  0.40600  1.0000
  O   O15       1.0  0.42500  0.72200  0.41700  1.0000
  O   O16       1.0  0.89800  0.06940  0.44800  1.0000
  O   O17       1.0  0.10400  0.92700  0.54500  1.0000
  O   O18       1.0  0.58400  0.28000  0.58300  1.0000
  O   O19       1.0  0.93500  0.68100  0.59700  1.0000
  O   O20       1.0  0.45000  0.55200  0.62200  1.0000
  O   O21       1.0  0.26100  0.75000  0.66300  1.0000
  O   O22       1.0  0.74500  0.07990  0.67400  1.0000
  O   O23       1.0  0.00029  0.41700  0.69700  1.0000
  O   O24       1.0  0.30400  0.30300  0.72000  1.0000
  O   O25       1.0  0.76600  0.83000  0.74500  1.0000
  O   O26       1.0  0.49500  0.08420  0.74800  1.0000
  O   O27       1.0  0.06890  0.09290  0.81500  1.0000
  O   O28       1.0  0.97600  0.72200  0.90700  1.0000
  O   O29       1.0  0.41100  0.66400  0.91600  1.0000
  O   O30       1.0  0.66500  0.59400  0.92000  1.0000
  O   O31       1.0  0.82800  0.37800  0.93100  1.0000
