data_image0
_chemical_formula_structural       Ba4Co8O32V8
_chemical_formula_sum              "Ba4 Co8 O32 V8"
_cell_length_a       8.36707
_cell_length_b       9.73575
_cell_length_c       9.73575
_cell_angle_alpha    100.641
_cell_angle_beta     64.5509
_cell_angle_gamma    115.449

_space_group_name_H-M_alt    "P 1"
_space_group_IT_number       1

loop_
  _space_group_symop_operation_xyz
  'x, y, z'

loop_
  _atom_site_type_symbol
  _atom_site_label
  _atom_site_symmetry_multiplicity
  _atom_site_fract_x
  _atom_site_fract_y
  _atom_site_fract_z
  _atom_site_occupancy
  Ba  Ba1       1.0  0.37500  0.75000  0.25000  1.0000
  Ba  Ba2       1.0  0.87500  0.75000  0.25000  1.0000
  Ba  Ba3       1.0  0.12500  0.25000  0.75000  1.0000
  Ba  Ba4       1.0  0.62500  0.25000  0.75000  1.0000
  Co  Co1       1.0  0.70700  0.25000  0.08660  1.0000
  Co  Co2       1.0  0.79300  0.08660  0.25000  1.0000
  Co  Co3       1.0  0.45700  0.41300  0.25000  1.0000
  Co  Co4       1.0  0.04330  0.25000  0.41300  1.0000
  Co  Co5       1.0  0.95700  0.75000  0.58700  1.0000
  Co  Co6       1.0  0.54300  0.58700  0.75000  1.0000
  Co  Co7       1.0  0.20700  0.91300  0.75000  1.0000
  Co  Co8       1.0  0.29300  0.75000  0.91300  1.0000
  O   O1        1.0  0.95800  0.26400  0.08290  1.0000
  O   O2        1.0  0.45900  0.23600  0.08290  1.0000
  O   O3        1.0  0.15100  0.59000  0.08560  1.0000
  O   O4        1.0  0.26400  0.91000  0.08560  1.0000
  O   O5        1.0  0.64600  0.58600  0.09010  1.0000
  O   O6        1.0  0.76400  0.91400  0.09010  1.0000
  O   O7        1.0  0.04080  0.08290  0.23600  1.0000
  O   O8        1.0  0.22400  0.41700  0.23600  1.0000
  O   O9        1.0  0.54200  0.08290  0.26400  1.0000
  O   O10       1.0  0.69400  0.41700  0.26400  1.0000
  O   O11       1.0  0.65100  0.91400  0.41000  1.0000
  O   O12       1.0  0.43900  0.58600  0.41000  1.0000
  O   O13       1.0  0.14600  0.91000  0.41400  1.0000
  O   O14       1.0  0.93900  0.59000  0.41400  1.0000
  O   O15       1.0  0.80600  0.26400  0.41700  1.0000
  O   O16       1.0  0.27600  0.23600  0.41700  1.0000
  O   O17       1.0  0.19400  0.73600  0.58300  1.0000
  O   O18       1.0  0.72400  0.76400  0.58300  1.0000
  O   O19       1.0  0.06060  0.41000  0.58600  1.0000
  O   O20       1.0  0.85400  0.09010  0.58600  1.0000
  O   O21       1.0  0.56100  0.41400  0.59000  1.0000
  O   O22       1.0  0.34900  0.08560  0.59000  1.0000
  O   O23       1.0  0.30600  0.58300  0.73600  1.0000
  O   O24       1.0  0.45800  0.91700  0.73600  1.0000
  O   O25       1.0  0.95900  0.91700  0.76400  1.0000
  O   O26       1.0  0.77600  0.58300  0.76400  1.0000
  O   O27       1.0  0.23600  0.08560  0.91000  1.0000
  O   O28       1.0  0.35400  0.41400  0.91000  1.0000
  O   O29       1.0  0.73600  0.09010  0.91400  1.0000
  O   O30       1.0  0.84900  0.41000  0.91400  1.0000
  O   O31       1.0  0.54100  0.76400  0.91700  1.0000
  O   O32       1.0  0.04210  0.73600  0.91700  1.0000
  V   V1        1.0  0.17000  0.42000  0.08000  1.0000
  V   V2        1.0  0.25000  0.08000  0.08000  1.0000
  V   V3        1.0  0.33000  0.08000  0.42000  1.0000
  V   V4        1.0  0.75000  0.42000  0.42000  1.0000
  V   V5        1.0  0.25000  0.58000  0.58000  1.0000
  V   V6        1.0  0.67000  0.92000  0.58000  1.0000
  V   V7        1.0  0.83000  0.58000  0.92000  1.0000
  V   V8        1.0  0.75000  0.92000  0.92000  1.0000
