data_image0
_chemical_formula_structural       K16Sn36
_chemical_formula_sum              "K16 Sn36"
_cell_length_a       14.4487
_cell_length_b       8.44445
_cell_length_c       16.6995
_cell_angle_alpha    90
_cell_angle_beta     94.9914
_cell_angle_gamma    90

_space_group_name_H-M_alt    "P 1"
_space_group_IT_number       1

loop_
  _space_group_symop_operation_xyz
  'x, y, z'

loop_
  _atom_site_type_symbol
  _atom_site_label
  _atom_site_symmetry_multiplicity
  _atom_site_fract_x
  _atom_site_fract_y
  _atom_site_fract_z
  _atom_site_occupancy
  K   K1        1.0  0.83700  0.06420  0.05220  1.0000
  K   K2        1.0  0.49100  0.94000  0.11600  1.0000
  K   K3        1.0  0.61200  0.47000  0.14300  1.0000
  K   K4        1.0  0.92500  0.43000  0.23800  1.0000
  K   K5        1.0  0.07510  0.93000  0.26200  1.0000
  K   K6        1.0  0.38800  0.97000  0.35700  1.0000
  K   K7        1.0  0.50900  0.44000  0.38400  1.0000
  K   K8        1.0  0.16300  0.56400  0.44800  1.0000
  K   K9        1.0  0.83700  0.43600  0.55200  1.0000
  K   K10       1.0  0.49100  0.56000  0.61600  1.0000
  K   K11       1.0  0.61200  0.02970  0.64300  1.0000
  K   K12       1.0  0.92500  0.07010  0.73800  1.0000
  K   K13       1.0  0.07510  0.57000  0.76200  1.0000
  K   K14       1.0  0.38800  0.53000  0.85700  1.0000
  K   K15       1.0  0.50900  0.06030  0.88400  1.0000
  K   K16       1.0  0.16300  0.93600  0.94800  1.0000
  Sn  Sn1       1.0  0.35500  0.26500  0.02530  1.0000
  Sn  Sn2       1.0  0.82600  0.56900  0.03080  1.0000
  Sn  Sn3       1.0  0.32800  0.60900  0.06900  1.0000
  Sn  Sn4       1.0  0.07430  0.25600  0.09210  1.0000
  Sn  Sn5       1.0  0.12300  0.60200  0.12100  1.0000
  Sn  Sn6       1.0  0.25300  0.07310  0.14300  1.0000
  Sn  Sn7       1.0  0.39000  0.32100  0.20200  1.0000
  Sn  Sn8       1.0  0.29200  0.62200  0.24200  1.0000
  Sn  Sn9       1.0  0.81900  0.82400  0.24700  1.0000
  Sn  Sn10      1.0  0.18100  0.32400  0.25300  1.0000
  Sn  Sn11      1.0  0.70800  0.12200  0.25800  1.0000
  Sn  Sn12      1.0  0.61000  0.82100  0.29800  1.0000
  Sn  Sn13      1.0  0.74700  0.57300  0.35700  1.0000
  Sn  Sn14      1.0  0.87700  0.10200  0.37900  1.0000
  Sn  Sn15      1.0  0.92600  0.75600  0.40800  1.0000
  Sn  Sn16      1.0  0.67200  0.10900  0.43100  1.0000
  Sn  Sn17      1.0  0.17400  0.06880  0.46900  1.0000
  Sn  Sn18      1.0  0.64500  0.76500  0.47500  1.0000
  Sn  Sn19      1.0  0.35500  0.23500  0.52500  1.0000
  Sn  Sn20      1.0  0.82600  0.93100  0.53100  1.0000
  Sn  Sn21      1.0  0.32800  0.89100  0.56900  1.0000
  Sn  Sn22      1.0  0.07430  0.24400  0.59200  1.0000
  Sn  Sn23      1.0  0.12300  0.89800  0.62100  1.0000
  Sn  Sn24      1.0  0.25300  0.42700  0.64300  1.0000
  Sn  Sn25      1.0  0.39000  0.17900  0.70200  1.0000
  Sn  Sn26      1.0  0.29200  0.87800  0.74200  1.0000
  Sn  Sn27      1.0  0.81900  0.67600  0.74700  1.0000
  Sn  Sn28      1.0  0.18100  0.17600  0.75300  1.0000
  Sn  Sn29      1.0  0.70800  0.37800  0.75800  1.0000
  Sn  Sn30      1.0  0.61000  0.67900  0.79800  1.0000
  Sn  Sn31      1.0  0.74700  0.92700  0.85700  1.0000
  Sn  Sn32      1.0  0.87700  0.39800  0.87900  1.0000
  Sn  Sn33      1.0  0.92600  0.74400  0.90800  1.0000
  Sn  Sn34      1.0  0.67200  0.39100  0.93100  1.0000
  Sn  Sn35      1.0  0.17400  0.43100  0.96900  1.0000
  Sn  Sn36      1.0  0.64500  0.73500  0.97500  1.0000
