data_image0
_chemical_formula_structural       Al2Ce6Ge10O32
_chemical_formula_sum              "Al2 Ce6 Ge10 O32"
_cell_length_a       4.81905
_cell_length_b       8.05535
_cell_length_c       15.6303
_cell_angle_alpha    90.3599
_cell_angle_beta     93.9128
_cell_angle_gamma    90.0013

_space_group_name_H-M_alt    "P 1"
_space_group_IT_number       1

loop_
  _space_group_symop_operation_xyz
  'x, y, z'

loop_
  _atom_site_type_symbol
  _atom_site_label
  _atom_site_symmetry_multiplicity
  _atom_site_fract_x
  _atom_site_fract_y
  _atom_site_fract_z
  _atom_site_occupancy
  Al  Al1       1.0  0.00664  0.56600  0.24500  1.0000
  Al  Al2       1.0  0.99300  0.43400  0.75500  1.0000
  Ce  Ce1       1.0  0.01950  0.73700  0.03680  1.0000
  Ce  Ce2       1.0  0.01750  0.14500  0.24800  1.0000
  Ce  Ce3       1.0  0.01840  0.73600  0.45600  1.0000
  Ce  Ce4       1.0  0.98200  0.26400  0.54400  1.0000
  Ce  Ce5       1.0  0.98200  0.85500  0.75200  1.0000
  Ce  Ce6       1.0  0.98100  0.26300  0.96300  1.0000
  Ge  Ge1       1.0  0.48100  0.05740  0.08710  1.0000
  Ge  Ge2       1.0  0.48300  0.44200  0.12800  1.0000
  Ge  Ge3       1.0  0.49100  0.80400  0.25500  1.0000
  Ge  Ge4       1.0  0.54300  0.43700  0.36200  1.0000
  Ge  Ge5       1.0  0.51700  0.05570  0.41400  1.0000
  Ge  Ge6       1.0  0.48300  0.94400  0.58600  1.0000
  Ge  Ge7       1.0  0.45700  0.56300  0.63800  1.0000
  Ge  Ge8       1.0  0.50900  0.19600  0.74500  1.0000
  Ge  Ge9       1.0  0.51700  0.55800  0.87200  1.0000
  Ge  Ge10      1.0  0.51900  0.94300  0.91300  1.0000
  O   O1        1.0  0.53700  0.86100  0.03240  1.0000
  O   O2        1.0  0.25400  0.47700  0.03830  1.0000
  O   O3        1.0  0.11700  0.06370  0.09470  1.0000
  O   O4        1.0  0.67700  0.25100  0.11300  1.0000
  O   O5        1.0  0.74600  0.59200  0.14900  1.0000
  O   O6        1.0  0.21400  0.72700  0.18900  1.0000
  O   O7        1.0  0.61300  0.98100  0.19600  1.0000
  O   O8        1.0  0.24100  0.39500  0.20500  1.0000
  O   O9        1.0  0.78500  0.39500  0.28400  1.0000
  O   O10       1.0  0.79500  0.72400  0.30700  1.0000
  O   O11       1.0  0.31500  0.93400  0.33000  1.0000
  O   O12       1.0  0.27700  0.58800  0.34300  1.0000
  O   O13       1.0  0.35600  0.24500  0.36600  1.0000
  O   O14       1.0  0.87700  0.07500  0.40400  1.0000
  O   O15       1.0  0.75600  0.47700  0.45500  1.0000
  O   O16       1.0  0.53000  0.85300  0.47800  1.0000
  O   O17       1.0  0.47000  0.14700  0.52200  1.0000
  O   O18       1.0  0.24400  0.52300  0.54500  1.0000
  O   O19       1.0  0.12300  0.92500  0.59600  1.0000
  O   O20       1.0  0.64400  0.75500  0.63400  1.0000
  O   O21       1.0  0.72300  0.41200  0.65700  1.0000
  O   O22       1.0  0.68500  0.06560  0.67000  1.0000
  O   O23       1.0  0.20500  0.27600  0.69300  1.0000
  O   O24       1.0  0.21500  0.60500  0.71600  1.0000
  O   O25       1.0  0.75900  0.60500  0.79500  1.0000
  O   O26       1.0  0.38700  0.01870  0.80400  1.0000
  O   O27       1.0  0.78600  0.27300  0.81100  1.0000
  O   O28       1.0  0.25400  0.40800  0.85100  1.0000
  O   O29       1.0  0.32300  0.74900  0.88700  1.0000
  O   O30       1.0  0.88300  0.93600  0.90500  1.0000
  O   O31       1.0  0.74600  0.52300  0.96200  1.0000
  O   O32       1.0  0.46300  0.13900  0.96800  1.0000
