data_image0
_chemical_formula_structural       Mg5Pt10Si16
_chemical_formula_sum              "Mg5 Pt10 Si16"
_cell_length_a       8.96492
_cell_length_b       8.96492
_cell_length_c       8.96492
_cell_angle_alpha    120
_cell_angle_beta     90
_cell_angle_gamma    120

_space_group_name_H-M_alt    "P 1"
_space_group_IT_number       1

loop_
  _space_group_symop_operation_xyz
  'x, y, z'

loop_
  _atom_site_type_symbol
  _atom_site_label
  _atom_site_symmetry_multiplicity
  _atom_site_fract_x
  _atom_site_fract_y
  _atom_site_fract_z
  _atom_site_occupancy
  Mg  Mg1       1.0  0.00000  0.00000  0.00000  1.0000
  Mg  Mg2       1.0  0.03180  0.68800  0.34400  1.0000
  Mg  Mg3       1.0  0.65600  0.68800  0.34400  1.0000
  Mg  Mg4       1.0  0.65600  0.31200  0.34400  1.0000
  Mg  Mg5       1.0  0.65600  0.31200  0.96800  1.0000
  Pt  Pt1       1.0  0.87300  0.74600  0.12700  1.0000
  Pt  Pt2       1.0  0.38100  0.25400  0.12700  1.0000
  Pt  Pt3       1.0  0.87300  0.25400  0.12700  1.0000
  Pt  Pt4       1.0  0.26800  0.00000  0.26800  1.0000
  Pt  Pt5       1.0  0.26800  0.53600  0.26800  1.0000
  Pt  Pt6       1.0  0.73200  0.00000  0.26800  1.0000
  Pt  Pt7       1.0  0.87300  0.74600  0.61900  1.0000
  Pt  Pt8       1.0  0.26800  0.00000  0.73200  1.0000
  Pt  Pt9       1.0  0.73200  0.46400  0.73200  1.0000
  Pt  Pt10      1.0  0.73200  0.00000  0.73200  1.0000
  Si  Si1       1.0  0.42700  0.85500  0.28200  1.0000
  Si  Si2       1.0  0.04430  0.08870  0.41200  1.0000
  Si  Si3       1.0  0.04430  0.36700  0.41200  1.0000
  Si  Si4       1.0  0.32300  0.36700  0.41200  1.0000
  Si  Si5       1.0  0.42700  0.85500  0.57300  1.0000
  Si  Si6       1.0  0.42700  0.14500  0.57300  1.0000
  Si  Si7       1.0  0.71800  0.14500  0.57300  1.0000
  Si  Si8       1.0  0.04430  0.63300  0.67700  1.0000
  Si  Si9       1.0  0.58800  0.63300  0.67700  1.0000
  Si  Si10      1.0  0.04430  0.08870  0.67700  1.0000
  Si  Si11      1.0  0.32300  0.91100  0.95600  1.0000
  Si  Si12      1.0  0.58800  0.91100  0.95600  1.0000
  Si  Si13      1.0  0.04430  0.36700  0.95600  1.0000
  Si  Si14      1.0  0.32300  0.36700  0.95600  1.0000
  Si  Si15      1.0  0.04430  0.63300  0.95600  1.0000
  Si  Si16      1.0  0.58800  0.63300  0.95600  1.0000
