data_image0
_chemical_formula_structural       B16Cu2Ho4O32
_chemical_formula_sum              "B16 Cu2 Ho4 O32"
_cell_length_a       8.40881
_cell_length_b       6.0814
_cell_length_c       10.1965
_cell_angle_alpha    90
_cell_angle_beta     90
_cell_angle_gamma    90

_space_group_name_H-M_alt    "P 1"
_space_group_IT_number       1

loop_
  _space_group_symop_operation_xyz
  'x, y, z'

loop_
  _atom_site_type_symbol
  _atom_site_label
  _atom_site_symmetry_multiplicity
  _atom_site_fract_x
  _atom_site_fract_y
  _atom_site_fract_z
  _atom_site_occupancy
  B   B1        1.0  0.68400  0.11600  0.00000  1.0000
  B   B2        1.0  0.18400  0.38400  0.00000  1.0000
  B   B3        1.0  0.81600  0.61600  0.00000  1.0000
  B   B4        1.0  0.31600  0.88400  0.00000  1.0000
  B   B5        1.0  0.50000  0.00000  0.19400  1.0000
  B   B6        1.0  0.00000  0.50000  0.19400  1.0000
  B   B7        1.0  0.30700  0.12100  0.37800  1.0000
  B   B8        1.0  0.80700  0.37900  0.37800  1.0000
  B   B9        1.0  0.19300  0.62100  0.37800  1.0000
  B   B10       1.0  0.69300  0.87900  0.37800  1.0000
  B   B11       1.0  0.30700  0.12100  0.62200  1.0000
  B   B12       1.0  0.80700  0.37900  0.62200  1.0000
  B   B13       1.0  0.19300  0.62100  0.62200  1.0000
  B   B14       1.0  0.69300  0.87900  0.62200  1.0000
  B   B15       1.0  0.50000  0.00000  0.80600  1.0000
  B   B16       1.0  0.00000  0.50000  0.80600  1.0000
  Cu  Cu1       1.0  0.00000  0.00000  0.50000  1.0000
  Cu  Cu2       1.0  0.50000  0.50000  0.50000  1.0000
  Ho  Ho1       1.0  0.00000  0.00000  0.18200  1.0000
  Ho  Ho2       1.0  0.50000  0.50000  0.18200  1.0000
  Ho  Ho3       1.0  0.00000  0.00000  0.81800  1.0000
  Ho  Ho4       1.0  0.50000  0.50000  0.81800  1.0000
  O   O1        1.0  0.84000  0.06480  0.00000  1.0000
  O   O2        1.0  0.34000  0.43500  0.00000  1.0000
  O   O3        1.0  0.66000  0.56500  0.00000  1.0000
  O   O4        1.0  0.16000  0.93500  0.00000  1.0000
  O   O5        1.0  0.60100  0.15000  0.11600  1.0000
  O   O6        1.0  0.10100  0.35000  0.11600  1.0000
  O   O7        1.0  0.89900  0.65000  0.11600  1.0000
  O   O8        1.0  0.39900  0.85000  0.11600  1.0000
  O   O9        1.0  0.40600  0.15600  0.27000  1.0000
  O   O10       1.0  0.90600  0.34400  0.27000  1.0000
  O   O11       1.0  0.09440  0.65600  0.27000  1.0000
  O   O12       1.0  0.59400  0.84400  0.27000  1.0000
  O   O13       1.0  0.15400  0.06530  0.36100  1.0000
  O   O14       1.0  0.65400  0.43500  0.36100  1.0000
  O   O15       1.0  0.34600  0.56500  0.36100  1.0000
  O   O16       1.0  0.84600  0.93500  0.36100  1.0000
  O   O17       1.0  0.37600  0.15100  0.50000  1.0000
  O   O18       1.0  0.87600  0.34900  0.50000  1.0000
  O   O19       1.0  0.12400  0.65100  0.50000  1.0000
  O   O20       1.0  0.62400  0.84900  0.50000  1.0000
  O   O21       1.0  0.15400  0.06530  0.63900  1.0000
  O   O22       1.0  0.65400  0.43500  0.63900  1.0000
  O   O23       1.0  0.34600  0.56500  0.63900  1.0000
  O   O24       1.0  0.84600  0.93500  0.63900  1.0000
  O   O25       1.0  0.40600  0.15600  0.73000  1.0000
  O   O26       1.0  0.90600  0.34400  0.73000  1.0000
  O   O27       1.0  0.09440  0.65600  0.73000  1.0000
  O   O28       1.0  0.59400  0.84400  0.73000  1.0000
  O   O29       1.0  0.60100  0.15000  0.88400  1.0000
  O   O30       1.0  0.10100  0.35000  0.88400  1.0000
  O   O31       1.0  0.89900  0.65000  0.88400  1.0000
  O   O32       1.0  0.39900  0.85000  0.88400  1.0000
