data_image0
_chemical_formula_structural       Mo8O36Sb4Tb4
_chemical_formula_sum              "Mo8 O36 Sb4 Tb4"
_cell_length_a       9.51428
_cell_length_b       9.51428
_cell_length_c       10.6555
_cell_angle_alpha    112.279
_cell_angle_beta     112.279
_cell_angle_gamma    94.56

_space_group_name_H-M_alt    "P 1"
_space_group_IT_number       1

loop_
  _space_group_symop_operation_xyz
  'x, y, z'

loop_
  _atom_site_type_symbol
  _atom_site_label
  _atom_site_symmetry_multiplicity
  _atom_site_fract_x
  _atom_site_fract_y
  _atom_site_fract_z
  _atom_site_occupancy
  Mo  Mo1       1.0  0.04820  0.26200  0.03180  1.0000
  Mo  Mo2       1.0  0.43500  0.06100  0.19800  1.0000
  Mo  Mo3       1.0  0.93900  0.56500  0.30200  1.0000
  Mo  Mo4       1.0  0.73800  0.95200  0.46800  1.0000
  Mo  Mo5       1.0  0.26200  0.04820  0.53200  1.0000
  Mo  Mo6       1.0  0.06100  0.43500  0.69800  1.0000
  Mo  Mo7       1.0  0.56500  0.93900  0.80200  1.0000
  Mo  Mo8       1.0  0.95200  0.73800  0.96800  1.0000
  O   O1        1.0  0.30500  0.97700  0.00328  1.0000
  O   O2        1.0  0.13400  0.69900  0.05960  1.0000
  O   O3        1.0  0.22600  0.40100  0.07680  1.0000
  O   O4        1.0  0.93900  0.90800  0.10100  1.0000
  O   O5        1.0  0.46100  0.57600  0.10300  1.0000
  O   O6        1.0  0.05290  0.22600  0.18600  1.0000
  O   O7        1.0  0.79000  0.64300  0.20000  1.0000
  O   O8        1.0  0.62100  0.15400  0.23100  1.0000
  O   O9        1.0  0.09150  0.54700  0.24300  1.0000
  O   O10       1.0  0.45300  0.90800  0.25700  1.0000
  O   O11       1.0  0.84600  0.37900  0.26900  1.0000
  O   O12       1.0  0.35700  0.21000  0.30000  1.0000
  O   O13       1.0  0.77400  0.94700  0.31400  1.0000
  O   O14       1.0  0.42400  0.53900  0.39700  1.0000
  O   O15       1.0  0.09190  0.06100  0.39900  1.0000
  O   O16       1.0  0.59900  0.77400  0.42300  1.0000
  O   O17       1.0  0.30100  0.86600  0.44000  1.0000
  O   O18       1.0  0.02320  0.69500  0.49700  1.0000
  O   O19       1.0  0.97700  0.30500  0.50300  1.0000
  O   O20       1.0  0.69900  0.13400  0.56000  1.0000
  O   O21       1.0  0.40100  0.22600  0.57700  1.0000
  O   O22       1.0  0.90800  0.93900  0.60100  1.0000
  O   O23       1.0  0.57600  0.46100  0.60300  1.0000
  O   O24       1.0  0.22600  0.05290  0.68600  1.0000
  O   O25       1.0  0.64300  0.79000  0.70000  1.0000
  O   O26       1.0  0.15400  0.62100  0.73100  1.0000
  O   O27       1.0  0.54700  0.09150  0.74300  1.0000
  O   O28       1.0  0.90800  0.45300  0.75700  1.0000
  O   O29       1.0  0.37900  0.84600  0.76900  1.0000
  O   O30       1.0  0.21000  0.35700  0.80000  1.0000
  O   O31       1.0  0.94700  0.77400  0.81400  1.0000
  O   O32       1.0  0.53900  0.42400  0.89700  1.0000
  O   O33       1.0  0.06100  0.09190  0.89900  1.0000
  O   O34       1.0  0.77400  0.59900  0.92300  1.0000
  O   O35       1.0  0.86600  0.30100  0.94000  1.0000
  O   O36       1.0  0.69500  0.02320  0.99700  1.0000
  Sb  Sb1       1.0  0.61100  0.65800  0.03150  1.0000
  Sb  Sb2       1.0  0.34200  0.38900  0.46800  1.0000
  Sb  Sb3       1.0  0.65800  0.61100  0.53200  1.0000
  Sb  Sb4       1.0  0.38900  0.34200  0.96800  1.0000
  Tb  Tb1       1.0  0.87400  0.12600  0.25000  1.0000
  Tb  Tb2       1.0  0.32900  0.67100  0.25000  1.0000
  Tb  Tb3       1.0  0.67100  0.32900  0.75000  1.0000
  Tb  Tb4       1.0  0.12600  0.87400  0.75000  1.0000
