data_image0
_chemical_formula_structural       Ba2Cu8O34P8V2
_chemical_formula_sum              "Ba2 Cu8 O34 P8 V2"
_cell_length_a       9.53594
_cell_length_b       9.53594
_cell_length_c       7.09615
_cell_angle_alpha    90
_cell_angle_beta     90
_cell_angle_gamma    90

_space_group_name_H-M_alt    "P 1"
_space_group_IT_number       1

loop_
  _space_group_symop_operation_xyz
  'x, y, z'

loop_
  _atom_site_type_symbol
  _atom_site_label
  _atom_site_symmetry_multiplicity
  _atom_site_fract_x
  _atom_site_fract_y
  _atom_site_fract_z
  _atom_site_occupancy
  Ba  Ba1       1.0  0.00000  0.00000  0.00000  1.0000
  Ba  Ba2       1.0  0.50000  0.50000  0.00000  1.0000
  Cu  Cu1       1.0  0.73300  0.01530  0.40300  1.0000
  Cu  Cu2       1.0  0.48500  0.23300  0.40300  1.0000
  Cu  Cu3       1.0  0.51500  0.76700  0.40300  1.0000
  Cu  Cu4       1.0  0.26700  0.98500  0.40300  1.0000
  Cu  Cu5       1.0  0.98500  0.26700  0.59700  1.0000
  Cu  Cu6       1.0  0.23300  0.48500  0.59700  1.0000
  Cu  Cu7       1.0  0.76700  0.51500  0.59700  1.0000
  Cu  Cu8       1.0  0.01530  0.73300  0.59700  1.0000
  O   O1        1.0  0.09940  0.32900  0.09050  1.0000
  O   O2        1.0  0.82900  0.40100  0.09050  1.0000
  O   O3        1.0  0.17100  0.59900  0.09050  1.0000
  O   O4        1.0  0.90100  0.67100  0.09050  1.0000
  O   O5        1.0  0.50000  0.00000  0.22200  1.0000
  O   O6        1.0  0.81700  0.15600  0.23900  1.0000
  O   O7        1.0  0.34400  0.31700  0.23900  1.0000
  O   O8        1.0  0.65600  0.68300  0.23900  1.0000
  O   O9        1.0  0.18300  0.84400  0.23900  1.0000
  O   O10       1.0  0.15800  0.12000  0.27100  1.0000
  O   O11       1.0  0.62000  0.34200  0.27100  1.0000
  O   O12       1.0  0.38000  0.65800  0.27100  1.0000
  O   O13       1.0  0.84200  0.88000  0.27100  1.0000
  O   O14       1.0  0.13300  0.34900  0.44500  1.0000
  O   O15       1.0  0.84900  0.36700  0.44500  1.0000
  O   O16       1.0  0.15100  0.63300  0.44500  1.0000
  O   O17       1.0  0.86700  0.65100  0.44500  1.0000
  O   O18       1.0  0.34900  0.13300  0.55500  1.0000
  O   O19       1.0  0.63300  0.15100  0.55500  1.0000
  O   O20       1.0  0.36700  0.84900  0.55500  1.0000
  O   O21       1.0  0.65100  0.86700  0.55500  1.0000
  O   O22       1.0  0.12000  0.15800  0.72900  1.0000
  O   O23       1.0  0.65800  0.38000  0.72900  1.0000
  O   O24       1.0  0.34200  0.62000  0.72900  1.0000
  O   O25       1.0  0.88000  0.84200  0.72900  1.0000
  O   O26       1.0  0.84400  0.18300  0.76100  1.0000
  O   O27       1.0  0.31700  0.34400  0.76100  1.0000
  O   O28       1.0  0.68300  0.65600  0.76100  1.0000
  O   O29       1.0  0.15600  0.81700  0.76100  1.0000
  O   O30       1.0  0.00000  0.50000  0.77800  1.0000
  O   O31       1.0  0.32900  0.09940  0.91000  1.0000
  O   O32       1.0  0.59900  0.17100  0.91000  1.0000
  O   O33       1.0  0.40100  0.82900  0.91000  1.0000
  O   O34       1.0  0.67100  0.90100  0.91000  1.0000
  P   P1        1.0  0.18800  0.27900  0.25900  1.0000
  P   P2        1.0  0.77900  0.31200  0.25900  1.0000
  P   P3        1.0  0.22100  0.68800  0.25900  1.0000
  P   P4        1.0  0.81200  0.72100  0.25900  1.0000
  P   P5        1.0  0.27900  0.18800  0.74100  1.0000
  P   P6        1.0  0.68800  0.22100  0.74100  1.0000
  P   P7        1.0  0.31200  0.77900  0.74100  1.0000
  P   P8        1.0  0.72100  0.81200  0.74100  1.0000
  V   V1        1.0  0.00000  0.50000  0.01510  1.0000
  V   V2        1.0  0.50000  0.00000  0.98500  1.0000
