data_image0
_chemical_formula_structural       P16S12
_chemical_formula_sum              "P16 S12"
_cell_length_a       11.2559
_cell_length_b       10.1385
_cell_length_c       6.64181
_cell_angle_alpha    90
_cell_angle_beta     90
_cell_angle_gamma    90

_space_group_name_H-M_alt    "P 1"
_space_group_IT_number       1

loop_
  _space_group_symop_operation_xyz
  'x, y, z'

loop_
  _atom_site_type_symbol
  _atom_site_label
  _atom_site_symmetry_multiplicity
  _atom_site_fract_x
  _atom_site_fract_y
  _atom_site_fract_z
  _atom_site_occupancy
  P   P1        1.0  0.57500  0.25000  0.10400  1.0000
  P   P2        1.0  0.66900  0.75000  0.17300  1.0000
  P   P3        1.0  0.93000  0.13900  0.23700  1.0000
  P   P4        1.0  0.93000  0.36100  0.23700  1.0000
  P   P5        1.0  0.43000  0.13900  0.26300  1.0000
  P   P6        1.0  0.43000  0.36100  0.26300  1.0000
  P   P7        1.0  0.16900  0.75000  0.32700  1.0000
  P   P8        1.0  0.07530  0.25000  0.39600  1.0000
  P   P9        1.0  0.92500  0.75000  0.60400  1.0000
  P   P10       1.0  0.83100  0.25000  0.67300  1.0000
  P   P11       1.0  0.57000  0.63900  0.73700  1.0000
  P   P12       1.0  0.57000  0.86100  0.73700  1.0000
  P   P13       1.0  0.07040  0.63900  0.76300  1.0000
  P   P14       1.0  0.07040  0.86100  0.76300  1.0000
  P   P15       1.0  0.33100  0.25000  0.82700  1.0000
  P   P16       1.0  0.42500  0.75000  0.89600  1.0000
  S   S1        1.0  0.31000  0.09060  0.03000  1.0000
  S   S2        1.0  0.31000  0.40900  0.03000  1.0000
  S   S3        1.0  0.48100  0.75000  0.19800  1.0000
  S   S4        1.0  0.98100  0.75000  0.30200  1.0000
  S   S5        1.0  0.81000  0.09060  0.47000  1.0000
  S   S6        1.0  0.81000  0.40900  0.47000  1.0000
  S   S7        1.0  0.19000  0.59100  0.53000  1.0000
  S   S8        1.0  0.19000  0.90900  0.53000  1.0000
  S   S9        1.0  0.01920  0.25000  0.69800  1.0000
  S   S10       1.0  0.51900  0.25000  0.80200  1.0000
  S   S11       1.0  0.69000  0.59100  0.97000  1.0000
  S   S12       1.0  0.69000  0.90900  0.97000  1.0000
