data_image0
_chemical_formula_structural       Na8O32P8Th4
_chemical_formula_sum              "Na8 O32 P8 Th4"
_cell_length_a       7.00842
_cell_length_b       9.02452
_cell_length_c       11.3354
_cell_angle_alpha    96.4379
_cell_angle_beta     71.9926
_cell_angle_gamma    111.266

_space_group_name_H-M_alt    "P 1"
_space_group_IT_number       1

loop_
  _space_group_symop_operation_xyz
  'x, y, z'

loop_
  _atom_site_type_symbol
  _atom_site_label
  _atom_site_symmetry_multiplicity
  _atom_site_fract_x
  _atom_site_fract_y
  _atom_site_fract_z
  _atom_site_occupancy
  Na  Na1       1.0  0.31700  0.51600  0.12400  1.0000
  Na  Na2       1.0  0.55900  0.98400  0.12400  1.0000
  Na  Na3       1.0  0.70700  0.05010  0.37500  1.0000
  Na  Na4       1.0  0.91700  0.45000  0.37500  1.0000
  Na  Na5       1.0  0.08300  0.55000  0.62500  1.0000
  Na  Na6       1.0  0.29300  0.95000  0.62500  1.0000
  Na  Na7       1.0  0.44100  0.01560  0.87600  1.0000
  Na  Na8       1.0  0.68300  0.48400  0.87600  1.0000
  O   O1        1.0  0.20200  0.23800  0.01910  1.0000
  O   O2        1.0  0.77900  0.26200  0.01910  1.0000
  O   O3        1.0  0.24700  0.01210  0.10900  1.0000
  O   O4        1.0  0.64400  0.48800  0.10900  1.0000
  O   O5        1.0  0.88400  0.01970  0.15900  1.0000
  O   O6        1.0  0.95700  0.48000  0.15900  1.0000
  O   O7        1.0  0.14900  0.23700  0.24600  1.0000
  O   O8        1.0  0.60500  0.26300  0.24600  1.0000
  O   O9        1.0  0.17000  0.74900  0.26000  1.0000
  O   O10       1.0  0.57000  0.75100  0.26000  1.0000
  O   O11       1.0  0.28000  0.50800  0.37900  1.0000
  O   O12       1.0  0.34100  0.99200  0.37900  1.0000
  O   O13       1.0  0.66200  0.58800  0.38600  1.0000
  O   O14       1.0  0.95200  0.91200  0.38600  1.0000
  O   O15       1.0  0.05790  0.74600  0.49500  1.0000
  O   O16       1.0  0.44700  0.75400  0.49500  1.0000
  O   O17       1.0  0.55300  0.24600  0.50500  1.0000
  O   O18       1.0  0.94200  0.25400  0.50500  1.0000
  O   O19       1.0  0.04800  0.08760  0.61400  1.0000
  O   O20       1.0  0.33800  0.41200  0.61400  1.0000
  O   O21       1.0  0.65900  0.00812  0.62100  1.0000
  O   O22       1.0  0.72000  0.49200  0.62100  1.0000
  O   O23       1.0  0.43000  0.24900  0.74000  1.0000
  O   O24       1.0  0.83000  0.25100  0.74000  1.0000
  O   O25       1.0  0.39500  0.73700  0.75400  1.0000
  O   O26       1.0  0.85100  0.76300  0.75400  1.0000
  O   O27       1.0  0.04270  0.52000  0.84100  1.0000
  O   O28       1.0  0.11600  0.98000  0.84100  1.0000
  O   O29       1.0  0.35600  0.51200  0.89100  1.0000
  O   O30       1.0  0.75300  0.98800  0.89100  1.0000
  O   O31       1.0  0.22100  0.73800  0.98100  1.0000
  O   O32       1.0  0.79800  0.76200  0.98100  1.0000
  P   P1        1.0  0.12200  0.12800  0.13200  1.0000
  P   P2        1.0  0.74600  0.37200  0.13200  1.0000
  P   P3        1.0  0.48500  0.65100  0.37700  1.0000
  P   P4        1.0  0.13800  0.84900  0.37700  1.0000
  P   P5        1.0  0.86200  0.15100  0.62300  1.0000
  P   P6        1.0  0.51500  0.34900  0.62300  1.0000
  P   P7        1.0  0.25400  0.62800  0.86800  1.0000
  P   P8        1.0  0.87800  0.87200  0.86800  1.0000
  Th  Th1       1.0  0.92600  0.75000  0.14800  1.0000
  Th  Th2       1.0  0.29600  0.25000  0.40800  1.0000
  Th  Th3       1.0  0.70400  0.75000  0.59200  1.0000
  Th  Th4       1.0  0.07410  0.25000  0.85200  1.0000
