data_image0
_chemical_formula_structural       In16K16Sb24
_chemical_formula_sum              "In16 K16 Sb24"
_cell_length_a       15.5618
_cell_length_b       7.71791
_cell_length_c       17.0851
_cell_angle_alpha    90
_cell_angle_beta     90.4059
_cell_angle_gamma    90

_space_group_name_H-M_alt    "P 1"
_space_group_IT_number       1

loop_
  _space_group_symop_operation_xyz
  'x, y, z'

loop_
  _atom_site_type_symbol
  _atom_site_label
  _atom_site_symmetry_multiplicity
  _atom_site_fract_x
  _atom_site_fract_y
  _atom_site_fract_z
  _atom_site_occupancy
  In  In1       1.0  0.31700  0.22000  0.16500  1.0000
  In  In2       1.0  0.18300  0.73800  0.17300  1.0000
  In  In3       1.0  0.09260  0.21300  0.22900  1.0000
  In  In4       1.0  0.40800  0.73700  0.24100  1.0000
  In  In5       1.0  0.59200  0.23700  0.25900  1.0000
  In  In6       1.0  0.90700  0.71300  0.27100  1.0000
  In  In7       1.0  0.81700  0.23800  0.32700  1.0000
  In  In8       1.0  0.68300  0.72000  0.33500  1.0000
  In  In9       1.0  0.31700  0.28000  0.66500  1.0000
  In  In10      1.0  0.18300  0.76200  0.67300  1.0000
  In  In11      1.0  0.09260  0.28700  0.72900  1.0000
  In  In12      1.0  0.40800  0.76300  0.74100  1.0000
  In  In13      1.0  0.59200  0.26300  0.75900  1.0000
  In  In14      1.0  0.90700  0.78700  0.77100  1.0000
  In  In15      1.0  0.81700  0.26200  0.82700  1.0000
  In  In16      1.0  0.68300  0.78000  0.83500  1.0000
  K   K1        1.0  0.85700  0.53500  0.00805  1.0000
  K   K2        1.0  0.65400  0.05250  0.02230  1.0000
  K   K3        1.0  0.55800  0.55600  0.10300  1.0000
  K   K4        1.0  0.92200  0.03530  0.11300  1.0000
  K   K5        1.0  0.07800  0.53500  0.38700  1.0000
  K   K6        1.0  0.44200  0.05600  0.39700  1.0000
  K   K7        1.0  0.34600  0.55200  0.47800  1.0000
  K   K8        1.0  0.14300  0.03540  0.49200  1.0000
  K   K9        1.0  0.85700  0.96500  0.50800  1.0000
  K   K10       1.0  0.65400  0.44800  0.52200  1.0000
  K   K11       1.0  0.55800  0.94400  0.60300  1.0000
  K   K12       1.0  0.92200  0.46500  0.61300  1.0000
  K   K13       1.0  0.07800  0.96500  0.88700  1.0000
  K   K14       1.0  0.44200  0.44400  0.89700  1.0000
  K   K15       1.0  0.34600  0.94800  0.97800  1.0000
  K   K16       1.0  0.14300  0.46500  0.99200  1.0000
  Sb  Sb1       1.0  0.16100  0.05550  0.08810  1.0000
  Sb  Sb2       1.0  0.33300  0.56400  0.10300  1.0000
  Sb  Sb3       1.0  0.47900  0.03320  0.15800  1.0000
  Sb  Sb4       1.0  0.02530  0.53700  0.16800  1.0000
  Sb  Sb5       1.0  0.75000  0.33700  0.17300  1.0000
  Sb  Sb6       1.0  0.75000  0.71200  0.17800  1.0000
  Sb  Sb7       1.0  0.25000  0.21200  0.32200  1.0000
  Sb  Sb8       1.0  0.25000  0.83700  0.32700  1.0000
  Sb  Sb9       1.0  0.97500  0.03660  0.33200  1.0000
  Sb  Sb10      1.0  0.52100  0.53300  0.34200  1.0000
  Sb  Sb11      1.0  0.66700  0.06430  0.39700  1.0000
  Sb  Sb12      1.0  0.83900  0.55500  0.41200  1.0000
  Sb  Sb13      1.0  0.16100  0.44500  0.58800  1.0000
  Sb  Sb14      1.0  0.33300  0.93600  0.60300  1.0000
  Sb  Sb15      1.0  0.47900  0.46700  0.65800  1.0000
  Sb  Sb16      1.0  0.02530  0.96300  0.66800  1.0000
  Sb  Sb17      1.0  0.75000  0.16300  0.67300  1.0000
  Sb  Sb18      1.0  0.75000  0.78800  0.67800  1.0000
  Sb  Sb19      1.0  0.25000  0.28800  0.82200  1.0000
  Sb  Sb20      1.0  0.25000  0.66300  0.82700  1.0000
  Sb  Sb21      1.0  0.97500  0.46300  0.83200  1.0000
  Sb  Sb22      1.0  0.52100  0.96700  0.84200  1.0000
  Sb  Sb23      1.0  0.66700  0.43600  0.89700  1.0000
  Sb  Sb24      1.0  0.83900  0.94500  0.91200  1.0000
