data_image0
_chemical_formula_structural       P12Sb8Se36
_chemical_formula_sum              "P12 Sb8 Se36"
_cell_length_a       21.7175
_cell_length_b       7.65419
_cell_length_c       9.52095
_cell_angle_alpha    90
_cell_angle_beta     90.5444
_cell_angle_gamma    90

_space_group_name_H-M_alt    "P 1"
_space_group_IT_number       1

loop_
  _space_group_symop_operation_xyz
  'x, y, z'

loop_
  _atom_site_type_symbol
  _atom_site_label
  _atom_site_symmetry_multiplicity
  _atom_site_fract_x
  _atom_site_fract_y
  _atom_site_fract_z
  _atom_site_occupancy
  P   P1        1.0  0.45200  0.54800  0.02910  1.0000
  P   P2        1.0  0.81500  0.34800  0.06530  1.0000
  P   P3        1.0  0.14500  0.43400  0.06820  1.0000
  P   P4        1.0  0.35500  0.93400  0.43200  1.0000
  P   P5        1.0  0.68500  0.84800  0.43500  1.0000
  P   P6        1.0  0.04810  0.04760  0.47100  1.0000
  P   P7        1.0  0.95200  0.95200  0.52900  1.0000
  P   P8        1.0  0.31500  0.15200  0.56500  1.0000
  P   P9        1.0  0.64500  0.06570  0.56800  1.0000
  P   P10       1.0  0.85500  0.56600  0.93200  1.0000
  P   P11       1.0  0.18500  0.65200  0.93500  1.0000
  P   P12       1.0  0.54800  0.45200  0.97100  1.0000
  Sb  Sb1       1.0  0.15500  0.90600  0.21300  1.0000
  Sb  Sb2       1.0  0.85500  0.78800  0.24600  1.0000
  Sb  Sb3       1.0  0.64500  0.28800  0.25400  1.0000
  Sb  Sb4       1.0  0.34500  0.40600  0.28700  1.0000
  Sb  Sb5       1.0  0.65500  0.59400  0.71300  1.0000
  Sb  Sb6       1.0  0.35500  0.71200  0.74600  1.0000
  Sb  Sb7       1.0  0.14500  0.21200  0.75400  1.0000
  Sb  Sb8       1.0  0.84500  0.09360  0.78700  1.0000
  Se  Se1       1.0  0.26700  0.75400  0.04190  1.0000
  Se  Se2       1.0  0.61700  0.63900  0.04350  1.0000
  Se  Se3       1.0  0.89100  0.15000  0.05350  1.0000
  Se  Se4       1.0  0.93500  0.65000  0.06470  1.0000
  Se  Se5       1.0  0.21600  0.23000  0.06670  1.0000
  Se  Se6       1.0  0.55400  0.19000  0.07530  1.0000
  Se  Se7       1.0  0.70200  0.96600  0.22300  1.0000
  Se  Se8       1.0  0.37900  0.05870  0.22900  1.0000
  Se  Se9       1.0  0.04370  0.07550  0.23700  1.0000
  Se  Se10      1.0  0.45600  0.57500  0.26300  1.0000
  Se  Se11      1.0  0.12100  0.55900  0.27100  1.0000
  Se  Se12      1.0  0.79800  0.46600  0.27700  1.0000
  Se  Se13      1.0  0.94600  0.69000  0.42500  1.0000
  Se  Se14      1.0  0.28400  0.73000  0.43300  1.0000
  Se  Se15      1.0  0.56500  0.15000  0.43500  1.0000
  Se  Se16      1.0  0.60900  0.65000  0.44700  1.0000
  Se  Se17      1.0  0.88300  0.13900  0.45700  1.0000
  Se  Se18      1.0  0.23300  0.25400  0.45800  1.0000
  Se  Se19      1.0  0.76700  0.74600  0.54200  1.0000
  Se  Se20      1.0  0.11700  0.86100  0.54300  1.0000
  Se  Se21      1.0  0.39100  0.35000  0.55300  1.0000
  Se  Se22      1.0  0.43500  0.85000  0.56500  1.0000
  Se  Se23      1.0  0.71600  0.27000  0.56700  1.0000
  Se  Se24      1.0  0.05410  0.31000  0.57500  1.0000
  Se  Se25      1.0  0.20200  0.53400  0.72300  1.0000
  Se  Se26      1.0  0.87900  0.44100  0.72900  1.0000
  Se  Se27      1.0  0.54400  0.42500  0.73700  1.0000
  Se  Se28      1.0  0.95600  0.92500  0.76300  1.0000
  Se  Se29      1.0  0.62100  0.94100  0.77100  1.0000
  Se  Se30      1.0  0.29800  0.03400  0.77700  1.0000
  Se  Se31      1.0  0.44600  0.81000  0.92500  1.0000
  Se  Se32      1.0  0.78400  0.77000  0.93300  1.0000
  Se  Se33      1.0  0.06460  0.35000  0.93500  1.0000
  Se  Se34      1.0  0.10900  0.85000  0.94700  1.0000
  Se  Se35      1.0  0.38300  0.36100  0.95700  1.0000
  Se  Se36      1.0  0.73300  0.24600  0.95800  1.0000
