data_image0
_chemical_formula_structural       Ba12Na4O30Si8
_chemical_formula_sum              "Ba12 Na4 O30 Si8"
_cell_length_a       11.5026
_cell_length_b       9.52503
_cell_length_c       7.85292
_cell_angle_alpha    90
_cell_angle_beta     90
_cell_angle_gamma    107.577

_space_group_name_H-M_alt    "P 1"
_space_group_IT_number       1

loop_
  _space_group_symop_operation_xyz
  'x, y, z'

loop_
  _atom_site_type_symbol
  _atom_site_label
  _atom_site_symmetry_multiplicity
  _atom_site_fract_x
  _atom_site_fract_y
  _atom_site_fract_z
  _atom_site_occupancy
  Ba  Ba1       1.0  0.27400  0.00197  0.00201  1.0000
  Ba  Ba2       1.0  0.41400  0.65800  0.00595  1.0000
  Ba  Ba3       1.0  0.08360  0.33200  0.02070  1.0000
  Ba  Ba4       1.0  0.58400  0.33200  0.47900  1.0000
  Ba  Ba5       1.0  0.91400  0.65800  0.49400  1.0000
  Ba  Ba6       1.0  0.77400  0.00197  0.49800  1.0000
  Ba  Ba7       1.0  0.22600  0.99800  0.50200  1.0000
  Ba  Ba8       1.0  0.08600  0.34200  0.50600  1.0000
  Ba  Ba9       1.0  0.41600  0.66800  0.52100  1.0000
  Ba  Ba10      1.0  0.91600  0.66800  0.97900  1.0000
  Ba  Ba11      1.0  0.58600  0.34200  0.99400  1.0000
  Ba  Ba12      1.0  0.72600  0.99800  0.99800  1.0000
  Na  Na1       1.0  0.66900  0.67800  0.24900  1.0000
  Na  Na2       1.0  0.16900  0.67800  0.25100  1.0000
  Na  Na3       1.0  0.83100  0.32200  0.74900  1.0000
  Na  Na4       1.0  0.33100  0.32200  0.75100  1.0000
  O   O1        1.0  0.00000  0.00000  0.00000  1.0000
  O   O2        1.0  0.82500  0.28400  0.06660  1.0000
  O   O3        1.0  0.31800  0.28800  0.07470  1.0000
  O   O4        1.0  0.52900  0.11900  0.19000  1.0000
  O   O5        1.0  0.75600  0.48800  0.23700  1.0000
  O   O6        1.0  0.85000  0.86400  0.24400  1.0000
  O   O7        1.0  0.08050  0.86400  0.24600  1.0000
  O   O8        1.0  0.98900  0.48700  0.24800  1.0000
  O   O9        1.0  0.48900  0.48700  0.25200  1.0000
  O   O10       1.0  0.58100  0.86400  0.25400  1.0000
  O   O11       1.0  0.35000  0.86400  0.25600  1.0000
  O   O12       1.0  0.25600  0.48800  0.26300  1.0000
  O   O13       1.0  0.02920  0.11900  0.31000  1.0000
  O   O14       1.0  0.81800  0.28800  0.42500  1.0000
  O   O15       1.0  0.32500  0.28400  0.43300  1.0000
  O   O16       1.0  0.50000  0.00000  0.50000  1.0000
  O   O17       1.0  0.67500  0.71600  0.56700  1.0000
  O   O18       1.0  0.18200  0.71200  0.57500  1.0000
  O   O19       1.0  0.97100  0.88100  0.69000  1.0000
  O   O20       1.0  0.74400  0.51200  0.73700  1.0000
  O   O21       1.0  0.65000  0.13600  0.74400  1.0000
  O   O22       1.0  0.41900  0.13600  0.74600  1.0000
  O   O23       1.0  0.51100  0.51300  0.74800  1.0000
  O   O24       1.0  0.01150  0.51300  0.75200  1.0000
  O   O25       1.0  0.91900  0.13600  0.75400  1.0000
  O   O26       1.0  0.15000  0.13600  0.75600  1.0000
  O   O27       1.0  0.24400  0.51200  0.76300  1.0000
  O   O28       1.0  0.47100  0.88100  0.81000  1.0000
  O   O29       1.0  0.68200  0.71200  0.92500  1.0000
  O   O30       1.0  0.17500  0.71600  0.93300  1.0000
  Si  Si1       1.0  0.99100  0.96300  0.21100  1.0000
  Si  Si2       1.0  0.84500  0.37900  0.24400  1.0000
  Si  Si3       1.0  0.34500  0.37900  0.25600  1.0000
  Si  Si4       1.0  0.49100  0.96300  0.28900  1.0000
  Si  Si5       1.0  0.50900  0.03650  0.71100  1.0000
  Si  Si6       1.0  0.65500  0.62100  0.74400  1.0000
  Si  Si7       1.0  0.15500  0.62100  0.75600  1.0000
  Si  Si8       1.0  0.00947  0.03650  0.78900  1.0000
