data_image0
_chemical_formula_structural       Ge12Li8Ni4O32
_chemical_formula_sum              "Ge12 Li8 Ni4 O32"
_cell_length_a       8.18362
_cell_length_b       8.18362
_cell_length_c       8.18362
_cell_angle_alpha    90
_cell_angle_beta     90
_cell_angle_gamma    90

_space_group_name_H-M_alt    "P 1"
_space_group_IT_number       1

loop_
  _space_group_symop_operation_xyz
  'x, y, z'

loop_
  _atom_site_type_symbol
  _atom_site_label
  _atom_site_symmetry_multiplicity
  _atom_site_fract_x
  _atom_site_fract_y
  _atom_site_fract_z
  _atom_site_occupancy
  Ge  Ge1       1.0  0.12600  0.62500  0.12400  1.0000
  Ge  Ge2       1.0  0.37600  0.87400  0.12500  1.0000
  Ge  Ge3       1.0  0.62500  0.12400  0.12600  1.0000
  Ge  Ge4       1.0  0.37500  0.62400  0.37400  1.0000
  Ge  Ge5       1.0  0.62400  0.37400  0.37500  1.0000
  Ge  Ge6       1.0  0.87400  0.12500  0.37600  1.0000
  Ge  Ge7       1.0  0.37400  0.37500  0.62400  1.0000
  Ge  Ge8       1.0  0.12400  0.12600  0.62500  1.0000
  Ge  Ge9       1.0  0.87500  0.87600  0.62600  1.0000
  Ge  Ge10      1.0  0.12500  0.37600  0.87400  1.0000
  Ge  Ge11      1.0  0.87600  0.62600  0.87500  1.0000
  Ge  Ge12      1.0  0.62600  0.87500  0.87600  1.0000
  Li  Li1       1.0  0.00306  0.00306  0.00306  1.0000
  Li  Li2       1.0  0.24700  0.24700  0.24700  1.0000
  Li  Li3       1.0  0.75300  0.74700  0.25300  1.0000
  Li  Li4       1.0  0.99700  0.50300  0.49700  1.0000
  Li  Li5       1.0  0.49700  0.99700  0.50300  1.0000
  Li  Li6       1.0  0.25300  0.75300  0.74700  1.0000
  Li  Li7       1.0  0.74700  0.25300  0.75300  1.0000
  Li  Li8       1.0  0.50300  0.49700  0.99700  1.0000
  Ni  Ni1       1.0  0.87500  0.37500  0.12500  1.0000
  Ni  Ni2       1.0  0.12500  0.87500  0.37500  1.0000
  Ni  Ni3       1.0  0.62500  0.62500  0.62500  1.0000
  Ni  Ni4       1.0  0.37500  0.12500  0.87500  1.0000
  O   O1        1.0  0.12600  0.39200  0.10300  1.0000
  O   O2        1.0  0.89700  0.62600  0.10800  1.0000
  O   O3        1.0  0.61600  0.88400  0.11600  1.0000
  O   O4        1.0  0.14700  0.85800  0.12400  1.0000
  O   O5        1.0  0.39200  0.10300  0.12600  1.0000
  O   O6        1.0  0.36600  0.63400  0.13400  1.0000
  O   O7        1.0  0.62400  0.35300  0.14200  1.0000
  O   O8        1.0  0.85800  0.12400  0.14700  1.0000
  O   O9        1.0  0.14200  0.62400  0.35300  1.0000
  O   O10       1.0  0.37600  0.85300  0.35800  1.0000
  O   O11       1.0  0.63400  0.13400  0.36600  1.0000
  O   O12       1.0  0.60800  0.60300  0.37400  1.0000
  O   O13       1.0  0.85300  0.35800  0.37600  1.0000
  O   O14       1.0  0.38400  0.38400  0.38400  1.0000
  O   O15       1.0  0.10300  0.12600  0.39200  1.0000
  O   O16       1.0  0.87400  0.89200  0.39700  1.0000
  O   O17       1.0  0.37400  0.60800  0.60300  1.0000
  O   O18       1.0  0.60300  0.37400  0.60800  1.0000
  O   O19       1.0  0.88400  0.11600  0.61600  1.0000
  O   O20       1.0  0.35300  0.14200  0.62400  1.0000
  O   O21       1.0  0.10800  0.89700  0.62600  1.0000
  O   O22       1.0  0.13400  0.36600  0.63400  1.0000
  O   O23       1.0  0.87600  0.64700  0.64200  1.0000
  O   O24       1.0  0.64200  0.87600  0.64700  1.0000
  O   O25       1.0  0.35800  0.37600  0.85300  1.0000
  O   O26       1.0  0.12400  0.14700  0.85800  1.0000
  O   O27       1.0  0.86600  0.86600  0.86600  1.0000
  O   O28       1.0  0.89200  0.39700  0.87400  1.0000
  O   O29       1.0  0.64700  0.64200  0.87600  1.0000
  O   O30       1.0  0.11600  0.61600  0.88400  1.0000
  O   O31       1.0  0.39700  0.87400  0.89200  1.0000
  O   O32       1.0  0.62600  0.10800  0.89700  1.0000
