data_image0
_chemical_formula_structural       Ba4F36Fe8Na4
_chemical_formula_sum              "Ba4 F36 Fe8 Na4"
_cell_length_a       7.13949
_cell_length_b       17.1274
_cell_length_c       5.2968
_cell_angle_alpha    90
_cell_angle_beta     92.4895
_cell_angle_gamma    90

_space_group_name_H-M_alt    "P 1"
_space_group_IT_number       1

loop_
  _space_group_symop_operation_xyz
  'x, y, z'

loop_
  _atom_site_type_symbol
  _atom_site_label
  _atom_site_symmetry_multiplicity
  _atom_site_fract_x
  _atom_site_fract_y
  _atom_site_fract_z
  _atom_site_occupancy
  Ba  Ba1       1.0  0.56400  0.21400  0.22700  1.0000
  Ba  Ba2       1.0  0.93600  0.71400  0.27300  1.0000
  Ba  Ba3       1.0  0.06410  0.28600  0.72700  1.0000
  Ba  Ba4       1.0  0.43600  0.78600  0.77300  1.0000
  F   F1        1.0  0.79200  0.83500  0.00704  1.0000
  F   F2        1.0  0.78400  0.33400  0.00804  1.0000
  F   F3        1.0  0.45600  0.91700  0.04700  1.0000
  F   F4        1.0  0.87700  0.57800  0.05140  1.0000
  F   F5        1.0  0.90000  0.06450  0.09300  1.0000
  F   F6        1.0  0.50300  0.42500  0.09860  1.0000
  F   F7        1.0  0.56500  0.71200  0.19300  1.0000
  F   F8        1.0  0.23000  0.80900  0.22000  1.0000
  F   F9        1.0  0.25900  0.03370  0.24700  1.0000
  F   F10       1.0  0.24100  0.53400  0.25300  1.0000
  F   F11       1.0  0.27000  0.30900  0.28000  1.0000
  F   F12       1.0  0.93500  0.21200  0.30700  1.0000
  F   F13       1.0  0.99700  0.92500  0.40100  1.0000
  F   F14       1.0  0.60000  0.56400  0.40700  1.0000
  F   F15       1.0  0.62300  0.07750  0.44900  1.0000
  F   F16       1.0  0.04400  0.41700  0.45300  1.0000
  F   F17       1.0  0.71600  0.83400  0.49200  1.0000
  F   F18       1.0  0.70800  0.33500  0.49300  1.0000
  F   F19       1.0  0.29200  0.66500  0.50700  1.0000
  F   F20       1.0  0.28400  0.16600  0.50800  1.0000
  F   F21       1.0  0.95600  0.58300  0.54700  1.0000
  F   F22       1.0  0.37700  0.92200  0.55100  1.0000
  F   F23       1.0  0.40000  0.43600  0.59300  1.0000
  F   F24       1.0  0.00319  0.07520  0.59900  1.0000
  F   F25       1.0  0.06520  0.78800  0.69300  1.0000
  F   F26       1.0  0.73000  0.69100  0.72000  1.0000
  F   F27       1.0  0.75900  0.46600  0.74700  1.0000
  F   F28       1.0  0.74100  0.96600  0.75300  1.0000
  F   F29       1.0  0.77000  0.19100  0.78000  1.0000
  F   F30       1.0  0.43500  0.28800  0.80700  1.0000
  F   F31       1.0  0.49700  0.57500  0.90100  1.0000
  F   F32       1.0  0.09960  0.93600  0.90700  1.0000
  F   F33       1.0  0.12300  0.42200  0.94900  1.0000
  F   F34       1.0  0.54400  0.08290  0.95300  1.0000
  F   F35       1.0  0.21600  0.66600  0.99200  1.0000
  F   F36       1.0  0.20800  0.16500  0.99300  1.0000
  Fe  Fe1       1.0  0.40400  0.62500  0.22100  1.0000
  Fe  Fe2       1.0  0.24100  0.91900  0.24100  1.0000
  Fe  Fe3       1.0  0.25900  0.41900  0.25900  1.0000
  Fe  Fe4       1.0  0.09550  0.12500  0.27900  1.0000
  Fe  Fe5       1.0  0.90400  0.87500  0.72100  1.0000
  Fe  Fe6       1.0  0.74100  0.58100  0.74100  1.0000
  Fe  Fe7       1.0  0.75900  0.08100  0.75900  1.0000
  Fe  Fe8       1.0  0.59600  0.37500  0.77900  1.0000
  Na  Na1       1.0  0.70400  0.96300  0.24700  1.0000
  Na  Na2       1.0  0.79600  0.46300  0.25300  1.0000
  Na  Na3       1.0  0.20400  0.53700  0.74700  1.0000
  Na  Na4       1.0  0.29600  0.03750  0.75300  1.0000
