data_image0
_chemical_formula_structural       Gd4I12O36
_chemical_formula_sum              "Gd4 I12 O36"
_cell_length_a       8.66567
_cell_length_b       5.80271
_cell_length_c       14.8824
_cell_angle_alpha    90
_cell_angle_beta     97.0043
_cell_angle_gamma    90

_space_group_name_H-M_alt    "P 1"
_space_group_IT_number       1

loop_
  _space_group_symop_operation_xyz
  'x, y, z'

loop_
  _atom_site_type_symbol
  _atom_site_label
  _atom_site_symmetry_multiplicity
  _atom_site_fract_x
  _atom_site_fract_y
  _atom_site_fract_z
  _atom_site_occupancy
  Gd  Gd1       1.0  0.96100  0.76800  0.09950  1.0000
  Gd  Gd2       1.0  0.53900  0.26800  0.40000  1.0000
  Gd  Gd3       1.0  0.46100  0.73200  0.60000  1.0000
  Gd  Gd4       1.0  0.03880  0.23200  0.90000  1.0000
  I   I1        1.0  0.66200  0.15000  0.02450  1.0000
  I   I2        1.0  0.22600  0.31300  0.15100  1.0000
  I   I3        1.0  0.61900  0.59700  0.20200  1.0000
  I   I4        1.0  0.88100  0.09650  0.29800  1.0000
  I   I5        1.0  0.27400  0.81300  0.34900  1.0000
  I   I6        1.0  0.83800  0.65000  0.47600  1.0000
  I   I7        1.0  0.16200  0.35000  0.52400  1.0000
  I   I8        1.0  0.72600  0.18700  0.65100  1.0000
  I   I9        1.0  0.11900  0.90300  0.70200  1.0000
  I   I10       1.0  0.38100  0.40300  0.79800  1.0000
  I   I11       1.0  0.77400  0.68700  0.84900  1.0000
  I   I12       1.0  0.33800  0.85000  0.97600  1.0000
  O   O1        1.0  0.14000  0.90300  0.00868  1.0000
  O   O2        1.0  0.13600  0.41400  0.03950  1.0000
  O   O3        1.0  0.41300  0.08820  0.05530  1.0000
  O   O4        1.0  0.45000  0.59300  0.11300  1.0000
  O   O5        1.0  0.72000  0.96600  0.12400  1.0000
  O   O6        1.0  0.77100  0.49300  0.13300  1.0000
  O   O7        1.0  0.07190  0.10500  0.17300  1.0000
  O   O8        1.0  0.14300  0.56300  0.20500  1.0000
  O   O9        1.0  0.58600  0.30500  0.24300  1.0000
  O   O10       1.0  0.91400  0.80500  0.25700  1.0000
  O   O11       1.0  0.35700  0.06250  0.29500  1.0000
  O   O12       1.0  0.42800  0.60500  0.32700  1.0000
  O   O13       1.0  0.72900  0.99300  0.36700  1.0000
  O   O14       1.0  0.78000  0.46600  0.37600  1.0000
  O   O15       1.0  0.05030  0.09300  0.38700  1.0000
  O   O16       1.0  0.08660  0.58800  0.44500  1.0000
  O   O17       1.0  0.36400  0.91400  0.46100  1.0000
  O   O18       1.0  0.36000  0.40300  0.49100  1.0000
  O   O19       1.0  0.64000  0.59700  0.50900  1.0000
  O   O20       1.0  0.63600  0.08560  0.53900  1.0000
  O   O21       1.0  0.91300  0.41200  0.55500  1.0000
  O   O22       1.0  0.95000  0.90700  0.61300  1.0000
  O   O23       1.0  0.22000  0.53400  0.62400  1.0000
  O   O24       1.0  0.27100  0.00655  0.63300  1.0000
  O   O25       1.0  0.57200  0.39500  0.67300  1.0000
  O   O26       1.0  0.64300  0.93700  0.70500  1.0000
  O   O27       1.0  0.08610  0.19500  0.74300  1.0000
  O   O28       1.0  0.41400  0.69500  0.75700  1.0000
  O   O29       1.0  0.85700  0.43700  0.79500  1.0000
  O   O30       1.0  0.92800  0.89500  0.82700  1.0000
  O   O31       1.0  0.22900  0.50700  0.86700  1.0000
  O   O32       1.0  0.28000  0.03430  0.87600  1.0000
  O   O33       1.0  0.55000  0.40700  0.88700  1.0000
  O   O34       1.0  0.58700  0.91200  0.94500  1.0000
  O   O35       1.0  0.86400  0.58600  0.96100  1.0000
  O   O36       1.0  0.86000  0.09710  0.99100  1.0000
