data_image0
_chemical_formula_structural       C12Fe2H16N12O8Sm2
_chemical_formula_sum              "C12 Fe2 H16 N12 O8 Sm2"
_cell_length_a       7.28258
_cell_length_b       7.28258
_cell_length_c       13.3978
_cell_angle_alpha    90
_cell_angle_beta     90
_cell_angle_gamma    60.642

_space_group_name_H-M_alt    "P 1"
_space_group_IT_number       1

loop_
  _space_group_symop_operation_xyz
  'x, y, z'

loop_
  _atom_site_type_symbol
  _atom_site_label
  _atom_site_symmetry_multiplicity
  _atom_site_fract_x
  _atom_site_fract_y
  _atom_site_fract_z
  _atom_site_occupancy
  C   C1        1.0  0.86000  0.86000  0.05160  1.0000
  C   C2        1.0  0.85900  0.23000  0.08910  1.0000
  C   C3        1.0  0.23000  0.85900  0.08910  1.0000
  C   C4        1.0  0.85900  0.23000  0.41100  1.0000
  C   C5        1.0  0.23000  0.85900  0.41100  1.0000
  C   C6        1.0  0.86000  0.86000  0.44800  1.0000
  C   C7        1.0  0.14000  0.14000  0.55200  1.0000
  C   C8        1.0  0.77000  0.14100  0.58900  1.0000
  C   C9        1.0  0.14100  0.77000  0.58900  1.0000
  C   C10       1.0  0.77000  0.14100  0.91100  1.0000
  C   C11       1.0  0.14100  0.77000  0.91100  1.0000
  C   C12       1.0  0.14000  0.14000  0.94800  1.0000
  Fe  Fe1       1.0  0.00000  0.00000  0.00000  1.0000
  Fe  Fe2       1.0  0.00000  0.00000  0.50000  1.0000
  H   H1        1.0  0.30300  0.30300  0.03710  1.0000
  H   H2        1.0  0.41600  0.41600  0.08890  1.0000
  H   H3        1.0  0.47500  0.14400  0.19000  1.0000
  H   H4        1.0  0.14400  0.47500  0.19000  1.0000
  H   H5        1.0  0.47500  0.14400  0.31000  1.0000
  H   H6        1.0  0.14400  0.47500  0.31000  1.0000
  H   H7        1.0  0.41600  0.41600  0.41100  1.0000
  H   H8        1.0  0.30300  0.30300  0.46300  1.0000
  H   H9        1.0  0.69700  0.69700  0.53700  1.0000
  H   H10       1.0  0.58400  0.58400  0.58900  1.0000
  H   H11       1.0  0.85600  0.52500  0.69000  1.0000
  H   H12       1.0  0.52500  0.85600  0.69000  1.0000
  H   H13       1.0  0.85600  0.52500  0.81000  1.0000
  H   H14       1.0  0.52500  0.85600  0.81000  1.0000
  H   H15       1.0  0.58400  0.58400  0.91100  1.0000
  H   H16       1.0  0.69700  0.69700  0.96300  1.0000
  N   N1        1.0  0.77300  0.77300  0.08320  1.0000
  N   N2        1.0  0.77000  0.37400  0.14200  1.0000
  N   N3        1.0  0.37400  0.77000  0.14200  1.0000
  N   N4        1.0  0.77000  0.37400  0.35800  1.0000
  N   N5        1.0  0.37400  0.77000  0.35800  1.0000
  N   N6        1.0  0.77300  0.77300  0.41700  1.0000
  N   N7        1.0  0.22700  0.22700  0.58300  1.0000
  N   N8        1.0  0.62600  0.23000  0.64200  1.0000
  N   N9        1.0  0.23000  0.62600  0.64200  1.0000
  N   N10       1.0  0.62600  0.23000  0.85800  1.0000
  N   N11       1.0  0.23000  0.62600  0.85800  1.0000
  N   N12       1.0  0.22700  0.22700  0.91700  1.0000
  O   O1        1.0  0.33900  0.33900  0.10300  1.0000
  O   O2        1.0  0.53700  0.05280  0.25000  1.0000
  O   O3        1.0  0.05280  0.53700  0.25000  1.0000
  O   O4        1.0  0.33900  0.33900  0.39700  1.0000
  O   O5        1.0  0.66100  0.66100  0.60300  1.0000
  O   O6        1.0  0.94700  0.46300  0.75000  1.0000
  O   O7        1.0  0.46300  0.94700  0.75000  1.0000
  O   O8        1.0  0.66100  0.66100  0.89700  1.0000
  Sm  Sm1       1.0  0.68100  0.68100  0.25000  1.0000
  Sm  Sm2       1.0  0.31900  0.31900  0.75000  1.0000
