data_image0
_chemical_formula_structural       Nd2O38Ta14
_chemical_formula_sum              "Nd2 O38 Ta14"
_cell_length_a       6.228
_cell_length_b       6.22798
_cell_length_c       19.9686
_cell_angle_alpha    90
_cell_angle_beta     90
_cell_angle_gamma    120

_space_group_name_H-M_alt    "P 1"
_space_group_IT_number       1

loop_
  _space_group_symop_operation_xyz
  'x, y, z'

loop_
  _atom_site_type_symbol
  _atom_site_label
  _atom_site_symmetry_multiplicity
  _atom_site_fract_x
  _atom_site_fract_y
  _atom_site_fract_z
  _atom_site_occupancy
  Nd  Nd1       1.0  0.33300  0.66700  0.00000  1.0000
  Nd  Nd2       1.0  0.33300  0.66700  0.50000  1.0000
  O   O1        1.0  0.62600  0.05130  0.05630  1.0000
  O   O2        1.0  0.42500  0.37400  0.05630  1.0000
  O   O3        1.0  0.94900  0.57500  0.05630  1.0000
  O   O4        1.0  0.33300  0.66700  0.13000  1.0000
  O   O5        1.0  0.00000  0.24800  0.15300  1.0000
  O   O6        1.0  0.75200  0.75200  0.15300  1.0000
  O   O7        1.0  0.24800  0.00000  0.15300  1.0000
  O   O8        1.0  0.66700  0.33300  0.16900  1.0000
  O   O9        1.0  0.37500  0.42400  0.25000  1.0000
  O   O10       1.0  0.04940  0.62500  0.25000  1.0000
  O   O11       1.0  0.57600  0.95100  0.25000  1.0000
  O   O12       1.0  0.66700  0.33300  0.33100  1.0000
  O   O13       1.0  0.24800  0.00000  0.34700  1.0000
  O   O14       1.0  0.75200  0.75200  0.34700  1.0000
  O   O15       1.0  0.00000  0.24800  0.34700  1.0000
  O   O16       1.0  0.33300  0.66700  0.37000  1.0000
  O   O17       1.0  0.94900  0.57500  0.44400  1.0000
  O   O18       1.0  0.42500  0.37400  0.44400  1.0000
  O   O19       1.0  0.62600  0.05130  0.44400  1.0000
  O   O20       1.0  0.94900  0.37400  0.55600  1.0000
  O   O21       1.0  0.42500  0.05130  0.55600  1.0000
  O   O22       1.0  0.62600  0.57500  0.55600  1.0000
  O   O23       1.0  0.33300  0.66700  0.63000  1.0000
  O   O24       1.0  0.75200  0.00000  0.65300  1.0000
  O   O25       1.0  0.24800  0.24800  0.65300  1.0000
  O   O26       1.0  1.00000  0.75200  0.65300  1.0000
  O   O27       1.0  0.66700  0.33300  0.66900  1.0000
  O   O28       1.0  0.04940  0.42400  0.75000  1.0000
  O   O29       1.0  0.57600  0.62500  0.75000  1.0000
  O   O30       1.0  0.37500  0.95100  0.75000  1.0000
  O   O31       1.0  0.66700  0.33300  0.83100  1.0000
  O   O32       1.0  1.00000  0.75200  0.84700  1.0000
  O   O33       1.0  0.75200  0.00000  0.84700  1.0000
  O   O34       1.0  0.24800  0.24800  0.84700  1.0000
  O   O35       1.0  0.33300  0.66700  0.87000  1.0000
  O   O36       1.0  0.42500  0.05130  0.94400  1.0000
  O   O37       1.0  0.62600  0.57500  0.94400  1.0000
  O   O38       1.0  0.94900  0.37400  0.94400  1.0000
  Ta  Ta1       1.0  0.66700  0.33300  0.00000  1.0000
  Ta  Ta2       1.0  0.63900  0.00000  0.15600  1.0000
  Ta  Ta3       1.0  0.36100  0.36100  0.15600  1.0000
  Ta  Ta4       1.0  0.00000  0.63900  0.15600  1.0000
  Ta  Ta5       1.0  0.00000  0.63900  0.34400  1.0000
  Ta  Ta6       1.0  0.63900  0.00000  0.34400  1.0000
  Ta  Ta7       1.0  0.36100  0.36100  0.34400  1.0000
  Ta  Ta8       1.0  0.66700  0.33300  0.50000  1.0000
  Ta  Ta9       1.0  0.36100  0.00000  0.65600  1.0000
  Ta  Ta10      1.0  0.63900  0.63900  0.65600  1.0000
  Ta  Ta11      1.0  0.00000  0.36100  0.65600  1.0000
  Ta  Ta12      1.0  0.00000  0.36100  0.84400  1.0000
  Ta  Ta13      1.0  0.63900  0.63900  0.84400  1.0000
  Ta  Ta14      1.0  0.36100  0.00000  0.84400  1.0000
