data_image0
_chemical_formula_structural       Au48Sm8
_chemical_formula_sum              "Au48 Sm8"
_cell_length_a       10.4894
_cell_length_b       10.4894
_cell_length_c       9.81785
_cell_angle_alpha    90
_cell_angle_beta     90
_cell_angle_gamma    90

_space_group_name_H-M_alt    "P 1"
_space_group_IT_number       1

loop_
  _space_group_symop_operation_xyz
  'x, y, z'

loop_
  _atom_site_type_symbol
  _atom_site_label
  _atom_site_symmetry_multiplicity
  _atom_site_fract_x
  _atom_site_fract_y
  _atom_site_fract_z
  _atom_site_occupancy
  Au  Au1       1.0  0.00000  0.00000  0.00000  1.0000
  Au  Au2       1.0  0.50000  0.50000  0.00000  1.0000
  Au  Au3       1.0  0.75000  0.75000  0.06650  1.0000
  Au  Au4       1.0  0.68100  0.01300  0.07920  1.0000
  Au  Au5       1.0  0.81900  0.48700  0.07920  1.0000
  Au  Au6       1.0  0.01300  0.68100  0.07920  1.0000
  Au  Au7       1.0  0.48700  0.81900  0.07920  1.0000
  Au  Au8       1.0  0.87600  0.19900  0.14400  1.0000
  Au  Au9       1.0  0.62400  0.30100  0.14400  1.0000
  Au  Au10      1.0  0.30100  0.62400  0.14400  1.0000
  Au  Au11      1.0  0.19900  0.87600  0.14400  1.0000
  Au  Au12      1.0  0.14700  0.14700  0.17800  1.0000
  Au  Au13      1.0  0.35300  0.35300  0.17800  1.0000
  Au  Au14      1.0  0.85300  0.64700  0.32200  1.0000
  Au  Au15      1.0  0.64700  0.85300  0.32200  1.0000
  Au  Au16      1.0  0.69900  0.12400  0.35600  1.0000
  Au  Au17      1.0  0.80100  0.37600  0.35600  1.0000
  Au  Au18      1.0  0.12400  0.69900  0.35600  1.0000
  Au  Au19      1.0  0.37600  0.80100  0.35600  1.0000
  Au  Au20      1.0  0.98700  0.18100  0.42100  1.0000
  Au  Au21      1.0  0.51300  0.31900  0.42100  1.0000
  Au  Au22      1.0  0.31900  0.51300  0.42100  1.0000
  Au  Au23      1.0  0.18100  0.98700  0.42100  1.0000
  Au  Au24      1.0  0.25000  0.25000  0.43400  1.0000
  Au  Au25      1.0  0.50000  0.00000  0.50000  1.0000
  Au  Au26      1.0  0.00000  0.50000  0.50000  1.0000
  Au  Au27      1.0  0.75000  0.75000  0.56600  1.0000
  Au  Au28      1.0  0.81900  0.01300  0.57900  1.0000
  Au  Au29      1.0  0.68100  0.48700  0.57900  1.0000
  Au  Au30      1.0  0.48700  0.68100  0.57900  1.0000
  Au  Au31      1.0  0.01300  0.81900  0.57900  1.0000
  Au  Au32      1.0  0.62400  0.19900  0.64400  1.0000
  Au  Au33      1.0  0.87600  0.30100  0.64400  1.0000
  Au  Au34      1.0  0.19900  0.62400  0.64400  1.0000
  Au  Au35      1.0  0.30100  0.87600  0.64400  1.0000
  Au  Au36      1.0  0.35300  0.14700  0.67800  1.0000
  Au  Au37      1.0  0.14700  0.35300  0.67800  1.0000
  Au  Au38      1.0  0.64700  0.64700  0.82200  1.0000
  Au  Au39      1.0  0.85300  0.85300  0.82200  1.0000
  Au  Au40      1.0  0.80100  0.12400  0.85600  1.0000
  Au  Au41      1.0  0.69900  0.37600  0.85600  1.0000
  Au  Au42      1.0  0.37600  0.69900  0.85600  1.0000
  Au  Au43      1.0  0.12400  0.80100  0.85600  1.0000
  Au  Au44      1.0  0.51300  0.18100  0.92100  1.0000
  Au  Au45      1.0  0.98700  0.31900  0.92100  1.0000
  Au  Au46      1.0  0.18100  0.51300  0.92100  1.0000
  Au  Au47      1.0  0.31900  0.98700  0.92100  1.0000
  Au  Au48      1.0  0.25000  0.25000  0.93400  1.0000
  Sm  Sm1       1.0  0.42500  0.07500  0.21200  1.0000
  Sm  Sm2       1.0  0.07500  0.42500  0.21200  1.0000
  Sm  Sm3       1.0  0.57500  0.57500  0.28800  1.0000
  Sm  Sm4       1.0  0.92500  0.92500  0.28800  1.0000
  Sm  Sm5       1.0  0.07500  0.07500  0.71200  1.0000
  Sm  Sm6       1.0  0.42500  0.42500  0.71200  1.0000
  Sm  Sm7       1.0  0.92500  0.57500  0.78800  1.0000
  Sm  Sm8       1.0  0.57500  0.92500  0.78800  1.0000
