data_image0
_chemical_formula_structural       Li8O32P8Pb8
_chemical_formula_sum              "Li8 O32 P8 Pb8"
_cell_length_a       7.88547
_cell_length_b       18.5617
_cell_length_c       4.93231
_cell_angle_alpha    90
_cell_angle_beta     90
_cell_angle_gamma    90

_space_group_name_H-M_alt    "P 1"
_space_group_IT_number       1

loop_
  _space_group_symop_operation_xyz
  'x, y, z'

loop_
  _atom_site_type_symbol
  _atom_site_label
  _atom_site_symmetry_multiplicity
  _atom_site_fract_x
  _atom_site_fract_y
  _atom_site_fract_z
  _atom_site_occupancy
  Li  Li1       1.0  0.99100  0.55700  0.15200  1.0000
  Li  Li2       1.0  0.49100  0.94300  0.15200  1.0000
  Li  Li3       1.0  0.67800  0.65100  0.15600  1.0000
  Li  Li4       1.0  0.17800  0.84900  0.15600  1.0000
  Li  Li5       1.0  0.50900  0.05680  0.65200  1.0000
  Li  Li6       1.0  0.00945  0.44300  0.65200  1.0000
  Li  Li7       1.0  0.82200  0.15100  0.65600  1.0000
  Li  Li8       1.0  0.32200  0.34900  0.65600  1.0000
  O   O1        1.0  0.44900  0.64700  0.00833  1.0000
  O   O2        1.0  0.94900  0.85300  0.00833  1.0000
  O   O3        1.0  0.57600  0.03540  0.02050  1.0000
  O   O4        1.0  0.07590  0.46500  0.02050  1.0000
  O   O5        1.0  0.77000  0.74200  0.03280  1.0000
  O   O6        1.0  0.27000  0.75800  0.03280  1.0000
  O   O7        1.0  0.75200  0.15000  0.03860  1.0000
  O   O8        1.0  0.25200  0.35000  0.03860  1.0000
  O   O9        1.0  0.13000  0.63600  0.04960  1.0000
  O   O10       1.0  0.63000  0.86400  0.04960  1.0000
  O   O11       1.0  0.89200  0.02670  0.06590  1.0000
  O   O12       1.0  0.39200  0.47300  0.06590  1.0000
  O   O13       1.0  0.30100  0.68000  0.45400  1.0000
  O   O14       1.0  0.80100  0.82000  0.45400  1.0000
  O   O15       1.0  0.71900  0.07240  0.46200  1.0000
  O   O16       1.0  0.21900  0.42800  0.46200  1.0000
  O   O17       1.0  0.05120  0.14700  0.50800  1.0000
  O   O18       1.0  0.55100  0.35300  0.50800  1.0000
  O   O19       1.0  0.92400  0.53500  0.52000  1.0000
  O   O20       1.0  0.42400  0.96500  0.52000  1.0000
  O   O21       1.0  0.73000  0.24200  0.53300  1.0000
  O   O22       1.0  0.23000  0.25800  0.53300  1.0000
  O   O23       1.0  0.74800  0.65000  0.53900  1.0000
  O   O24       1.0  0.24800  0.85000  0.53900  1.0000
  O   O25       1.0  0.37000  0.13600  0.55000  1.0000
  O   O26       1.0  0.87000  0.36400  0.55000  1.0000
  O   O27       1.0  0.60800  0.52700  0.56600  1.0000
  O   O28       1.0  0.10800  0.97300  0.56600  1.0000
  O   O29       1.0  0.19900  0.18000  0.95400  1.0000
  O   O30       1.0  0.69900  0.32000  0.95400  1.0000
  O   O31       1.0  0.78100  0.57200  0.96200  1.0000
  O   O32       1.0  0.28100  0.92800  0.96200  1.0000
  P   P1        1.0  0.28700  0.68000  0.14000  1.0000
  P   P2        1.0  0.78700  0.82000  0.14000  1.0000
  P   P3        1.0  0.73200  0.07220  0.15000  1.0000
  P   P4        1.0  0.23200  0.42800  0.15000  1.0000
  P   P5        1.0  0.21300  0.18000  0.64000  1.0000
  P   P6        1.0  0.71300  0.32000  0.64000  1.0000
  P   P7        1.0  0.76800  0.57200  0.65000  1.0000
  P   P8        1.0  0.26800  0.92800  0.65000  1.0000
  Pb  Pb1       1.0  0.51300  0.23200  0.18800  1.0000
  Pb  Pb2       1.0  0.01310  0.26800  0.18800  1.0000
  Pb  Pb3       1.0  0.18100  0.05260  0.19000  1.0000
  Pb  Pb4       1.0  0.68100  0.44700  0.19000  1.0000
  Pb  Pb5       1.0  0.98700  0.73200  0.68800  1.0000
  Pb  Pb6       1.0  0.48700  0.76800  0.68800  1.0000
  Pb  Pb7       1.0  0.31900  0.55300  0.69000  1.0000
  Pb  Pb8       1.0  0.81900  0.94700  0.69000  1.0000
