data_image0
_chemical_formula_structural       La3O36Sb15
_chemical_formula_sum              "La3 O36 Sb15"
_cell_length_a       7.29867
_cell_length_b       7.29867
_cell_length_c       16.3664
_cell_angle_alpha    90
_cell_angle_beta     90
_cell_angle_gamma    120

_space_group_name_H-M_alt    "P 1"
_space_group_IT_number       1

loop_
  _space_group_symop_operation_xyz
  'x, y, z'

loop_
  _atom_site_type_symbol
  _atom_site_label
  _atom_site_symmetry_multiplicity
  _atom_site_fract_x
  _atom_site_fract_y
  _atom_site_fract_z
  _atom_site_occupancy
  La  La1       1.0  0.33300  0.66700  0.16700  1.0000
  La  La2       1.0  0.00000  0.00000  0.50000  1.0000
  La  La3       1.0  0.66700  0.33300  0.83300  1.0000
  O   O1        1.0  0.20600  0.79400  0.03470  1.0000
  O   O2        1.0  0.20600  0.41200  0.03470  1.0000
  O   O3        1.0  0.58800  0.79400  0.03470  1.0000
  O   O4        1.0  0.53500  0.06950  0.11900  1.0000
  O   O5        1.0  0.53500  0.46500  0.11900  1.0000
  O   O6        1.0  0.93000  0.46500  0.11900  1.0000
  O   O7        1.0  0.13200  0.86800  0.21500  1.0000
  O   O8        1.0  0.13200  0.26400  0.21500  1.0000
  O   O9        1.0  0.73600  0.86800  0.21500  1.0000
  O   O10       1.0  0.46100  0.92100  0.29900  1.0000
  O   O11       1.0  0.46100  0.53900  0.29900  1.0000
  O   O12       1.0  0.07870  0.53900  0.29900  1.0000
  O   O13       1.0  0.25500  0.12700  0.36800  1.0000
  O   O14       1.0  0.87300  0.74500  0.36800  1.0000
  O   O15       1.0  0.87300  0.12700  0.36800  1.0000
  O   O16       1.0  0.20100  0.79900  0.45200  1.0000
  O   O17       1.0  0.59700  0.79900  0.45200  1.0000
  O   O18       1.0  0.20100  0.40300  0.45200  1.0000
  O   O19       1.0  0.40300  0.20100  0.54800  1.0000
  O   O20       1.0  0.79900  0.59700  0.54800  1.0000
  O   O21       1.0  0.79900  0.20100  0.54800  1.0000
  O   O22       1.0  0.12700  0.87300  0.63200  1.0000
  O   O23       1.0  0.12700  0.25500  0.63200  1.0000
  O   O24       1.0  0.74500  0.87300  0.63200  1.0000
  O   O25       1.0  0.53900  0.07870  0.70100  1.0000
  O   O26       1.0  0.92100  0.46100  0.70100  1.0000
  O   O27       1.0  0.53900  0.46100  0.70100  1.0000
  O   O28       1.0  0.26400  0.13200  0.78500  1.0000
  O   O29       1.0  0.86800  0.13200  0.78500  1.0000
  O   O30       1.0  0.86800  0.73600  0.78500  1.0000
  O   O31       1.0  0.06950  0.53500  0.88100  1.0000
  O   O32       1.0  0.46500  0.93000  0.88100  1.0000
  O   O33       1.0  0.46500  0.53500  0.88100  1.0000
  O   O34       1.0  0.79400  0.20600  0.96500  1.0000
  O   O35       1.0  0.41200  0.20600  0.96500  1.0000
  O   O36       1.0  0.79400  0.58800  0.96500  1.0000
  Sb  Sb1       1.0  0.50000  0.00000  0.00000  1.0000
  Sb  Sb2       1.0  0.00000  0.50000  0.00000  1.0000
  Sb  Sb3       1.0  0.50000  0.50000  0.00000  1.0000
  Sb  Sb4       1.0  0.00000  0.00000  0.14800  1.0000
  Sb  Sb5       1.0  0.66700  0.33300  0.18500  1.0000
  Sb  Sb6       1.0  0.16700  0.83300  0.33300  1.0000
  Sb  Sb7       1.0  0.16700  0.33300  0.33300  1.0000
  Sb  Sb8       1.0  0.66700  0.83300  0.33300  1.0000
  Sb  Sb9       1.0  0.66700  0.33300  0.48100  1.0000
  Sb  Sb10      1.0  0.33300  0.66700  0.51900  1.0000
  Sb  Sb11      1.0  0.33300  0.16700  0.66700  1.0000
  Sb  Sb12      1.0  0.83300  0.16700  0.66700  1.0000
  Sb  Sb13      1.0  0.83300  0.66700  0.66700  1.0000
  Sb  Sb14      1.0  0.33300  0.66700  0.81500  1.0000
  Sb  Sb15      1.0  0.00000  0.00000  0.85200  1.0000
