data_image0
_chemical_formula_structural       C4Cl4H24N8O8S4Zn2
_chemical_formula_sum              "C4 Cl4 H24 N8 O8 S4 Zn2"
_cell_length_a       13.9454
_cell_length_b       4.70687
_cell_length_c       8.67621
_cell_angle_alpha    90
_cell_angle_beta     90
_cell_angle_gamma    90

_space_group_name_H-M_alt    "P 1"
_space_group_IT_number       1

loop_
  _space_group_symop_operation_xyz
  'x, y, z'

loop_
  _atom_site_type_symbol
  _atom_site_label
  _atom_site_symmetry_multiplicity
  _atom_site_fract_x
  _atom_site_fract_y
  _atom_site_fract_z
  _atom_site_occupancy
  C   C1        1.0  0.36100  0.13100  0.37000  1.0000
  C   C2        1.0  0.63900  0.13100  0.37000  1.0000
  C   C3        1.0  0.13900  0.86900  0.87000  1.0000
  C   C4        1.0  0.86100  0.86900  0.87000  1.0000
  Cl  Cl1       1.0  0.50000  0.26900  0.03730  1.0000
  Cl  Cl2       1.0  0.00000  0.44600  0.07640  1.0000
  Cl  Cl3       1.0  0.00000  0.73100  0.53700  1.0000
  Cl  Cl4       1.0  0.50000  0.55400  0.57600  1.0000
  H   H1        1.0  0.17900  0.17100  0.17600  1.0000
  H   H2        1.0  0.82100  0.17100  0.17600  1.0000
  H   H3        1.0  0.37800  0.24800  0.26400  1.0000
  H   H4        1.0  0.62200  0.24800  0.26400  1.0000
  H   H5        1.0  0.42200  0.00481  0.41100  1.0000
  H   H6        1.0  0.57800  0.00481  0.41100  1.0000
  H   H7        1.0  0.17100  0.37800  0.44200  1.0000
  H   H8        1.0  0.82900  0.37800  0.44200  1.0000
  H   H9        1.0  0.33700  0.27300  0.46200  1.0000
  H   H10       1.0  0.66300  0.27300  0.46200  1.0000
  H   H11       1.0  0.10500  0.08850  0.48000  1.0000
  H   H12       1.0  0.89500  0.08850  0.48000  1.0000
  H   H13       1.0  0.32100  0.82900  0.67600  1.0000
  H   H14       1.0  0.67900  0.82900  0.67600  1.0000
  H   H15       1.0  0.12200  0.75200  0.76400  1.0000
  H   H16       1.0  0.87800  0.75200  0.76400  1.0000
  H   H17       1.0  0.07830  0.99500  0.91100  1.0000
  H   H18       1.0  0.92200  0.99500  0.91100  1.0000
  H   H19       1.0  0.32900  0.62200  0.94200  1.0000
  H   H20       1.0  0.67100  0.62200  0.94200  1.0000
  H   H21       1.0  0.16300  0.72700  0.96200  1.0000
  H   H22       1.0  0.83700  0.72700  0.96200  1.0000
  H   H23       1.0  0.39500  0.91200  0.98000  1.0000
  H   H24       1.0  0.60500  0.91200  0.98000  1.0000
  N   N1        1.0  0.17000  0.06120  0.27800  1.0000
  N   N2        1.0  0.83000  0.06120  0.27800  1.0000
  N   N3        1.0  0.12600  0.22800  0.39400  1.0000
  N   N4        1.0  0.87400  0.22800  0.39400  1.0000
  N   N5        1.0  0.33000  0.93900  0.77800  1.0000
  N   N6        1.0  0.67000  0.93900  0.77800  1.0000
  N   N7        1.0  0.37400  0.77200  0.89400  1.0000
  N   N8        1.0  0.62600  0.77200  0.89400  1.0000
  O   O1        1.0  0.29400  0.71500  0.19700  1.0000
  O   O2        1.0  0.70600  0.71500  0.19700  1.0000
  O   O3        1.0  0.24500  0.74200  0.47300  1.0000
  O   O4        1.0  0.75500  0.74200  0.47300  1.0000
  O   O5        1.0  0.20600  0.28500  0.69700  1.0000
  O   O6        1.0  0.79400  0.28500  0.69700  1.0000
  O   O7        1.0  0.25500  0.25800  0.97300  1.0000
  O   O8        1.0  0.74500  0.25800  0.97300  1.0000
  S   S1        1.0  0.26900  0.88600  0.32900  1.0000
  S   S2        1.0  0.73100  0.88600  0.32900  1.0000
  S   S3        1.0  0.23100  0.11400  0.82900  1.0000
  S   S4        1.0  0.76900  0.11400  0.82900  1.0000
  Zn  Zn1       1.0  0.00000  0.43600  0.33000  1.0000
  Zn  Zn2       1.0  0.50000  0.56400  0.83000  1.0000
