data_image0
_chemical_formula_structural       Ag6As12Cl18Hg18
_chemical_formula_sum              "Ag6 As12 Cl18 Hg18"
_cell_length_a       9.36131
_cell_length_b       13.3817
_cell_length_c       14.0353
_cell_angle_alpha    99.0932
_cell_angle_beta     109.481
_cell_angle_gamma    110.474

_space_group_name_H-M_alt    "P 1"
_space_group_IT_number       1

loop_
  _space_group_symop_operation_xyz
  'x, y, z'

loop_
  _atom_site_type_symbol
  _atom_site_label
  _atom_site_symmetry_multiplicity
  _atom_site_fract_x
  _atom_site_fract_y
  _atom_site_fract_z
  _atom_site_occupancy
  Ag  Ag1       1.0  0.61600  0.56300  0.22500  1.0000
  Ag  Ag2       1.0  0.90500  0.25000  0.25000  1.0000
  Ag  Ag3       1.0  0.32900  0.93700  0.27500  1.0000
  Ag  Ag4       1.0  0.67100  0.06280  0.72500  1.0000
  Ag  Ag5       1.0  0.09510  0.75000  0.75000  1.0000
  Ag  Ag6       1.0  0.38400  0.43700  0.77500  1.0000
  As  As1       1.0  0.25500  0.18500  0.05160  1.0000
  As  As2       1.0  0.59500  0.85100  0.05190  1.0000
  As  As3       1.0  0.92700  0.51500  0.05360  1.0000
  As  As4       1.0  0.85800  0.98500  0.44600  1.0000
  As  As5       1.0  0.19200  0.64900  0.44800  1.0000
  As  As6       1.0  0.51800  0.31500  0.44800  1.0000
  As  As7       1.0  0.48200  0.68500  0.55200  1.0000
  As  As8       1.0  0.80800  0.35100  0.55200  1.0000
  As  As9       1.0  0.14200  0.01540  0.55400  1.0000
  As  As10      1.0  0.07330  0.48500  0.94600  1.0000
  As  As11      1.0  0.40500  0.14900  0.94800  1.0000
  As  As12      1.0  0.74500  0.81500  0.94800  1.0000
  Cl  Cl1       1.0  0.50000  0.50000  0.00000  1.0000
  Cl  Cl2       1.0  0.86400  0.18500  0.06150  1.0000
  Cl  Cl3       1.0  0.39100  0.77100  0.24100  1.0000
  Cl  Cl4       1.0  0.35200  0.47700  0.24900  1.0000
  Cl  Cl5       1.0  0.59600  0.09550  0.24900  1.0000
  Cl  Cl6       1.0  0.75200  0.40500  0.25100  1.0000
  Cl  Cl7       1.0  0.12700  0.02270  0.25100  1.0000
  Cl  Cl8       1.0  0.87900  0.72900  0.25900  1.0000
  Cl  Cl9       1.0  0.11700  0.31500  0.43900  1.0000
  Cl  Cl10      1.0  0.50000  0.00000  0.50000  1.0000
  Cl  Cl11      1.0  0.88300  0.68500  0.56100  1.0000
  Cl  Cl12      1.0  0.12100  0.27100  0.74100  1.0000
  Cl  Cl13      1.0  0.87300  0.97700  0.74900  1.0000
  Cl  Cl14      1.0  0.24800  0.59500  0.74900  1.0000
  Cl  Cl15      1.0  0.40400  0.90500  0.75100  1.0000
  Cl  Cl16      1.0  0.64800  0.52300  0.75100  1.0000
  Cl  Cl17      1.0  0.60900  0.22900  0.75900  1.0000
  Cl  Cl18      1.0  0.13600  0.81500  0.93900  1.0000
  Hg  Hg1       1.0  0.00000  0.00000  0.00000  1.0000
  Hg  Hg2       1.0  0.50000  0.00000  0.00000  1.0000
  Hg  Hg3       1.0  0.83200  0.66300  0.00061  1.0000
  Hg  Hg4       1.0  0.66700  0.33100  0.00182  1.0000
  Hg  Hg5       1.0  0.79400  0.91200  0.24900  1.0000
  Hg  Hg6       1.0  0.45100  0.25000  0.25000  1.0000
  Hg  Hg7       1.0  0.13300  0.58800  0.25100  1.0000
  Hg  Hg8       1.0  0.83500  0.16900  0.49800  1.0000
  Hg  Hg9       1.0  0.66800  0.83700  0.49900  1.0000
  Hg  Hg10      1.0  0.00000  0.50000  0.50000  1.0000
  Hg  Hg11      1.0  0.50000  0.50000  0.50000  1.0000
  Hg  Hg12      1.0  0.33200  0.16300  0.50100  1.0000
  Hg  Hg13      1.0  0.16500  0.83100  0.50200  1.0000
  Hg  Hg14      1.0  0.86700  0.41200  0.74900  1.0000
  Hg  Hg15      1.0  0.54900  0.75000  0.75000  1.0000
  Hg  Hg16      1.0  0.20600  0.08820  0.75100  1.0000
  Hg  Hg17      1.0  0.33300  0.66900  0.99800  1.0000
  Hg  Hg18      1.0  0.16800  0.33700  0.99900  1.0000
