data_image0
_chemical_formula_structural       Cd4Cs4O36P12
_chemical_formula_sum              "Cd4 Cs4 O36 P12"
_cell_length_a       7.50722
_cell_length_b       12.6671
_cell_length_c       9.32788
_cell_angle_alpha    90
_cell_angle_beta     90
_cell_angle_gamma    90

_space_group_name_H-M_alt    "P 1"
_space_group_IT_number       1

loop_
  _space_group_symop_operation_xyz
  'x, y, z'

loop_
  _atom_site_type_symbol
  _atom_site_label
  _atom_site_symmetry_multiplicity
  _atom_site_fract_x
  _atom_site_fract_y
  _atom_site_fract_z
  _atom_site_occupancy
  Cd  Cd1       1.0  0.75000  0.21700  0.01710  1.0000
  Cd  Cd2       1.0  0.25000  0.71700  0.48300  1.0000
  Cd  Cd3       1.0  0.75000  0.28300  0.51700  1.0000
  Cd  Cd4       1.0  0.25000  0.78300  0.98300  1.0000
  Cs  Cs1       1.0  0.25000  0.08350  0.12500  1.0000
  Cs  Cs2       1.0  0.75000  0.58400  0.37500  1.0000
  Cs  Cs3       1.0  0.25000  0.41600  0.62500  1.0000
  Cs  Cs4       1.0  0.75000  0.91600  0.87500  1.0000
  O   O1        1.0  0.25000  0.62400  0.08660  1.0000
  O   O2        1.0  0.05280  0.87400  0.12100  1.0000
  O   O3        1.0  0.44700  0.87400  0.12100  1.0000
  O   O4        1.0  0.50900  0.26800  0.14300  1.0000
  O   O5        1.0  0.99100  0.26800  0.14300  1.0000
  O   O6        1.0  0.75000  0.06200  0.14700  1.0000
  O   O7        1.0  0.08380  0.46000  0.15900  1.0000
  O   O8        1.0  0.41600  0.46000  0.15900  1.0000
  O   O9        1.0  0.75000  0.81900  0.20100  1.0000
  O   O10       1.0  0.25000  0.31900  0.29900  1.0000
  O   O11       1.0  0.58400  0.96000  0.34100  1.0000
  O   O12       1.0  0.91600  0.96000  0.34100  1.0000
  O   O13       1.0  0.25000  0.56200  0.35300  1.0000
  O   O14       1.0  0.00900  0.76800  0.35700  1.0000
  O   O15       1.0  0.49100  0.76800  0.35700  1.0000
  O   O16       1.0  0.55300  0.37400  0.37900  1.0000
  O   O17       1.0  0.94700  0.37400  0.37900  1.0000
  O   O18       1.0  0.75000  0.12400  0.41300  1.0000
  O   O19       1.0  0.25000  0.87600  0.58700  1.0000
  O   O20       1.0  0.05280  0.62600  0.62100  1.0000
  O   O21       1.0  0.44700  0.62600  0.62100  1.0000
  O   O22       1.0  0.50900  0.23200  0.64300  1.0000
  O   O23       1.0  0.99100  0.23200  0.64300  1.0000
  O   O24       1.0  0.75000  0.43800  0.64700  1.0000
  O   O25       1.0  0.08380  0.03970  0.65900  1.0000
  O   O26       1.0  0.41600  0.03970  0.65900  1.0000
  O   O27       1.0  0.75000  0.68100  0.70100  1.0000
  O   O28       1.0  0.25000  0.18100  0.79900  1.0000
  O   O29       1.0  0.58400  0.54000  0.84100  1.0000
  O   O30       1.0  0.91600  0.54000  0.84100  1.0000
  O   O31       1.0  0.25000  0.93800  0.85300  1.0000
  O   O32       1.0  0.00900  0.73200  0.85700  1.0000
  O   O33       1.0  0.49100  0.73200  0.85700  1.0000
  O   O34       1.0  0.55300  0.12600  0.87900  1.0000
  O   O35       1.0  0.94700  0.12600  0.87900  1.0000
  O   O36       1.0  0.75000  0.37600  0.91300  1.0000
  P   P1        1.0  0.25000  0.53900  0.19500  1.0000
  P   P2        1.0  0.05160  0.35100  0.24600  1.0000
  P   P3        1.0  0.44800  0.35100  0.24600  1.0000
  P   P4        1.0  0.55200  0.85100  0.25400  1.0000
  P   P5        1.0  0.94800  0.85100  0.25400  1.0000
  P   P6        1.0  0.75000  0.03950  0.30500  1.0000
  P   P7        1.0  0.25000  0.96100  0.69500  1.0000
  P   P8        1.0  0.05160  0.14900  0.74600  1.0000
  P   P9        1.0  0.44800  0.14900  0.74600  1.0000
  P   P10       1.0  0.55200  0.64900  0.75400  1.0000
  P   P11       1.0  0.94800  0.64900  0.75400  1.0000
  P   P12       1.0  0.75000  0.46100  0.80500  1.0000
