data_image0
_chemical_formula_structural       Ag20O26Si8
_chemical_formula_sum              "Ag20 O26 Si8"
_cell_length_a       11.386
_cell_length_b       9.1869
_cell_length_c       8.02134
_cell_angle_alpha    101.169
_cell_angle_beta     98.231
_cell_angle_gamma    112.576

_space_group_name_H-M_alt    "P 1"
_space_group_IT_number       1

loop_
  _space_group_symop_operation_xyz
  'x, y, z'

loop_
  _atom_site_type_symbol
  _atom_site_label
  _atom_site_symmetry_multiplicity
  _atom_site_fract_x
  _atom_site_fract_y
  _atom_site_fract_z
  _atom_site_occupancy
  Ag  Ag1       1.0  0.57100  0.18200  0.00430  1.0000
  Ag  Ag2       1.0  0.63800  0.59100  0.12200  1.0000
  Ag  Ag3       1.0  0.91200  0.40400  0.15000  1.0000
  Ag  Ag4       1.0  0.92400  0.72300  0.15900  1.0000
  Ag  Ag5       1.0  0.06630  0.16900  0.20900  1.0000
  Ag  Ag6       1.0  0.56700  0.07870  0.31700  1.0000
  Ag  Ag7       1.0  0.43400  0.37200  0.32400  1.0000
  Ag  Ag8       1.0  0.54700  0.76400  0.37300  1.0000
  Ag  Ag9       1.0  0.83300  0.86700  0.42800  1.0000
  Ag  Ag10      1.0  0.91000  0.26400  0.42800  1.0000
  Ag  Ag11      1.0  0.08960  0.73600  0.57200  1.0000
  Ag  Ag12      1.0  0.16700  0.13300  0.57200  1.0000
  Ag  Ag13      1.0  0.45300  0.23600  0.62700  1.0000
  Ag  Ag14      1.0  0.56600  0.62800  0.67600  1.0000
  Ag  Ag15      1.0  0.43300  0.92100  0.68300  1.0000
  Ag  Ag16      1.0  0.93400  0.83100  0.79100  1.0000
  Ag  Ag17      1.0  0.07560  0.27700  0.84100  1.0000
  Ag  Ag18      1.0  0.08770  0.59600  0.85000  1.0000
  Ag  Ag19      1.0  0.36200  0.40900  0.87800  1.0000
  Ag  Ag20      1.0  0.42900  0.81800  0.99600  1.0000
  O   O1        1.0  0.62000  0.79100  0.03130  1.0000
  O   O2        1.0  0.21700  0.01050  0.11700  1.0000
  O   O3        1.0  0.11200  0.41600  0.11800  1.0000
  O   O4        1.0  0.22800  0.73800  0.15700  1.0000
  O   O5        1.0  0.37600  0.57300  0.16800  1.0000
  O   O6        1.0  0.72800  0.12400  0.17600  1.0000
  O   O7        1.0  0.87900  0.96000  0.18800  1.0000
  O   O8        1.0  0.62800  0.41000  0.27300  1.0000
  O   O9        1.0  0.12000  0.89000  0.36600  1.0000
  O   O10       1.0  0.89100  0.56000  0.39100  1.0000
  O   O11       1.0  0.38300  0.01840  0.40100  1.0000
  O   O12       1.0  0.26000  0.62500  0.43200  1.0000
  O   O13       1.0  0.25900  0.33200  0.43300  1.0000
  O   O14       1.0  0.74100  0.66800  0.56700  1.0000
  O   O15       1.0  0.74000  0.37500  0.56800  1.0000
  O   O16       1.0  0.61700  0.98200  0.59900  1.0000
  O   O17       1.0  0.10900  0.44000  0.60900  1.0000
  O   O18       1.0  0.88000  0.11000  0.63400  1.0000
  O   O19       1.0  0.37200  0.59000  0.72700  1.0000
  O   O20       1.0  0.12100  0.04030  0.81200  1.0000
  O   O21       1.0  0.27200  0.87600  0.82400  1.0000
  O   O22       1.0  0.62400  0.42700  0.83200  1.0000
  O   O23       1.0  0.77200  0.26200  0.84300  1.0000
  O   O24       1.0  0.88800  0.58400  0.88200  1.0000
  O   O25       1.0  0.78300  0.98900  0.88300  1.0000
  O   O26       1.0  0.38000  0.20900  0.96900  1.0000
  Si  Si1       1.0  0.75000  0.96500  0.07350  1.0000
  Si  Si2       1.0  0.24500  0.58100  0.21700  1.0000
  Si  Si3       1.0  0.23800  0.91800  0.26800  1.0000
  Si  Si4       1.0  0.75100  0.50700  0.44600  1.0000
  Si  Si5       1.0  0.24900  0.49300  0.55400  1.0000
  Si  Si6       1.0  0.76200  0.08170  0.73200  1.0000
  Si  Si7       1.0  0.75500  0.41900  0.78300  1.0000
  Si  Si8       1.0  0.25000  0.03550  0.92600  1.0000
