data_image0
_chemical_formula_structural       Er4O36P12
_chemical_formula_sum              "Er4 O36 P12"
_cell_length_a       10.7342
_cell_length_b       6.88296
_cell_length_c       9.65967
_cell_angle_alpha    90
_cell_angle_beta     90
_cell_angle_gamma    91.2398

_space_group_name_H-M_alt    "P 1"
_space_group_IT_number       1

loop_
  _space_group_symop_operation_xyz
  'x, y, z'

loop_
  _atom_site_type_symbol
  _atom_site_label
  _atom_site_symmetry_multiplicity
  _atom_site_fract_x
  _atom_site_fract_y
  _atom_site_fract_z
  _atom_site_occupancy
  Er  Er1       1.0  0.99900  0.00730  0.00000  1.0000
  Er  Er2       1.0  0.47800  0.86100  0.00000  1.0000
  Er  Er3       1.0  0.92800  0.33800  0.50000  1.0000
  Er  Er4       1.0  0.45000  0.48600  0.50000  1.0000
  O   O1        1.0  0.46700  0.18400  0.00000  1.0000
  O   O2        1.0  0.99600  0.32700  0.00000  1.0000
  O   O3        1.0  0.51400  0.55000  0.00000  1.0000
  O   O4        1.0  0.04110  0.69200  0.00000  1.0000
  O   O5        1.0  0.19000  0.46600  0.12200  1.0000
  O   O6        1.0  0.65700  0.31500  0.12500  1.0000
  O   O7        1.0  0.62300  0.89700  0.15900  1.0000
  O   O8        1.0  0.86000  0.95300  0.16000  1.0000
  O   O9        1.0  0.14200  0.03370  0.16300  1.0000
  O   O10       1.0  0.34400  0.83900  0.17000  1.0000
  O   O11       1.0  0.77400  0.62000  0.19400  1.0000
  O   O12       1.0  0.15300  0.72600  0.30400  1.0000
  O   O13       1.0  0.58500  0.51100  0.33200  1.0000
  O   O14       1.0  0.78600  0.31200  0.33500  1.0000
  O   O15       1.0  0.06770  0.39200  0.34000  1.0000
  O   O16       1.0  0.30500  0.45000  0.34100  1.0000
  O   O17       1.0  0.26700  0.03280  0.37600  1.0000
  O   O18       1.0  0.73900  0.87700  0.37800  1.0000
  O   O19       1.0  0.93200  0.01930  0.50000  1.0000
  O   O20       1.0  0.45800  0.16300  0.50000  1.0000
  O   O21       1.0  0.89100  0.65400  0.50000  1.0000
  O   O22       1.0  0.40900  0.79700  0.50000  1.0000
  O   O23       1.0  0.73900  0.87700  0.62200  1.0000
  O   O24       1.0  0.26700  0.03280  0.62400  1.0000
  O   O25       1.0  0.30500  0.45000  0.65900  1.0000
  O   O26       1.0  0.06770  0.39200  0.66000  1.0000
  O   O27       1.0  0.78600  0.31200  0.66500  1.0000
  O   O28       1.0  0.58500  0.51100  0.66800  1.0000
  O   O29       1.0  0.15300  0.72600  0.69600  1.0000
  O   O30       1.0  0.77400  0.62000  0.80600  1.0000
  O   O31       1.0  0.34400  0.83900  0.83000  1.0000
  O   O32       1.0  0.14200  0.03370  0.83700  1.0000
  O   O33       1.0  0.86000  0.95300  0.84000  1.0000
  O   O34       1.0  0.62300  0.89700  0.84100  1.0000
  O   O35       1.0  0.65700  0.31500  0.87500  1.0000
  O   O36       1.0  0.19000  0.46600  0.87800  1.0000
  P   P1        1.0  0.56000  0.34700  0.00000  1.0000
  P   P2        1.0  0.08980  0.49100  0.00000  1.0000
  P   P3        1.0  0.74800  0.84800  0.21500  1.0000
  P   P4        1.0  0.23000  0.91000  0.24200  1.0000
  P   P5        1.0  0.69700  0.43700  0.25800  1.0000
  P   P6        1.0  0.18000  0.49700  0.28500  1.0000
  P   P7        1.0  0.83900  0.85400  0.50000  1.0000
  P   P8        1.0  0.36400  0.00000  0.50000  1.0000
  P   P9        1.0  0.18000  0.49700  0.71500  1.0000
  P   P10       1.0  0.69700  0.43700  0.74200  1.0000
  P   P11       1.0  0.23000  0.91000  0.75800  1.0000
  P   P12       1.0  0.74800  0.84800  0.78500  1.0000
