data_image0
_chemical_formula_structural       Ba6C10F4La4O30
_chemical_formula_sum              "Ba6 C10 F4 La4 O30"
_cell_length_a       5.08566
_cell_length_b       10.9925
_cell_length_c       13.0921
_cell_angle_alpha    94.4058
_cell_angle_beta     90
_cell_angle_gamma    103.375

_space_group_name_H-M_alt    "P 1"
_space_group_IT_number       1

loop_
  _space_group_symop_operation_xyz
  'x, y, z'

loop_
  _atom_site_type_symbol
  _atom_site_label
  _atom_site_symmetry_multiplicity
  _atom_site_fract_x
  _atom_site_fract_y
  _atom_site_fract_z
  _atom_site_occupancy
  Ba  Ba1       1.0  0.00000  0.00000  0.00000  1.0000
  Ba  Ba2       1.0  0.68700  0.37400  0.09540  1.0000
  Ba  Ba3       1.0  0.80800  0.61600  0.39900  1.0000
  Ba  Ba4       1.0  0.50000  0.00000  0.50000  1.0000
  Ba  Ba5       1.0  0.19200  0.38400  0.60100  1.0000
  Ba  Ba6       1.0  0.31300  0.62600  0.90500  1.0000
  C   C1        1.0  0.83900  0.67700  0.09720  1.0000
  C   C2        1.0  0.54100  0.08300  0.20000  1.0000
  C   C3        1.0  0.24600  0.49300  0.27600  1.0000
  C   C4        1.0  0.95200  0.90400  0.35500  1.0000
  C   C5        1.0  0.65000  0.30100  0.46100  1.0000
  C   C6        1.0  0.35000  0.69900  0.53900  1.0000
  C   C7        1.0  0.04820  0.09640  0.64500  1.0000
  C   C8        1.0  0.75400  0.50700  0.72400  1.0000
  C   C9        1.0  0.45900  0.91700  0.80000  1.0000
  C   C10       1.0  0.16100  0.32300  0.90300  1.0000
  F   F1        1.0  0.42800  0.85500  0.01270  1.0000
  F   F2        1.0  0.12600  0.25200  0.11000  1.0000
  F   F3        1.0  0.87400  0.74800  0.89000  1.0000
  F   F4        1.0  0.57200  0.14500  0.98700  1.0000
  La  La1       1.0  0.40000  0.80000  0.18500  1.0000
  La  La2       1.0  0.10500  0.21100  0.28800  1.0000
  La  La3       1.0  0.89500  0.78900  0.71200  1.0000
  La  La4       1.0  0.60000  0.20000  0.81500  1.0000
  O   O1        1.0  0.03130  0.61900  0.08380  1.0000
  O   O2        1.0  0.58800  0.61900  0.08380  1.0000
  O   O3        1.0  0.89800  0.79500  0.13100  1.0000
  O   O4        1.0  0.29200  0.02450  0.18600  1.0000
  O   O5        1.0  0.73300  0.02450  0.18600  1.0000
  O   O6        1.0  0.60000  0.20000  0.23500  1.0000
  O   O7        1.0  0.43400  0.43100  0.27600  1.0000
  O   O8        1.0  0.99600  0.43100  0.27600  1.0000
  O   O9        1.0  0.30700  0.61300  0.28100  1.0000
  O   O10       1.0  0.14300  0.84400  0.34200  1.0000
  O   O11       1.0  0.70100  0.84400  0.34200  1.0000
  O   O12       1.0  0.01030  0.02050  0.38800  1.0000
  O   O13       1.0  0.40100  0.24200  0.44300  1.0000
  O   O14       1.0  0.84100  0.24200  0.44300  1.0000
  O   O15       1.0  0.29300  0.58700  0.49500  1.0000
  O   O16       1.0  0.70700  0.41300  0.50500  1.0000
  O   O17       1.0  0.15900  0.75800  0.55700  1.0000
  O   O18       1.0  0.59900  0.75800  0.55700  1.0000
  O   O19       1.0  0.99000  0.97900  0.61200  1.0000
  O   O20       1.0  0.29900  0.15600  0.65800  1.0000
  O   O21       1.0  0.85700  0.15600  0.65800  1.0000
  O   O22       1.0  0.69300  0.38700  0.71900  1.0000
  O   O23       1.0  0.00384  0.56900  0.72400  1.0000
  O   O24       1.0  0.56600  0.56900  0.72400  1.0000
  O   O25       1.0  0.40000  0.80000  0.76500  1.0000
  O   O26       1.0  0.26700  0.97500  0.81400  1.0000
  O   O27       1.0  0.70800  0.97500  0.81400  1.0000
  O   O28       1.0  0.10200  0.20500  0.86900  1.0000
  O   O29       1.0  0.41200  0.38100  0.91600  1.0000
  O   O30       1.0  0.96900  0.38100  0.91600  1.0000
