data_image0
_chemical_formula_structural       Nd12S34Si8
_chemical_formula_sum              "Nd12 S34 Si8"
_cell_length_a       8.9586
_cell_length_b       9.97937
_cell_length_c       14.2638
_cell_angle_alpha    81.981
_cell_angle_beta     87.0633
_cell_angle_gamma    89.2549

_space_group_name_H-M_alt    "P 1"
_space_group_IT_number       1

loop_
  _space_group_symop_operation_xyz
  'x, y, z'

loop_
  _atom_site_type_symbol
  _atom_site_label
  _atom_site_symmetry_multiplicity
  _atom_site_fract_x
  _atom_site_fract_y
  _atom_site_fract_z
  _atom_site_occupancy
  Nd  Nd1       1.0  0.44900  0.73900  0.00133  1.0000
  Nd  Nd2       1.0  0.08470  0.08100  0.16500  1.0000
  Nd  Nd3       1.0  0.89400  0.61500  0.18400  1.0000
  Nd  Nd4       1.0  0.63200  0.93600  0.32300  1.0000
  Nd  Nd5       1.0  0.33200  0.41100  0.34200  1.0000
  Nd  Nd6       1.0  0.01740  0.76800  0.46100  1.0000
  Nd  Nd7       1.0  0.98300  0.23200  0.53900  1.0000
  Nd  Nd8       1.0  0.66800  0.58900  0.65800  1.0000
  Nd  Nd9       1.0  0.36800  0.06440  0.67700  1.0000
  Nd  Nd10      1.0  0.10600  0.38500  0.81600  1.0000
  Nd  Nd11      1.0  0.91500  0.91900  0.83500  1.0000
  Nd  Nd12      1.0  0.55100  0.26100  0.99900  1.0000
  S   S1        1.0  0.67800  0.51800  0.04380  1.0000
  S   S2        1.0  0.96100  0.85100  0.04770  1.0000
  S   S3        1.0  0.34100  0.00070  0.05720  1.0000
  S   S4        1.0  0.00783  0.37300  0.11500  1.0000
  S   S5        1.0  0.74300  0.11600  0.14900  1.0000
  S   S6        1.0  0.61700  0.78600  0.16200  1.0000
  S   S7        1.0  0.36800  0.28100  0.16700  1.0000
  S   S8        1.0  0.24800  0.61500  0.16800  1.0000
  S   S9        1.0  0.93300  0.85700  0.27800  1.0000
  S   S10       1.0  0.64400  0.46900  0.29300  1.0000
  S   S11       1.0  0.30400  0.91100  0.30100  1.0000
  S   S12       1.0  0.10700  0.20200  0.34500  1.0000
  S   S13       1.0  0.98600  0.50800  0.37700  1.0000
  S   S14       1.0  0.48500  0.15400  0.39600  1.0000
  S   S15       1.0  0.70200  0.69400  0.45900  1.0000
  S   S16       1.0  0.30700  0.63400  0.46000  1.0000
  S   S17       1.0  0.81600  0.02000  0.46700  1.0000
  S   S18       1.0  0.18400  0.98000  0.53300  1.0000
  S   S19       1.0  0.69300  0.36600  0.54000  1.0000
  S   S20       1.0  0.29800  0.30600  0.54100  1.0000
  S   S21       1.0  0.51500  0.84600  0.60400  1.0000
  S   S22       1.0  0.01400  0.49200  0.62300  1.0000
  S   S23       1.0  0.89300  0.79800  0.65500  1.0000
  S   S24       1.0  0.69600  0.08860  0.69900  1.0000
  S   S25       1.0  0.35600  0.53100  0.70700  1.0000
  S   S26       1.0  0.06660  0.14300  0.72200  1.0000
  S   S27       1.0  0.75200  0.38500  0.83200  1.0000
  S   S28       1.0  0.63200  0.71900  0.83300  1.0000
  S   S29       1.0  0.38300  0.21400  0.83800  1.0000
  S   S30       1.0  0.25700  0.88400  0.85100  1.0000
  S   S31       1.0  0.99200  0.62700  0.88500  1.0000
  S   S32       1.0  0.65900  0.99900  0.94300  1.0000
  S   S33       1.0  0.03940  0.14900  0.95200  1.0000
  S   S34       1.0  0.32200  0.48200  0.95600  1.0000
  Si  Si1       1.0  0.75000  0.94000  0.07730  1.0000
  Si  Si2       1.0  0.23100  0.43800  0.09900  1.0000
  Si  Si3       1.0  0.27600  0.05790  0.39400  1.0000
  Si  Si4       1.0  0.75000  0.50000  0.41600  1.0000
  Si  Si5       1.0  0.25000  0.50000  0.58400  1.0000
  Si  Si6       1.0  0.72400  0.94200  0.60600  1.0000
  Si  Si7       1.0  0.76900  0.56200  0.90100  1.0000
  Si  Si8       1.0  0.25000  0.06000  0.92300  1.0000
