data_image0
_chemical_formula_structural       Cl9Cs3Sb2
_chemical_formula_sum              "Cl9 Cs3 Sb2"
_cell_length_a       7.66592
_cell_length_b       7.66599
_cell_length_c       9.38843
_cell_angle_alpha    90
_cell_angle_beta     89.9998
_cell_angle_gamma    120

_space_group_name_H-M_alt    "P 1"
_space_group_IT_number       1

loop_
  _space_group_symop_operation_xyz
  'x, y, z'

loop_
  _atom_site_type_symbol
  _atom_site_label
  _atom_site_symmetry_multiplicity
  _atom_site_fract_x
  _atom_site_fract_y
  _atom_site_fract_z
  _atom_site_occupancy
  Cl  Cl1       1.0  0.00000  0.50000  1.00000  1.0000
  Cl  Cl2       1.0  0.50000  0.00000  0.00000  1.0000
  Cl  Cl3       1.0  0.50000  0.50000  0.00000  1.0000
  Cl  Cl4       1.0  0.34900  0.17400  0.33300  1.0000
  Cl  Cl5       1.0  0.82600  0.17400  0.33300  1.0000
  Cl  Cl6       1.0  0.82600  0.65100  0.33300  1.0000
  Cl  Cl7       1.0  0.17400  0.34900  0.66700  1.0000
  Cl  Cl8       1.0  0.17400  0.82600  0.66700  1.0000
  Cl  Cl9       1.0  0.65100  0.82600  0.66700  1.0000
  Cs  Cs1       1.0  0.00000  0.00000  0.00000  1.0000
  Cs  Cs2       1.0  0.33300  0.66700  0.33600  1.0000
  Cs  Cs3       1.0  0.66700  0.33300  0.66400  1.0000
  Sb  Sb1       1.0  0.66700  0.33300  0.18400  1.0000
  Sb  Sb2       1.0  0.33300  0.66700  0.81600  1.0000
