data_image0
_chemical_formula_structural       Ca6Na4O32Si12
_chemical_formula_sum              "Ca6 Na4 O32 Si12"
_cell_length_a       10.123
_cell_length_b       10.554
_cell_length_c       7.19276
_cell_angle_alpha    109.921
_cell_angle_beta     98.8682
_cell_angle_gamma    77.8055

_space_group_name_H-M_alt    "P 1"
_space_group_IT_number       1

loop_
  _space_group_symop_operation_xyz
  'x, y, z'

loop_
  _atom_site_type_symbol
  _atom_site_label
  _atom_site_symmetry_multiplicity
  _atom_site_fract_x
  _atom_site_fract_y
  _atom_site_fract_z
  _atom_site_occupancy
  Ca  Ca1       1.0  0.87800  0.12300  0.15700  1.0000
  Ca  Ca2       1.0  0.13200  0.88700  0.34900  1.0000
  Ca  Ca3       1.0  0.15300  0.51500  0.42000  1.0000
  Ca  Ca4       1.0  0.84700  0.48500  0.58000  1.0000
  Ca  Ca5       1.0  0.86800  0.11300  0.65100  1.0000
  Ca  Ca6       1.0  0.12200  0.87700  0.84300  1.0000
  Na  Na1       1.0  0.86400  0.48100  0.08250  1.0000
  Na  Na2       1.0  0.58300  0.81500  0.17400  1.0000
  Na  Na3       1.0  0.41700  0.18500  0.82600  1.0000
  Na  Na4       1.0  0.13600  0.51900  0.91700  1.0000
  O   O1        1.0  0.44300  0.64600  0.04850  1.0000
  O   O2        1.0  0.97500  0.87100  0.06510  1.0000
  O   O3        1.0  0.28300  0.16300  0.07250  1.0000
  O   O4        1.0  0.08600  0.38600  0.11600  1.0000
  O   O5        1.0  0.25000  0.93600  0.14300  1.0000
  O   O6        1.0  0.54200  0.24700  0.21800  1.0000
  O   O7        1.0  0.81600  0.75900  0.22000  1.0000
  O   O8        1.0  0.75800  0.36900  0.25500  1.0000
  O   O9        1.0  0.48300  0.03160  0.25500  1.0000
  O   O10       1.0  0.23900  0.64300  0.25700  1.0000
  O   O11       1.0  0.49900  0.51200  0.30700  1.0000
  O   O12       1.0  0.74300  0.07550  0.34500  1.0000
  O   O13       1.0  0.45000  0.77800  0.41800  1.0000
  O   O14       1.0  0.27100  0.17500  0.44100  1.0000
  O   O15       1.0  0.93400  0.61500  0.44700  1.0000
  O   O16       1.0  0.02390  0.12500  0.45000  1.0000
  O   O17       1.0  0.97600  0.87500  0.55000  1.0000
  O   O18       1.0  0.06620  0.38500  0.55300  1.0000
  O   O19       1.0  0.72900  0.82500  0.55900  1.0000
  O   O20       1.0  0.55000  0.22200  0.58200  1.0000
  O   O21       1.0  0.25700  0.92500  0.65500  1.0000
  O   O22       1.0  0.50100  0.48800  0.69300  1.0000
  O   O23       1.0  0.76100  0.35700  0.74300  1.0000
  O   O24       1.0  0.51700  0.96800  0.74500  1.0000
  O   O25       1.0  0.24200  0.63100  0.74500  1.0000
  O   O26       1.0  0.18400  0.24100  0.78000  1.0000
  O   O27       1.0  0.45800  0.75300  0.78200  1.0000
  O   O28       1.0  0.75000  0.06410  0.85700  1.0000
  O   O29       1.0  0.91400  0.61400  0.88400  1.0000
  O   O30       1.0  0.71700  0.83700  0.92800  1.0000
  O   O31       1.0  0.02510  0.12900  0.93500  1.0000
  O   O32       1.0  0.55700  0.35400  0.95100  1.0000
  Si  Si1       1.0  0.86600  0.76900  0.01720  1.0000
  Si  Si2       1.0  0.59800  0.37300  0.18800  1.0000
  Si  Si3       1.0  0.31600  0.07100  0.22300  1.0000
  Si  Si4       1.0  0.39800  0.64100  0.25600  1.0000
  Si  Si5       1.0  0.58700  0.14300  0.35000  1.0000
  Si  Si6       1.0  0.87100  0.76900  0.45100  1.0000
  Si  Si7       1.0  0.12900  0.23100  0.54900  1.0000
  Si  Si8       1.0  0.41300  0.85700  0.65000  1.0000
  Si  Si9       1.0  0.60200  0.35900  0.74400  1.0000
  Si  Si10      1.0  0.68400  0.92900  0.77700  1.0000
  Si  Si11      1.0  0.40200  0.62700  0.81200  1.0000
  Si  Si12      1.0  0.13400  0.23100  0.98300  1.0000
