data_image0
_chemical_formula_structural       B12H40N4
_chemical_formula_sum              "B12 H40 N4"
_cell_length_a       10.0896
_cell_length_b       4.69661
_cell_length_c       9.74004
_cell_angle_alpha    90
_cell_angle_beta     114.338
_cell_angle_gamma    90

_space_group_name_H-M_alt    "P 1"
_space_group_IT_number       1

loop_
  _space_group_symop_operation_xyz
  'x, y, z'

loop_
  _atom_site_type_symbol
  _atom_site_label
  _atom_site_symmetry_multiplicity
  _atom_site_fract_x
  _atom_site_fract_y
  _atom_site_fract_z
  _atom_site_occupancy
  B   B1        1.0  0.90600  0.17600  0.11300  1.0000
  B   B2        1.0  0.56900  0.69800  0.19700  1.0000
  B   B3        1.0  0.43300  0.53800  0.24000  1.0000
  B   B4        1.0  0.06670  0.03840  0.26000  1.0000
  B   B5        1.0  0.93100  0.19800  0.30300  1.0000
  B   B6        1.0  0.59400  0.67600  0.38700  1.0000
  B   B7        1.0  0.40600  0.32400  0.61300  1.0000
  B   B8        1.0  0.06900  0.80200  0.69700  1.0000
  B   B9        1.0  0.93300  0.96200  0.74000  1.0000
  B   B10       1.0  0.56700  0.46200  0.76000  1.0000
  B   B11       1.0  0.43100  0.30200  0.80300  1.0000
  B   B12       1.0  0.09400  0.82400  0.88700  1.0000
  H   H1        1.0  0.14800  0.22100  0.01520  1.0000
  H   H2        1.0  0.94600  0.32700  0.03820  1.0000
  H   H3        1.0  0.74300  0.84000  0.06990  1.0000
  H   H4        1.0  0.27800  0.98000  0.08460  1.0000
  H   H5        1.0  0.44200  0.52600  0.11300  1.0000
  H   H6        1.0  0.53800  0.92000  0.13000  1.0000
  H   H7        1.0  0.83100  0.34100  0.15400  1.0000
  H   H8        1.0  0.65900  0.55400  0.17700  1.0000
  H   H9        1.0  0.32500  0.67500  0.22000  1.0000
  H   H10       1.0  0.06960  0.79100  0.22800  1.0000
  H   H11       1.0  0.43000  0.29100  0.27200  1.0000
  H   H12       1.0  0.17500  0.17500  0.28000  1.0000
  H   H13       1.0  0.84100  0.05350  0.32300  1.0000
  H   H14       1.0  0.66900  0.84100  0.34600  1.0000
  H   H15       1.0  0.96200  0.42000  0.37000  1.0000
  H   H16       1.0  0.05790  0.02640  0.38700  1.0000
  H   H17       1.0  0.22200  0.48000  0.41500  1.0000
  H   H18       1.0  0.75700  0.34000  0.43000  1.0000
  H   H19       1.0  0.55400  0.82700  0.46200  1.0000
  H   H20       1.0  0.35200  0.72100  0.48500  1.0000
  H   H21       1.0  0.64800  0.27900  0.51500  1.0000
  H   H22       1.0  0.44600  0.17300  0.53800  1.0000
  H   H23       1.0  0.24300  0.66000  0.57000  1.0000
  H   H24       1.0  0.77800  0.52000  0.58500  1.0000
  H   H25       1.0  0.94200  0.97400  0.61300  1.0000
  H   H26       1.0  0.03820  0.58000  0.63000  1.0000
  H   H27       1.0  0.33100  0.15900  0.65400  1.0000
  H   H28       1.0  0.15900  0.94600  0.67700  1.0000
  H   H29       1.0  0.82500  0.82500  0.72000  1.0000
  H   H30       1.0  0.57000  0.70900  0.72800  1.0000
  H   H31       1.0  0.93000  0.20900  0.77200  1.0000
  H   H32       1.0  0.67500  0.32500  0.78000  1.0000
  H   H33       1.0  0.34100  0.44600  0.82300  1.0000
  H   H34       1.0  0.16900  0.65900  0.84600  1.0000
  H   H35       1.0  0.46200  0.07980  0.87000  1.0000
  H   H36       1.0  0.55800  0.47400  0.88700  1.0000
  H   H37       1.0  0.72200  0.02010  0.91500  1.0000
  H   H38       1.0  0.25700  0.16000  0.93000  1.0000
  H   H39       1.0  0.05360  0.67300  0.96200  1.0000
  H   H40       1.0  0.85200  0.77900  0.98500  1.0000
  N   N1        1.0  0.79800  0.93700  0.01470  1.0000
  N   N2        1.0  0.70200  0.43700  0.48500  1.0000
  N   N3        1.0  0.29800  0.56300  0.51500  1.0000
  N   N4        1.0  0.20200  0.06280  0.98500  1.0000
