data_image0
_chemical_formula_structural       Ce8Ge16Pt28
_chemical_formula_sum              "Ce8 Ge16 Pt28"
_cell_length_a       20.146
_cell_length_b       4.16449
_cell_length_c       11.6263
_cell_angle_alpha    90
_cell_angle_beta     90
_cell_angle_gamma    90

_space_group_name_H-M_alt    "P 1"
_space_group_IT_number       1

loop_
  _space_group_symop_operation_xyz
  'x, y, z'

loop_
  _atom_site_type_symbol
  _atom_site_label
  _atom_site_symmetry_multiplicity
  _atom_site_fract_x
  _atom_site_fract_y
  _atom_site_fract_z
  _atom_site_occupancy
  Ce  Ce1       1.0  0.28000  0.25000  0.01280  1.0000
  Ce  Ce2       1.0  0.47200  0.25000  0.24400  1.0000
  Ce  Ce3       1.0  0.97200  0.25000  0.25600  1.0000
  Ce  Ce4       1.0  0.78000  0.25000  0.48700  1.0000
  Ce  Ce5       1.0  0.22000  0.75000  0.51300  1.0000
  Ce  Ce6       1.0  0.02820  0.75000  0.74400  1.0000
  Ce  Ce7       1.0  0.52800  0.75000  0.75600  1.0000
  Ce  Ce8       1.0  0.72000  0.75000  0.98700  1.0000
  Ge  Ge1       1.0  0.41300  0.75000  0.06270  1.0000
  Ge  Ge2       1.0  0.91400  0.75000  0.07730  1.0000
  Ge  Ge3       1.0  0.75500  0.25000  0.20700  1.0000
  Ge  Ge4       1.0  0.59500  0.75000  0.24700  1.0000
  Ge  Ge5       1.0  0.09490  0.75000  0.25300  1.0000
  Ge  Ge6       1.0  0.25500  0.25000  0.29300  1.0000
  Ge  Ge7       1.0  0.41400  0.75000  0.42300  1.0000
  Ge  Ge8       1.0  0.91300  0.75000  0.43700  1.0000
  Ge  Ge9       1.0  0.08740  0.25000  0.56300  1.0000
  Ge  Ge10      1.0  0.58600  0.25000  0.57700  1.0000
  Ge  Ge11      1.0  0.74500  0.75000  0.70700  1.0000
  Ge  Ge12      1.0  0.90500  0.25000  0.74700  1.0000
  Ge  Ge13      1.0  0.40500  0.25000  0.75300  1.0000
  Ge  Ge14      1.0  0.24500  0.75000  0.79300  1.0000
  Ge  Ge15      1.0  0.08610  0.25000  0.92300  1.0000
  Ge  Ge16      1.0  0.58700  0.25000  0.93700  1.0000
  Pt  Pt1       1.0  0.54100  0.75000  0.04550  1.0000
  Pt  Pt2       1.0  0.83900  0.25000  0.05270  1.0000
  Pt  Pt3       1.0  0.03500  0.75000  0.06210  1.0000
  Pt  Pt4       1.0  0.12900  0.25000  0.11900  1.0000
  Pt  Pt5       1.0  0.63400  0.25000  0.13300  1.0000
  Pt  Pt6       1.0  0.21500  0.75000  0.18400  1.0000
  Pt  Pt7       1.0  0.34700  0.75000  0.24300  1.0000
  Pt  Pt8       1.0  0.84700  0.75000  0.25700  1.0000
  Pt  Pt9       1.0  0.71500  0.75000  0.31600  1.0000
  Pt  Pt10      1.0  0.13400  0.25000  0.36700  1.0000
  Pt  Pt11      1.0  0.62900  0.25000  0.38100  1.0000
  Pt  Pt12      1.0  0.53500  0.75000  0.43800  1.0000
  Pt  Pt13      1.0  0.33900  0.25000  0.44700  1.0000
  Pt  Pt14      1.0  0.04150  0.75000  0.45400  1.0000
  Pt  Pt15      1.0  0.95900  0.25000  0.54600  1.0000
  Pt  Pt16      1.0  0.66100  0.75000  0.55300  1.0000
  Pt  Pt17      1.0  0.46500  0.25000  0.56200  1.0000
  Pt  Pt18      1.0  0.37100  0.75000  0.61900  1.0000
  Pt  Pt19      1.0  0.86600  0.75000  0.63300  1.0000
  Pt  Pt20      1.0  0.28500  0.25000  0.68400  1.0000
  Pt  Pt21      1.0  0.15300  0.25000  0.74300  1.0000
  Pt  Pt22      1.0  0.65300  0.25000  0.75700  1.0000
  Pt  Pt23      1.0  0.78500  0.25000  0.81600  1.0000
  Pt  Pt24      1.0  0.36600  0.75000  0.86700  1.0000
  Pt  Pt25      1.0  0.87100  0.75000  0.88100  1.0000
  Pt  Pt26      1.0  0.96500  0.25000  0.93800  1.0000
  Pt  Pt27      1.0  0.16100  0.75000  0.94700  1.0000
  Pt  Pt28      1.0  0.45900  0.25000  0.95400  1.0000
