data_image0
_chemical_formula_structural       Al4O36P12
_chemical_formula_sum              "Al4 O36 P12"
_cell_length_a       6.0577
_cell_length_b       14.8981
_cell_length_c       8.14746
_cell_angle_alpha    90
_cell_angle_beta     105.418
_cell_angle_gamma    90

_space_group_name_H-M_alt    "P 1"
_space_group_IT_number       1

loop_
  _space_group_symop_operation_xyz
  'x, y, z'

loop_
  _atom_site_type_symbol
  _atom_site_label
  _atom_site_symmetry_multiplicity
  _atom_site_fract_x
  _atom_site_fract_y
  _atom_site_fract_z
  _atom_site_occupancy
  Al  Al1       1.0  0.38700  0.86000  0.11800  1.0000
  Al  Al2       1.0  0.61300  0.36000  0.38200  1.0000
  Al  Al3       1.0  0.38700  0.64000  0.61800  1.0000
  Al  Al4       1.0  0.61300  0.14000  0.88200  1.0000
  O   O1        1.0  0.34800  0.57000  0.09000  1.0000
  O   O2        1.0  0.07710  0.88300  0.09160  1.0000
  O   O3        1.0  0.33400  0.73800  0.09880  1.0000
  O   O4        1.0  0.96500  0.34400  0.11400  1.0000
  O   O5        1.0  0.66700  0.12700  0.12000  1.0000
  O   O6        1.0  0.69400  0.83800  0.13500  1.0000
  O   O7        1.0  0.55500  0.34700  0.14300  1.0000
  O   O8        1.0  0.44000  0.98500  0.15400  1.0000
  O   O9        1.0  0.87900  0.98800  0.24800  1.0000
  O   O10       1.0  0.12100  0.48800  0.25200  1.0000
  O   O11       1.0  0.56000  0.48500  0.34600  1.0000
  O   O12       1.0  0.44500  0.84700  0.35700  1.0000
  O   O13       1.0  0.30600  0.33800  0.36500  1.0000
  O   O14       1.0  0.33300  0.62700  0.38000  1.0000
  O   O15       1.0  0.03540  0.84400  0.38600  1.0000
  O   O16       1.0  0.66600  0.23800  0.40100  1.0000
  O   O17       1.0  0.92300  0.38300  0.40800  1.0000
  O   O18       1.0  0.65200  0.07000  0.41000  1.0000
  O   O19       1.0  0.34800  0.93000  0.59000  1.0000
  O   O20       1.0  0.07710  0.61700  0.59200  1.0000
  O   O21       1.0  0.33400  0.76200  0.59900  1.0000
  O   O22       1.0  0.96500  0.15600  0.61400  1.0000
  O   O23       1.0  0.66700  0.37300  0.62000  1.0000
  O   O24       1.0  0.69400  0.66200  0.63500  1.0000
  O   O25       1.0  0.55500  0.15300  0.64300  1.0000
  O   O26       1.0  0.44000  0.51500  0.65400  1.0000
  O   O27       1.0  0.87900  0.51200  0.74800  1.0000
  O   O28       1.0  0.12100  0.01240  0.75200  1.0000
  O   O29       1.0  0.56000  0.01470  0.84600  1.0000
  O   O30       1.0  0.44500  0.65300  0.85700  1.0000
  O   O31       1.0  0.30600  0.16200  0.86500  1.0000
  O   O32       1.0  0.33300  0.87300  0.88000  1.0000
  O   O33       1.0  0.03540  0.65600  0.88600  1.0000
  O   O34       1.0  0.66600  0.26200  0.90100  1.0000
  O   O35       1.0  0.92300  0.11700  0.90800  1.0000
  O   O36       1.0  0.65200  0.43000  0.91000  1.0000
  P   P1        1.0  0.69600  0.33900  0.01900  1.0000
  P   P2        1.0  0.91600  0.88500  0.20200  1.0000
  P   P3        1.0  0.64600  0.04430  0.21900  1.0000
  P   P4        1.0  0.35400  0.54400  0.28100  1.0000
  P   P5        1.0  0.08360  0.38500  0.29800  1.0000
  P   P6        1.0  0.30400  0.83900  0.48100  1.0000
  P   P7        1.0  0.69600  0.16100  0.51900  1.0000
  P   P8        1.0  0.91600  0.61500  0.70200  1.0000
  P   P9        1.0  0.64600  0.45600  0.71900  1.0000
  P   P10       1.0  0.35400  0.95600  0.78100  1.0000
  P   P11       1.0  0.08360  0.11500  0.79800  1.0000
  P   P12       1.0  0.30400  0.66100  0.98100  1.0000
