data_image0
_chemical_formula_structural       Co4Hg4O4Te4
_chemical_formula_sum              "Co4 Hg4 O4 Te4"
_cell_length_a       5.9921
_cell_length_b       4.0471
_cell_length_c       13.8934
_cell_angle_alpha    90
_cell_angle_beta     90
_cell_angle_gamma    90

_space_group_name_H-M_alt    "P 1"
_space_group_IT_number       1

loop_
  _space_group_symop_operation_xyz
  'x, y, z'

loop_
  _atom_site_type_symbol
  _atom_site_label
  _atom_site_symmetry_multiplicity
  _atom_site_fract_x
  _atom_site_fract_y
  _atom_site_fract_z
  _atom_site_occupancy
  Co  Co1       1.0  0.63800  0.25000  0.19700  1.0000
  Co  Co2       1.0  0.13800  0.25000  0.30300  1.0000
  Co  Co3       1.0  0.86200  0.75000  0.69700  1.0000
  Co  Co4       1.0  0.36200  0.75000  0.80300  1.0000
  Hg  Hg1       1.0  0.22100  0.75000  0.09940  1.0000
  Hg  Hg2       1.0  0.72100  0.75000  0.40100  1.0000
  Hg  Hg3       1.0  0.27900  0.25000  0.59900  1.0000
  Hg  Hg4       1.0  0.77900  0.25000  0.90100  1.0000
  O   O1        1.0  0.31600  0.25000  0.19000  1.0000
  O   O2        1.0  0.81600  0.25000  0.31000  1.0000
  O   O3        1.0  0.18400  0.75000  0.69000  1.0000
  O   O4        1.0  0.68400  0.75000  0.81000  1.0000
  Te  Te1       1.0  0.74900  0.75000  0.08170  1.0000
  Te  Te2       1.0  0.24900  0.75000  0.41800  1.0000
  Te  Te3       1.0  0.75100  0.25000  0.58200  1.0000
  Te  Te4       1.0  0.25100  0.25000  0.91800  1.0000
