data_image0
_chemical_formula_structural       Gd6K6P8S32
_chemical_formula_sum              "Gd6 K6 P8 S32"
_cell_length_a       9.94351
_cell_length_b       9.94351
_cell_length_c       14.6824
_cell_angle_alpha    90.8755
_cell_angle_beta     90.8755
_cell_angle_gamma    71.9931

_space_group_name_H-M_alt    "P 1"
_space_group_IT_number       1

loop_
  _space_group_symop_operation_xyz
  'x, y, z'

loop_
  _atom_site_type_symbol
  _atom_site_label
  _atom_site_symmetry_multiplicity
  _atom_site_fract_x
  _atom_site_fract_y
  _atom_site_fract_z
  _atom_site_occupancy
  Gd  Gd1       1.0  0.51300  0.74800  0.01140  1.0000
  Gd  Gd2       1.0  0.74900  0.25100  0.25000  1.0000
  Gd  Gd3       1.0  0.25200  0.48700  0.48900  1.0000
  Gd  Gd4       1.0  0.74800  0.51300  0.51100  1.0000
  Gd  Gd5       1.0  0.25100  0.74900  0.75000  1.0000
  Gd  Gd6       1.0  0.48700  0.25200  0.98900  1.0000
  K   K1        1.0  0.00000  0.00000  0.00000  1.0000
  K   K2        1.0  0.97100  0.61000  0.16400  1.0000
  K   K3        1.0  0.39000  0.02870  0.33600  1.0000
  K   K4        1.0  0.00000  0.00000  0.50000  1.0000
  K   K5        1.0  0.61000  0.97100  0.66400  1.0000
  K   K6        1.0  0.02870  0.39000  0.83600  1.0000
  P   P1        1.0  0.76200  0.39800  0.02410  1.0000
  P   P2        1.0  0.66700  0.96300  0.13900  1.0000
  P   P3        1.0  0.03730  0.33300  0.36100  1.0000
  P   P4        1.0  0.60200  0.23800  0.47600  1.0000
  P   P5        1.0  0.39800  0.76200  0.52400  1.0000
  P   P6        1.0  0.96300  0.66700  0.63900  1.0000
  P   P7        1.0  0.33300  0.03730  0.86100  1.0000
  P   P8        1.0  0.23800  0.60200  0.97600  1.0000
  S   S1        1.0  0.32100  0.05320  0.00091  1.0000
  S   S2        1.0  0.21200  0.42000  0.02520  1.0000
  S   S3        1.0  0.25900  0.73100  0.08170  1.0000
  S   S4        1.0  0.58100  0.45600  0.10400  1.0000
  S   S5        1.0  0.92400  0.29500  0.10900  1.0000
  S   S6        1.0  0.52500  0.16000  0.17100  1.0000
  S   S7        1.0  0.59700  0.80500  0.18600  1.0000
  S   S8        1.0  0.85700  0.96000  0.19500  1.0000
  S   S9        1.0  0.04000  0.14300  0.30500  1.0000
  S   S10       1.0  0.19500  0.40300  0.31400  1.0000
  S   S11       1.0  0.84000  0.47500  0.32900  1.0000
  S   S12       1.0  0.70500  0.07550  0.39100  1.0000
  S   S13       1.0  0.54400  0.41900  0.39600  1.0000
  S   S14       1.0  0.26900  0.74100  0.41800  1.0000
  S   S15       1.0  0.58000  0.78800  0.47500  1.0000
  S   S16       1.0  0.94700  0.67900  0.49900  1.0000
  S   S17       1.0  0.05320  0.32100  0.50100  1.0000
  S   S18       1.0  0.42000  0.21200  0.52500  1.0000
  S   S19       1.0  0.73100  0.25900  0.58200  1.0000
  S   S20       1.0  0.45600  0.58100  0.60400  1.0000
  S   S21       1.0  0.29500  0.92400  0.60900  1.0000
  S   S22       1.0  0.16000  0.52500  0.67100  1.0000
  S   S23       1.0  0.80500  0.59700  0.68600  1.0000
  S   S24       1.0  0.96000  0.85700  0.69500  1.0000
  S   S25       1.0  0.14300  0.04000  0.80500  1.0000
  S   S26       1.0  0.40300  0.19500  0.81400  1.0000
  S   S27       1.0  0.47500  0.84000  0.82900  1.0000
  S   S28       1.0  0.07550  0.70500  0.89100  1.0000
  S   S29       1.0  0.41900  0.54400  0.89600  1.0000
  S   S30       1.0  0.74100  0.26900  0.91800  1.0000
  S   S31       1.0  0.78800  0.58000  0.97500  1.0000
  S   S32       1.0  0.67900  0.94700  0.99900  1.0000
