data_image0
_chemical_formula_structural       H24Mn2N4O20S4
_chemical_formula_sum              "H24 Mn2 N4 O20 S4"
_cell_length_a       6.143
_cell_length_b       5.324
_cell_length_c       15.441
_cell_angle_alpha    90
_cell_angle_beta     91.72
_cell_angle_gamma    90

_space_group_name_H-M_alt    "P 1"
_space_group_IT_number       1

loop_
  _space_group_symop_operation_xyz
  'x, y, z'

loop_
  _atom_site_type_symbol
  _atom_site_label
  _atom_site_symmetry_multiplicity
  _atom_site_fract_x
  _atom_site_fract_y
  _atom_site_fract_z
  _atom_site_occupancy
  H   H1        1.0  0.39300  0.77600  0.02290  1.0000
  H   H2        1.0  0.21800  0.42500  0.04630  1.0000
  H   H3        1.0  0.68000  0.28300  0.06200  1.0000
  H   H4        1.0  0.17000  0.27100  0.12800  1.0000
  H   H5        1.0  0.84500  0.39800  0.21300  1.0000
  H   H6        1.0  0.61500  0.43300  0.21600  1.0000
  H   H7        1.0  0.38500  0.93300  0.28400  1.0000
  H   H8        1.0  0.15500  0.89800  0.28700  1.0000
  H   H9        1.0  0.83000  0.77100  0.37200  1.0000
  H   H10       1.0  0.32000  0.78300  0.43800  1.0000
  H   H11       1.0  0.78200  0.92500  0.45400  1.0000
  H   H12       1.0  0.60700  0.27600  0.47700  1.0000
  H   H13       1.0  0.39300  0.72400  0.52300  1.0000
  H   H14       1.0  0.21800  0.07470  0.54600  1.0000
  H   H15       1.0  0.68000  0.21700  0.56200  1.0000
  H   H16       1.0  0.17000  0.22900  0.62800  1.0000
  H   H17       1.0  0.84500  0.10200  0.71300  1.0000
  H   H18       1.0  0.61500  0.06720  0.71600  1.0000
  H   H19       1.0  0.38500  0.56700  0.78400  1.0000
  H   H20       1.0  0.15500  0.60200  0.78700  1.0000
  H   H21       1.0  0.83000  0.72900  0.87200  1.0000
  H   H22       1.0  0.32000  0.71700  0.93800  1.0000
  H   H23       1.0  0.78200  0.57500  0.95400  1.0000
  H   H24       1.0  0.60700  0.22400  0.97700  1.0000
  Mn  Mn1       1.0  0.00000  0.00000  0.00000  1.0000
  Mn  Mn2       1.0  0.00000  0.50000  0.50000  1.0000
  N   N1        1.0  0.73500  0.45600  0.17600  1.0000
  N   N2        1.0  0.26500  0.95600  0.32400  1.0000
  N   N3        1.0  0.73500  0.04420  0.67600  1.0000
  N   N4        1.0  0.26500  0.54400  0.82400  1.0000
  O   O1        1.0  0.74300  0.26100  0.00976  1.0000
  O   O2        1.0  0.21800  0.26600  0.04870  1.0000
  O   O3        1.0  0.93000  0.80400  0.11800  1.0000
  O   O4        1.0  0.53900  0.84100  0.13600  1.0000
  O   O5        1.0  0.21600  0.37400  0.24100  1.0000
  O   O6        1.0  0.78400  0.87400  0.25900  1.0000
  O   O7        1.0  0.46100  0.34100  0.36400  1.0000
  O   O8        1.0  0.07030  0.30400  0.38200  1.0000
  O   O9        1.0  0.78200  0.76600  0.45100  1.0000
  O   O10       1.0  0.25700  0.76100  0.49000  1.0000
  O   O11       1.0  0.74300  0.23900  0.51000  1.0000
  O   O12       1.0  0.21800  0.23400  0.54900  1.0000
  O   O13       1.0  0.93000  0.69600  0.61800  1.0000
  O   O14       1.0  0.53900  0.65900  0.63600  1.0000
  O   O15       1.0  0.21600  0.12600  0.74100  1.0000
  O   O16       1.0  0.78400  0.62600  0.75900  1.0000
  O   O17       1.0  0.46100  0.15900  0.86400  1.0000
  O   O18       1.0  0.07030  0.19600  0.88200  1.0000
  O   O19       1.0  0.78200  0.73400  0.95100  1.0000
  O   O20       1.0  0.25700  0.73900  0.99000  1.0000
  S   S1        1.0  0.74500  0.76300  0.17400  1.0000
  S   S2        1.0  0.25500  0.26300  0.32600  1.0000
  S   S3        1.0  0.74500  0.73700  0.67400  1.0000
  S   S4        1.0  0.25500  0.23700  0.82600  1.0000
