data_image0
_chemical_formula_structural       K8Sn46
_chemical_formula_sum              "K8 Sn46"
_cell_length_a       12.643
_cell_length_b       12.643
_cell_length_c       12.643
_cell_angle_alpha    90
_cell_angle_beta     90
_cell_angle_gamma    90

_space_group_name_H-M_alt    "P 1"
_space_group_IT_number       1

loop_
  _space_group_symop_operation_xyz
  'x, y, z'

loop_
  _atom_site_type_symbol
  _atom_site_label
  _atom_site_symmetry_multiplicity
  _atom_site_fract_x
  _atom_site_fract_y
  _atom_site_fract_z
  _atom_site_occupancy
  K   K1        1.0  0.00000  0.00000  0.00000  1.0000
  K   K2        1.0  0.25000  0.50000  0.00000  1.0000
  K   K3        1.0  0.75000  0.50000  0.00000  1.0000
  K   K4        1.0  0.50000  0.00000  0.25000  1.0000
  K   K5        1.0  0.00000  0.25000  0.50000  1.0000
  K   K6        1.0  0.50000  0.50000  0.50000  1.0000
  K   K7        1.0  0.00000  0.75000  0.50000  1.0000
  K   K8        1.0  0.50000  0.00000  0.75000  1.0000
  Sn  Sn1       1.0  0.30800  0.11700  0.00000  1.0000
  Sn  Sn2       1.0  0.69200  0.11700  0.00000  1.0000
  Sn  Sn3       1.0  0.50000  0.25000  0.00000  1.0000
  Sn  Sn4       1.0  0.50000  0.75000  0.00000  1.0000
  Sn  Sn5       1.0  0.30800  0.88300  0.00000  1.0000
  Sn  Sn6       1.0  0.69200  0.88300  0.00000  1.0000
  Sn  Sn7       1.0  0.00000  0.30800  0.11700  1.0000
  Sn  Sn8       1.0  0.00000  0.69200  0.11700  1.0000
  Sn  Sn9       1.0  0.18400  0.18400  0.18400  1.0000
  Sn  Sn10      1.0  0.81600  0.18400  0.18400  1.0000
  Sn  Sn11      1.0  0.18400  0.81600  0.18400  1.0000
  Sn  Sn12      1.0  0.81600  0.81600  0.18400  1.0000
  Sn  Sn13      1.0  0.50000  0.38300  0.19200  1.0000
  Sn  Sn14      1.0  0.50000  0.61700  0.19200  1.0000
  Sn  Sn15      1.0  0.00000  0.50000  0.25000  1.0000
  Sn  Sn16      1.0  0.11700  0.00000  0.30800  1.0000
  Sn  Sn17      1.0  0.88300  0.00000  0.30800  1.0000
  Sn  Sn18      1.0  0.31600  0.31600  0.31600  1.0000
  Sn  Sn19      1.0  0.68400  0.31600  0.31600  1.0000
  Sn  Sn20      1.0  0.31600  0.68400  0.31600  1.0000
  Sn  Sn21      1.0  0.68400  0.68400  0.31600  1.0000
  Sn  Sn22      1.0  0.19200  0.50000  0.38300  1.0000
  Sn  Sn23      1.0  0.80800  0.50000  0.38300  1.0000
  Sn  Sn24      1.0  0.25000  0.00000  0.50000  1.0000
  Sn  Sn25      1.0  0.75000  0.00000  0.50000  1.0000
  Sn  Sn26      1.0  0.38300  0.19200  0.50000  1.0000
  Sn  Sn27      1.0  0.61700  0.19200  0.50000  1.0000
  Sn  Sn28      1.0  0.38300  0.80800  0.50000  1.0000
  Sn  Sn29      1.0  0.61700  0.80800  0.50000  1.0000
  Sn  Sn30      1.0  0.19200  0.50000  0.61700  1.0000
  Sn  Sn31      1.0  0.80800  0.50000  0.61700  1.0000
  Sn  Sn32      1.0  0.31600  0.31600  0.68400  1.0000
  Sn  Sn33      1.0  0.68400  0.31600  0.68400  1.0000
  Sn  Sn34      1.0  0.31600  0.68400  0.68400  1.0000
  Sn  Sn35      1.0  0.68400  0.68400  0.68400  1.0000
  Sn  Sn36      1.0  0.11700  0.00000  0.69200  1.0000
  Sn  Sn37      1.0  0.88300  0.00000  0.69200  1.0000
  Sn  Sn38      1.0  0.00000  0.50000  0.75000  1.0000
  Sn  Sn39      1.0  0.50000  0.38300  0.80800  1.0000
  Sn  Sn40      1.0  0.50000  0.61700  0.80800  1.0000
  Sn  Sn41      1.0  0.18400  0.18400  0.81600  1.0000
  Sn  Sn42      1.0  0.81600  0.18400  0.81600  1.0000
  Sn  Sn43      1.0  0.18400  0.81600  0.81600  1.0000
  Sn  Sn44      1.0  0.81600  0.81600  0.81600  1.0000
  Sn  Sn45      1.0  0.00000  0.30800  0.88300  1.0000
  Sn  Sn46      1.0  0.00000  0.69200  0.88300  1.0000
