data_image0
_chemical_formula_structural       Cu8H20O24S2
_chemical_formula_sum              "Cu8 H20 O24 S2"
_cell_length_a       7.27092
_cell_length_b       5.8285
_cell_length_c       11.1021
_cell_angle_alpha    90
_cell_angle_beta     89.1347
_cell_angle_gamma    90

_space_group_name_H-M_alt    "P 1"
_space_group_IT_number       1

loop_
  _space_group_symop_operation_xyz
  'x, y, z'

loop_
  _atom_site_type_symbol
  _atom_site_label
  _atom_site_symmetry_multiplicity
  _atom_site_fract_x
  _atom_site_fract_y
  _atom_site_fract_z
  _atom_site_occupancy
  Cu  Cu1       1.0  0.99000  0.51300  0.00242  1.0000
  Cu  Cu2       1.0  0.98600  0.98900  0.00778  1.0000
  Cu  Cu3       1.0  0.98500  0.73500  0.25600  1.0000
  Cu  Cu4       1.0  0.97200  0.24500  0.25700  1.0000
  Cu  Cu5       1.0  0.99000  0.48700  0.50200  1.0000
  Cu  Cu6       1.0  0.98600  0.01090  0.50800  1.0000
  Cu  Cu7       1.0  0.98500  0.26500  0.75600  1.0000
  Cu  Cu8       1.0  0.97200  0.75500  0.75700  1.0000
  H   H1        1.0  0.27100  0.76000  0.01150  1.0000
  H   H2        1.0  0.23100  0.41400  0.10500  1.0000
  H   H3        1.0  0.73400  0.98000  0.17300  1.0000
  H   H4        1.0  0.52400  0.52100  0.21000  1.0000
  H   H5        1.0  0.49100  0.73400  0.29200  1.0000
  H   H6        1.0  0.24800  0.49900  0.33300  1.0000
  H   H7        1.0  0.23200  0.00000  0.34500  1.0000
  H   H8        1.0  0.64900  0.40000  0.36900  1.0000
  H   H9        1.0  0.64100  0.15200  0.42100  1.0000
  H   H10       1.0  0.73100  0.70700  0.49200  1.0000
  H   H11       1.0  0.27100  0.24000  0.51200  1.0000
  H   H12       1.0  0.23100  0.58600  0.60500  1.0000
  H   H13       1.0  0.73400  0.01960  0.67300  1.0000
  H   H14       1.0  0.52400  0.47900  0.71000  1.0000
  H   H15       1.0  0.49100  0.26600  0.79200  1.0000
  H   H16       1.0  0.24800  0.50100  0.83300  1.0000
  H   H17       1.0  0.23200  0.00000  0.84500  1.0000
  H   H18       1.0  0.64900  0.60000  0.86900  1.0000
  H   H19       1.0  0.64100  0.84800  0.92100  1.0000
  H   H20       1.0  0.73100  0.29300  0.99200  1.0000
  O   O1        1.0  0.16600  0.72500  0.06410  1.0000
  O   O2        1.0  0.54200  0.37600  0.06940  1.0000
  O   O3        1.0  0.23600  0.24100  0.10900  1.0000
  O   O4        1.0  0.89800  0.49400  0.16100  1.0000
  O   O5        1.0  0.87000  0.98100  0.16800  1.0000
  O   O6        1.0  0.49300  0.02260  0.18700  1.0000
  O   O7        1.0  0.48300  0.56600  0.29200  1.0000
  O   O8        1.0  0.11100  0.49200  0.34300  1.0000
  O   O9        1.0  0.09740  0.99400  0.34400  1.0000
  O   O10       1.0  0.72900  0.27300  0.39700  1.0000
  O   O11       1.0  0.85000  0.74000  0.45100  1.0000
  O   O12       1.0  0.44100  0.97600  0.47100  1.0000
  O   O13       1.0  0.16600  0.27500  0.56400  1.0000
  O   O14       1.0  0.54200  0.62400  0.56900  1.0000
  O   O15       1.0  0.23600  0.75900  0.60900  1.0000
  O   O16       1.0  0.89800  0.50600  0.66100  1.0000
  O   O17       1.0  0.87000  0.01950  0.66800  1.0000
  O   O18       1.0  0.49300  0.97700  0.68700  1.0000
  O   O19       1.0  0.48300  0.43400  0.79200  1.0000
  O   O20       1.0  0.11100  0.50800  0.84300  1.0000
  O   O21       1.0  0.09740  0.00594  0.84400  1.0000
  O   O22       1.0  0.72900  0.72700  0.89700  1.0000
  O   O23       1.0  0.85000  0.26000  0.95100  1.0000
  O   O24       1.0  0.44100  0.02440  0.97100  1.0000
  S   S1        1.0  0.44200  0.15900  0.08260  1.0000
  S   S2        1.0  0.44200  0.84100  0.58300  1.0000
