data_image0
_chemical_formula_structural       Al4Na4O16Si4
_chemical_formula_sum              "Al4 Na4 O16 Si4"
_cell_length_a       7.31111
_cell_length_b       7.31111
_cell_length_c       7.31111
_cell_angle_alpha    90
_cell_angle_beta     90
_cell_angle_gamma    90

_space_group_name_H-M_alt    "P 1"
_space_group_IT_number       1

loop_
  _space_group_symop_operation_xyz
  'x, y, z'

loop_
  _atom_site_type_symbol
  _atom_site_label
  _atom_site_symmetry_multiplicity
  _atom_site_fract_x
  _atom_site_fract_y
  _atom_site_fract_z
  _atom_site_occupancy
  Al  Al1       1.0  0.71300  0.78700  0.21300  1.0000
  Al  Al2       1.0  0.28700  0.28700  0.28700  1.0000
  Al  Al3       1.0  0.78700  0.21300  0.71300  1.0000
  Al  Al4       1.0  0.21300  0.71300  0.78700  1.0000
  Na  Na1       1.0  0.25100  0.74900  0.24900  1.0000
  Na  Na2       1.0  0.74900  0.24900  0.25100  1.0000
  Na  Na3       1.0  0.24900  0.25100  0.74900  1.0000
  Na  Na4       1.0  0.75100  0.75100  0.75100  1.0000
  O   O1        1.0  0.62900  0.66800  0.02200  1.0000
  O   O2        1.0  0.83200  0.97800  0.12900  1.0000
  O   O3        1.0  0.15000  0.15000  0.15000  1.0000
  O   O4        1.0  0.47800  0.37100  0.16800  1.0000
  O   O5        1.0  0.52200  0.87100  0.33200  1.0000
  O   O6        1.0  0.85000  0.65000  0.35000  1.0000
  O   O7        1.0  0.16800  0.47800  0.37100  1.0000
  O   O8        1.0  0.37100  0.16800  0.47800  1.0000
  O   O9        1.0  0.87100  0.33200  0.52200  1.0000
  O   O10       1.0  0.66800  0.02200  0.62900  1.0000
  O   O11       1.0  0.35000  0.85000  0.65000  1.0000
  O   O12       1.0  0.02200  0.62900  0.66800  1.0000
  O   O13       1.0  0.97800  0.12900  0.83200  1.0000
  O   O14       1.0  0.65000  0.35000  0.85000  1.0000
  O   O15       1.0  0.33200  0.52200  0.87100  1.0000
  O   O16       1.0  0.12900  0.83200  0.97800  1.0000
  Si  Si1       1.0  0.02240  0.02240  0.02240  1.0000
  Si  Si2       1.0  0.97800  0.52200  0.47800  1.0000
  Si  Si3       1.0  0.47800  0.97800  0.52200  1.0000
  Si  Si4       1.0  0.52200  0.47800  0.97800  1.0000
