data_image0
_chemical_formula_structural       NaNb14O36
_chemical_formula_sum              "Na1 Nb14 O36"
_cell_length_a       3.87225
_cell_length_b       14.388
_cell_length_c       15.1671
_cell_angle_alpha    118.315
_cell_angle_beta     97.334
_cell_angle_gamma    90

_space_group_name_H-M_alt    "P 1"
_space_group_IT_number       1

loop_
  _space_group_symop_operation_xyz
  'x, y, z'

loop_
  _atom_site_type_symbol
  _atom_site_label
  _atom_site_symmetry_multiplicity
  _atom_site_fract_x
  _atom_site_fract_y
  _atom_site_fract_z
  _atom_site_occupancy
  Na  Na1       1.0  0.00000  0.00000  0.00000  1.0000
  Nb  Nb1       1.0  0.50000  0.31700  0.00000  1.0000
  Nb  Nb2       1.0  0.50000  0.68300  0.00000  1.0000
  Nb  Nb3       1.0  0.60200  0.22100  0.20400  1.0000
  Nb  Nb4       1.0  0.60200  0.98300  0.20400  1.0000
  Nb  Nb5       1.0  0.60600  0.60600  0.21300  1.0000
  Nb  Nb6       1.0  0.18800  0.18800  0.37700  1.0000
  Nb  Nb7       1.0  0.70700  0.51300  0.41500  1.0000
  Nb  Nb8       1.0  0.70700  0.90200  0.41500  1.0000
  Nb  Nb9       1.0  0.29300  0.09800  0.58500  1.0000
  Nb  Nb10      1.0  0.29300  0.48700  0.58500  1.0000
  Nb  Nb11      1.0  0.81200  0.81200  0.62300  1.0000
  Nb  Nb12      1.0  0.39400  0.39400  0.78700  1.0000
  Nb  Nb13      1.0  0.39800  0.01740  0.79600  1.0000
  Nb  Nb14      1.0  0.39800  0.77900  0.79600  1.0000
  O   O1        1.0  0.00000  0.30200  0.00000  1.0000
  O   O2        1.0  0.00000  0.69800  0.00000  1.0000
  O   O3        1.0  0.55000  0.25100  0.10100  1.0000
  O   O4        1.0  0.55000  0.84900  0.10100  1.0000
  O   O5        1.0  0.55600  0.45600  0.11100  1.0000
  O   O6        1.0  0.55600  0.65500  0.11100  1.0000
  O   O7        1.0  0.56100  0.06060  0.12100  1.0000
  O   O8        1.0  0.11000  0.61000  0.22000  1.0000
  O   O9        1.0  0.11700  0.02000  0.23400  1.0000
  O   O10       1.0  0.11700  0.21400  0.23400  1.0000
  O   O11       1.0  0.66000  0.36700  0.32100  1.0000
  O   O12       1.0  0.66000  0.95400  0.32100  1.0000
  O   O13       1.0  0.66300  0.56500  0.32500  1.0000
  O   O14       1.0  0.66300  0.76000  0.32500  1.0000
  O   O15       1.0  0.66400  0.16400  0.32900  1.0000
  O   O16       1.0  0.22600  0.51800  0.45100  1.0000
  O   O17       1.0  0.22600  0.93300  0.45100  1.0000
  O   O18       1.0  0.23200  0.13400  0.46300  1.0000
  O   O19       1.0  0.23200  0.32900  0.46300  1.0000
  O   O20       1.0  0.76800  0.67100  0.53700  1.0000
  O   O21       1.0  0.76800  0.86600  0.53700  1.0000
  O   O22       1.0  0.77400  0.06660  0.54900  1.0000
  O   O23       1.0  0.77400  0.48200  0.54900  1.0000
  O   O24       1.0  0.33600  0.83600  0.67100  1.0000
  O   O25       1.0  0.33700  0.24000  0.67500  1.0000
  O   O26       1.0  0.33700  0.43500  0.67500  1.0000
  O   O27       1.0  0.34000  0.04570  0.67900  1.0000
  O   O28       1.0  0.34000  0.63300  0.67900  1.0000
  O   O29       1.0  0.88300  0.78600  0.76600  1.0000
  O   O30       1.0  0.88300  0.98000  0.76600  1.0000
  O   O31       1.0  0.89000  0.39000  0.78000  1.0000
  O   O32       1.0  0.43900  0.93900  0.87900  1.0000
  O   O33       1.0  0.44400  0.34500  0.88900  1.0000
  O   O34       1.0  0.44400  0.54400  0.88900  1.0000
  O   O35       1.0  0.45000  0.15100  0.89900  1.0000
  O   O36       1.0  0.45000  0.74900  0.89900  1.0000
