data_image0
_chemical_formula_structural       H4Mo4O36S8
_chemical_formula_sum              "H4 Mo4 O36 S8"
_cell_length_a       8.09759
_cell_length_b       8.53604
_cell_length_c       8.73251
_cell_angle_alpha    90
_cell_angle_beta     91.3139
_cell_angle_gamma    90

_space_group_name_H-M_alt    "P 1"
_space_group_IT_number       1

loop_
  _space_group_symop_operation_xyz
  'x, y, z'

loop_
  _atom_site_type_symbol
  _atom_site_label
  _atom_site_symmetry_multiplicity
  _atom_site_fract_x
  _atom_site_fract_y
  _atom_site_fract_z
  _atom_site_occupancy
  H   H1        1.0  0.24700  0.00439  0.16000  1.0000
  H   H2        1.0  0.75300  0.50400  0.34000  1.0000
  H   H3        1.0  0.24700  0.49600  0.66000  1.0000
  H   H4        1.0  0.75300  0.99600  0.84000  1.0000
  Mo  Mo1       1.0  0.25000  0.51000  0.17300  1.0000
  Mo  Mo2       1.0  0.75000  0.01050  0.32700  1.0000
  Mo  Mo3       1.0  0.25000  0.99000  0.67300  1.0000
  Mo  Mo4       1.0  0.75000  0.49000  0.82700  1.0000
  O   O1        1.0  0.23500  0.34600  0.00593  1.0000
  O   O2        1.0  0.37500  0.64600  0.02230  1.0000
  O   O3        1.0  0.00250  0.16500  0.05020  1.0000
  O   O4        1.0  0.29300  0.07840  0.07390  1.0000
  O   O5        1.0  0.06400  0.59300  0.14800  1.0000
  O   O6        1.0  0.65100  0.15100  0.16000  1.0000
  O   O7        1.0  0.82200  0.84700  0.17500  1.0000
  O   O8        1.0  0.78800  0.40000  0.21700  1.0000
  O   O9        1.0  0.48900  0.38300  0.22000  1.0000
  O   O10       1.0  0.51100  0.88300  0.28000  1.0000
  O   O11       1.0  0.21200  0.90000  0.28300  1.0000
  O   O12       1.0  0.17800  0.34700  0.32500  1.0000
  O   O13       1.0  0.34900  0.65100  0.34000  1.0000
  O   O14       1.0  0.93600  0.09290  0.35200  1.0000
  O   O15       1.0  0.70700  0.57800  0.42600  1.0000
  O   O16       1.0  0.99800  0.66500  0.45000  1.0000
  O   O17       1.0  0.62500  0.14600  0.47800  1.0000
  O   O18       1.0  0.76500  0.84600  0.49400  1.0000
  O   O19       1.0  0.23500  0.15400  0.50600  1.0000
  O   O20       1.0  0.37500  0.85400  0.52200  1.0000
  O   O21       1.0  0.00250  0.33500  0.55000  1.0000
  O   O22       1.0  0.29300  0.42200  0.57400  1.0000
  O   O23       1.0  0.06400  0.90700  0.64800  1.0000
  O   O24       1.0  0.65100  0.34900  0.66000  1.0000
  O   O25       1.0  0.82200  0.65300  0.67500  1.0000
  O   O26       1.0  0.78800  0.10000  0.71700  1.0000
  O   O27       1.0  0.48900  0.11700  0.72000  1.0000
  O   O28       1.0  0.51100  0.61700  0.78000  1.0000
  O   O29       1.0  0.21200  0.60000  0.78300  1.0000
  O   O30       1.0  0.17800  0.15300  0.82500  1.0000
  O   O31       1.0  0.34900  0.84900  0.84000  1.0000
  O   O32       1.0  0.93600  0.40700  0.85200  1.0000
  O   O33       1.0  0.70700  0.92200  0.92600  1.0000
  O   O34       1.0  0.99800  0.83500  0.95000  1.0000
  O   O35       1.0  0.62500  0.35400  0.97800  1.0000
  O   O36       1.0  0.76500  0.65400  0.99400  1.0000
  S   S1        1.0  0.83500  0.81700  0.00633  1.0000
  S   S2        1.0  0.64000  0.32700  0.14900  1.0000
  S   S3        1.0  0.36000  0.82700  0.35100  1.0000
  S   S4        1.0  0.16500  0.31700  0.49400  1.0000
  S   S5        1.0  0.83500  0.68300  0.50600  1.0000
  S   S6        1.0  0.64000  0.17300  0.64900  1.0000
  S   S7        1.0  0.36000  0.67300  0.85100  1.0000
  S   S8        1.0  0.16500  0.18300  0.99400  1.0000
