data_image0
_chemical_formula_structural       H24O24P8
_chemical_formula_sum              "H24 O24 P8"
_cell_length_a       6.95363
_cell_length_b       11.7619
_cell_length_c       6.48986
_cell_angle_alpha    90
_cell_angle_beta     90
_cell_angle_gamma    90

_space_group_name_H-M_alt    "P 1"
_space_group_IT_number       1

loop_
  _space_group_symop_operation_xyz
  'x, y, z'

loop_
  _atom_site_type_symbol
  _atom_site_label
  _atom_site_symmetry_multiplicity
  _atom_site_fract_x
  _atom_site_fract_y
  _atom_site_fract_z
  _atom_site_occupancy
  H   H1        1.0  0.78500  0.60100  0.06900  1.0000
  H   H2        1.0  0.28500  0.89900  0.06900  1.0000
  H   H3        1.0  0.58500  0.06120  0.13600  1.0000
  H   H4        1.0  0.08540  0.43900  0.13600  1.0000
  H   H5        1.0  0.54100  0.72900  0.16000  1.0000
  H   H6        1.0  0.04130  0.77100  0.16000  1.0000
  H   H7        1.0  0.97300  0.14800  0.20900  1.0000
  H   H8        1.0  0.47300  0.35200  0.20900  1.0000
  H   H9        1.0  0.19800  0.69300  0.44000  1.0000
  H   H10       1.0  0.69800  0.80700  0.44000  1.0000
  H   H11       1.0  0.19000  0.02530  0.47500  1.0000
  H   H12       1.0  0.69000  0.47500  0.47500  1.0000
  H   H13       1.0  0.71500  0.10100  0.56900  1.0000
  H   H14       1.0  0.21500  0.39900  0.56900  1.0000
  H   H15       1.0  0.91500  0.56100  0.63600  1.0000
  H   H16       1.0  0.41500  0.93900  0.63600  1.0000
  H   H17       1.0  0.95900  0.22900  0.66000  1.0000
  H   H18       1.0  0.45900  0.27100  0.66000  1.0000
  H   H19       1.0  0.52700  0.64800  0.70900  1.0000
  H   H20       1.0  0.02740  0.85200  0.70900  1.0000
  H   H21       1.0  0.30200  0.19300  0.94000  1.0000
  H   H22       1.0  0.80200  0.30700  0.94000  1.0000
  H   H23       1.0  0.31000  0.52500  0.97500  1.0000
  H   H24       1.0  0.81000  0.97500  0.97500  1.0000
  O   O1        1.0  0.10000  0.53700  0.00104  1.0000
  O   O2        1.0  0.60000  0.96300  0.00104  1.0000
  O   O3        1.0  0.51000  0.74900  0.00576  1.0000
  O   O4        1.0  0.01030  0.75100  0.00576  1.0000
  O   O5        1.0  0.60300  0.13500  0.22200  1.0000
  O   O6        1.0  0.10300  0.36500  0.22200  1.0000
  O   O7        1.0  0.59400  0.70500  0.36700  1.0000
  O   O8        1.0  0.09380  0.79500  0.36700  1.0000
  O   O9        1.0  0.04550  0.00568  0.46400  1.0000
  O   O10       1.0  0.54600  0.49400  0.46400  1.0000
  O   O11       1.0  0.26700  0.61600  0.47000  1.0000
  O   O12       1.0  0.76700  0.88400  0.47000  1.0000
  O   O13       1.0  0.40000  0.03700  0.50100  1.0000
  O   O14       1.0  0.90000  0.46300  0.50100  1.0000
  O   O15       1.0  0.99000  0.24900  0.50600  1.0000
  O   O16       1.0  0.49000  0.25100  0.50600  1.0000
  O   O17       1.0  0.89700  0.63500  0.72200  1.0000
  O   O18       1.0  0.39700  0.86500  0.72200  1.0000
  O   O19       1.0  0.90600  0.20500  0.86700  1.0000
  O   O20       1.0  0.40600  0.29500  0.86700  1.0000
  O   O21       1.0  0.45400  0.50600  0.96400  1.0000
  O   O22       1.0  0.95400  0.99400  0.96400  1.0000
  O   O23       1.0  0.23300  0.11600  0.97000  1.0000
  O   O24       1.0  0.73300  0.38400  0.97000  1.0000
  P   P1        1.0  0.01190  0.12000  0.00482  1.0000
  P   P2        1.0  0.51200  0.38000  0.00482  1.0000
  P   P3        1.0  0.55100  0.12700  0.45500  1.0000
  P   P4        1.0  0.05070  0.37300  0.45500  1.0000
  P   P5        1.0  0.48800  0.62000  0.50500  1.0000
  P   P6        1.0  0.98800  0.88000  0.50500  1.0000
  P   P7        1.0  0.94900  0.62700  0.95500  1.0000
  P   P8        1.0  0.44900  0.87300  0.95500  1.0000
