data_image0
_chemical_formula_structural       Al38Ni10Y6
_chemical_formula_sum              "Al38 Ni10 Y6"
_cell_length_a       4.07095
_cell_length_b       8.23531
_cell_length_c       27.1057
_cell_angle_alpha    90
_cell_angle_beta     90
_cell_angle_gamma    75.6902

_space_group_name_H-M_alt    "P 1"
_space_group_IT_number       1

loop_
  _space_group_symop_operation_xyz
  'x, y, z'

loop_
  _atom_site_type_symbol
  _atom_site_label
  _atom_site_symmetry_multiplicity
  _atom_site_fract_x
  _atom_site_fract_y
  _atom_site_fract_z
  _atom_site_occupancy
  Al  Al1       1.0  0.76500  0.46900  0.02880  1.0000
  Al  Al2       1.0  0.93300  0.13400  0.03180  1.0000
  Al  Al3       1.0  0.59400  0.81200  0.03710  1.0000
  Al  Al4       1.0  0.20900  0.58200  0.08870  1.0000
  Al  Al5       1.0  0.46300  0.07340  0.10100  1.0000
  Al  Al6       1.0  0.63000  0.74000  0.13500  1.0000
  Al  Al7       1.0  0.03600  0.92800  0.17500  1.0000
  Al  Al8       1.0  0.22400  0.55200  0.19400  1.0000
  Al  Al9       1.0  0.42100  0.15800  0.20200  1.0000
  Al  Al10      1.0  0.80600  0.38700  0.25000  1.0000
  Al  Al11      1.0  0.42100  0.15800  0.29800  1.0000
  Al  Al12      1.0  0.22400  0.55200  0.30600  1.0000
  Al  Al13      1.0  0.03600  0.92800  0.32500  1.0000
  Al  Al14      1.0  0.63000  0.74000  0.36500  1.0000
  Al  Al15      1.0  0.46300  0.07340  0.39900  1.0000
  Al  Al16      1.0  0.20900  0.58200  0.41100  1.0000
  Al  Al17      1.0  0.59400  0.81200  0.46300  1.0000
  Al  Al18      1.0  0.93300  0.13400  0.46800  1.0000
  Al  Al19      1.0  0.76500  0.46900  0.47100  1.0000
  Al  Al20      1.0  0.23500  0.53100  0.52900  1.0000
  Al  Al21      1.0  0.06690  0.86600  0.53200  1.0000
  Al  Al22      1.0  0.40600  0.18800  0.53700  1.0000
  Al  Al23      1.0  0.79100  0.41800  0.58900  1.0000
  Al  Al24      1.0  0.53700  0.92700  0.60100  1.0000
  Al  Al25      1.0  0.37000  0.26000  0.63500  1.0000
  Al  Al26      1.0  0.96400  0.07190  0.67500  1.0000
  Al  Al27      1.0  0.77600  0.44800  0.69400  1.0000
  Al  Al28      1.0  0.57900  0.84200  0.70200  1.0000
  Al  Al29      1.0  0.19400  0.61300  0.75000  1.0000
  Al  Al30      1.0  0.57900  0.84200  0.79800  1.0000
  Al  Al31      1.0  0.77600  0.44800  0.80600  1.0000
  Al  Al32      1.0  0.96400  0.07190  0.82500  1.0000
  Al  Al33      1.0  0.37000  0.26000  0.86500  1.0000
  Al  Al34      1.0  0.53700  0.92700  0.89900  1.0000
  Al  Al35      1.0  0.79100  0.41800  0.91100  1.0000
  Al  Al36      1.0  0.40600  0.18800  0.96300  1.0000
  Al  Al37      1.0  0.06690  0.86600  0.96800  1.0000
  Al  Al38      1.0  0.23500  0.53100  0.97100  1.0000
  Ni  Ni1       1.0  0.34100  0.31700  0.04220  1.0000
  Ni  Ni2       1.0  0.05400  0.89200  0.08520  1.0000
  Ni  Ni3       1.0  0.95500  0.09070  0.25000  1.0000
  Ni  Ni4       1.0  0.05400  0.89200  0.41500  1.0000
  Ni  Ni5       1.0  0.34100  0.31700  0.45800  1.0000
  Ni  Ni6       1.0  0.65900  0.68300  0.54200  1.0000
  Ni  Ni7       1.0  0.94600  0.10800  0.58500  1.0000
  Ni  Ni8       1.0  0.04530  0.90900  0.75000  1.0000
  Ni  Ni9       1.0  0.94600  0.10800  0.91500  1.0000
  Ni  Ni10      1.0  0.65900  0.68300  0.95800  1.0000
  Y   Y1        1.0  0.83300  0.33400  0.13500  1.0000
  Y   Y2        1.0  0.61200  0.77500  0.25000  1.0000
  Y   Y3        1.0  0.83300  0.33400  0.36500  1.0000
  Y   Y4        1.0  0.16700  0.66600  0.63500  1.0000
  Y   Y5        1.0  0.38800  0.22500  0.75000  1.0000
  Y   Y6        1.0  0.16700  0.66600  0.86500  1.0000
