data_image0
_chemical_formula_structural       K8Na4O30Si12
_chemical_formula_sum              "K8 Na4 O30 Si12"
_cell_length_a       7.29679
_cell_length_b       10.452
_cell_length_c       12.3476
_cell_angle_alpha    101.263
_cell_angle_beta     107.186
_cell_angle_gamma    110.43

_space_group_name_H-M_alt    "P 1"
_space_group_IT_number       1

loop_
  _space_group_symop_operation_xyz
  'x, y, z'

loop_
  _atom_site_type_symbol
  _atom_site_label
  _atom_site_symmetry_multiplicity
  _atom_site_fract_x
  _atom_site_fract_y
  _atom_site_fract_z
  _atom_site_occupancy
  K   K1        1.0  0.09250  0.66500  0.16300  1.0000
  K   K2        1.0  0.47900  0.04540  0.17100  1.0000
  K   K3        1.0  0.76200  0.45500  0.32900  1.0000
  K   K4        1.0  0.76400  0.83500  0.33700  1.0000
  K   K5        1.0  0.23600  0.16500  0.66300  1.0000
  K   K6        1.0  0.23800  0.54500  0.67100  1.0000
  K   K7        1.0  0.52100  0.95500  0.82900  1.0000
  K   K8        1.0  0.90800  0.33500  0.83700  1.0000
  Na  Na1       1.0  0.92000  0.92700  0.09130  1.0000
  Na  Na2       1.0  0.40200  0.57300  0.40900  1.0000
  Na  Na3       1.0  0.59800  0.42700  0.59100  1.0000
  Na  Na4       1.0  0.07970  0.07260  0.90900  1.0000
  O   O1        1.0  0.32200  0.54600  0.01120  1.0000
  O   O2        1.0  0.87600  0.10100  0.01570  1.0000
  O   O3        1.0  0.38100  0.32300  0.06530  1.0000
  O   O4        1.0  0.08370  0.39200  0.09610  1.0000
  O   O5        1.0  0.71500  0.27500  0.10700  1.0000
  O   O6        1.0  0.59200  0.83700  0.12100  1.0000
  O   O7        1.0  0.49200  0.56700  0.24600  1.0000
  O   O8        1.0  0.03730  0.25000  0.25000  1.0000
  O   O9        1.0  0.17800  0.93300  0.25400  1.0000
  O   O10       1.0  0.13400  0.66300  0.37900  1.0000
  O   O11       1.0  0.83200  0.22500  0.39300  1.0000
  O   O12       1.0  0.09540  0.10800  0.40400  1.0000
  O   O13       1.0  0.49300  0.17700  0.43500  1.0000
  O   O14       1.0  0.25900  0.39900  0.48400  1.0000
  O   O15       1.0  0.26500  0.95400  0.48900  1.0000
  O   O16       1.0  0.73500  0.04600  0.51100  1.0000
  O   O17       1.0  0.74100  0.60100  0.51600  1.0000
  O   O18       1.0  0.50700  0.82300  0.56500  1.0000
  O   O19       1.0  0.90500  0.89200  0.59600  1.0000
  O   O20       1.0  0.16800  0.77500  0.60700  1.0000
  O   O21       1.0  0.86600  0.33700  0.62100  1.0000
  O   O22       1.0  0.82200  0.06730  0.74600  1.0000
  O   O23       1.0  0.96300  0.75000  0.75000  1.0000
  O   O24       1.0  0.50800  0.43300  0.75400  1.0000
  O   O25       1.0  0.40800  0.16300  0.87900  1.0000
  O   O26       1.0  0.28500  0.72500  0.89300  1.0000
  O   O27       1.0  0.91600  0.60800  0.90400  1.0000
  O   O28       1.0  0.61900  0.67700  0.93500  1.0000
  O   O29       1.0  0.12400  0.89900  0.98400  1.0000
  O   O30       1.0  0.67800  0.45400  0.98900  1.0000
  Si  Si1       1.0  0.46100  0.70300  0.00072  1.0000
  Si  Si2       1.0  0.92700  0.24600  0.11200  1.0000
  Si  Si3       1.0  0.33700  0.46400  0.11400  1.0000
  Si  Si4       1.0  0.25900  0.03600  0.38600  1.0000
  Si  Si5       1.0  0.06870  0.25400  0.38800  1.0000
  Si  Si6       1.0  0.25700  0.79700  0.49900  1.0000
  Si  Si7       1.0  0.74300  0.20300  0.50100  1.0000
  Si  Si8       1.0  0.93100  0.74600  0.61200  1.0000
  Si  Si9       1.0  0.74100  0.96400  0.61400  1.0000
  Si  Si10      1.0  0.66300  0.53600  0.88600  1.0000
  Si  Si11      1.0  0.07340  0.75400  0.88800  1.0000
  Si  Si12      1.0  0.53900  0.29700  0.99900  1.0000
