data_image0
_chemical_formula_structural       Al8Na4O32Si8Sr2
_chemical_formula_sum              "Al8 Na4 O32 Si8 Sr2"
_cell_length_a       8.30828
_cell_length_b       9.86356
_cell_length_c       10.5495
_cell_angle_alpha    117.871
_cell_angle_beta     113.19
_cell_angle_gamma    90

_space_group_name_H-M_alt    "P 1"
_space_group_IT_number       1

loop_
  _space_group_symop_operation_xyz
  'x, y, z'

loop_
  _atom_site_type_symbol
  _atom_site_label
  _atom_site_symmetry_multiplicity
  _atom_site_fract_x
  _atom_site_fract_y
  _atom_site_fract_z
  _atom_site_occupancy
  Al  Al1       1.0  0.13400  0.25600  0.12700  1.0000
  Al  Al2       1.0  0.63400  0.37100  0.12700  1.0000
  Al  Al3       1.0  0.49300  0.75600  0.12700  1.0000
  Al  Al4       1.0  0.99300  0.87100  0.12700  1.0000
  Al  Al5       1.0  0.08920  0.26800  0.62200  1.0000
  Al  Al6       1.0  0.53300  0.35500  0.62200  1.0000
  Al  Al7       1.0  0.03310  0.76800  0.62200  1.0000
  Al  Al8       1.0  0.58900  0.85500  0.62200  1.0000
  Na  Na1       1.0  0.36800  0.08350  0.80700  1.0000
  Na  Na2       1.0  0.86800  0.22400  0.80700  1.0000
  Na  Na3       1.0  0.94000  0.58300  0.80700  1.0000
  Na  Na4       1.0  0.44000  0.72400  0.80700  1.0000
  O   O1        1.0  0.64000  0.17200  0.05840  1.0000
  O   O2        1.0  0.14000  0.38700  0.05840  1.0000
  O   O3        1.0  0.91800  0.67200  0.05840  1.0000
  O   O4        1.0  0.41800  0.88700  0.05840  1.0000
  O   O5        1.0  0.29300  0.13900  0.12200  1.0000
  O   O6        1.0  0.79300  0.48300  0.12200  1.0000
  O   O7        1.0  0.32900  0.63900  0.12200  1.0000
  O   O8        1.0  0.82900  0.98300  0.12200  1.0000
  O   O9        1.0  0.15600  0.37900  0.31600  1.0000
  O   O10       1.0  0.65600  0.43700  0.31600  1.0000
  O   O11       1.0  0.66000  0.87900  0.31600  1.0000
  O   O12       1.0  0.16000  0.93700  0.31600  1.0000
  O   O13       1.0  0.47800  0.14900  0.49100  1.0000
  O   O14       1.0  0.01230  0.34200  0.49100  1.0000
  O   O15       1.0  0.51200  0.64900  0.49100  1.0000
  O   O16       1.0  0.97800  0.84200  0.49100  1.0000
  O   O17       1.0  0.89600  0.13000  0.55100  1.0000
  O   O18       1.0  0.65500  0.42100  0.55100  1.0000
  O   O19       1.0  0.15500  0.63000  0.55100  1.0000
  O   O20       1.0  0.39600  0.92100  0.55100  1.0000
  O   O21       1.0  0.26400  0.17100  0.62400  1.0000
  O   O22       1.0  0.35900  0.45300  0.62400  1.0000
  O   O23       1.0  0.85900  0.67100  0.62400  1.0000
  O   O24       1.0  0.76400  0.95300  0.62400  1.0000
  O   O25       1.0  0.69200  0.40400  0.81600  1.0000
  O   O26       1.0  0.12400  0.41200  0.81600  1.0000
  O   O27       1.0  0.62400  0.90400  0.81600  1.0000
  O   O28       1.0  0.19200  0.91200  0.81600  1.0000
  O   O29       1.0  0.91900  0.13400  0.99000  1.0000
  O   O30       1.0  0.41900  0.35600  0.99000  1.0000
  O   O31       1.0  0.57100  0.63400  0.99000  1.0000
  O   O32       1.0  0.07100  0.85600  0.99000  1.0000
  Si  Si1       1.0  0.32500  0.04540  0.49100  1.0000
  Si  Si2       1.0  0.16600  0.44600  0.49100  1.0000
  Si  Si3       1.0  0.66600  0.54500  0.49100  1.0000
  Si  Si4       1.0  0.82500  0.94600  0.49100  1.0000
  Si  Si5       1.0  0.75900  0.04720  0.99600  1.0000
  Si  Si6       1.0  0.25900  0.44900  0.99600  1.0000
  Si  Si7       1.0  0.73700  0.54700  0.99600  1.0000
  Si  Si8       1.0  0.23700  0.94900  0.99600  1.0000
  Sr  Sr1       1.0  0.65500  0.15500  0.31000  1.0000
  Sr  Sr2       1.0  0.15500  0.65500  0.31000  1.0000
