data_image0
_chemical_formula_structural       Al6Ba10F38
_chemical_formula_sum              "Al6 Ba10 F38"
_cell_length_a       7.3861
_cell_length_b       10.7928
_cell_length_c       10.7928
_cell_angle_alpha    96.724
_cell_angle_beta     69.9903
_cell_angle_gamma    110.01

_space_group_name_H-M_alt    "P 1"
_space_group_IT_number       1

loop_
  _space_group_symop_operation_xyz
  'x, y, z'

loop_
  _atom_site_type_symbol
  _atom_site_label
  _atom_site_symmetry_multiplicity
  _atom_site_fract_x
  _atom_site_fract_y
  _atom_site_fract_z
  _atom_site_occupancy
  Al  Al1       1.0  0.24700  0.00000  0.00000  1.0000
  Al  Al2       1.0  0.75300  0.00000  0.00000  1.0000
  Al  Al3       1.0  0.15800  0.47900  0.16400  1.0000
  Al  Al4       1.0  0.67900  0.83600  0.47900  1.0000
  Al  Al5       1.0  0.32100  0.16400  0.52100  1.0000
  Al  Al6       1.0  0.84200  0.52100  0.83600  1.0000
  Ba  Ba1       1.0  0.76200  0.67500  0.15100  1.0000
  Ba  Ba2       1.0  0.55200  0.26400  0.16000  1.0000
  Ba  Ba3       1.0  0.28800  0.84000  0.26400  1.0000
  Ba  Ba4       1.0  0.91300  0.15100  0.32500  1.0000
  Ba  Ba5       1.0  0.25000  0.50000  0.50000  1.0000
  Ba  Ba6       1.0  0.75000  0.50000  0.50000  1.0000
  Ba  Ba7       1.0  0.08700  0.84900  0.67500  1.0000
  Ba  Ba8       1.0  0.71200  0.16000  0.73600  1.0000
  Ba  Ba9       1.0  0.44800  0.73600  0.84000  1.0000
  Ba  Ba10      1.0  0.23800  0.32500  0.84900  1.0000
  F   F1        1.0  0.00000  0.00000  0.00000  1.0000
  F   F2        1.0  0.50000  0.00000  0.00000  1.0000
  F   F3        1.0  0.73000  0.46400  0.00305  1.0000
  F   F4        1.0  0.14900  0.83400  0.05760  1.0000
  F   F5        1.0  0.62800  0.83400  0.05760  1.0000
  F   F6        1.0  0.28200  0.35400  0.12500  1.0000
  F   F7        1.0  0.94700  0.35400  0.12500  1.0000
  F   F8        1.0  0.20600  0.05760  0.16600  1.0000
  F   F9        1.0  0.68500  0.05760  0.16600  1.0000
  F   F10       1.0  0.02290  0.60100  0.21200  1.0000
  F   F11       1.0  0.36500  0.60100  0.21200  1.0000
  F   F12       1.0  0.57500  0.45800  0.30800  1.0000
  F   F13       1.0  0.04450  0.41900  0.33000  1.0000
  F   F14       1.0  0.59300  0.87500  0.35400  1.0000
  F   F15       1.0  0.92800  0.87500  0.35400  1.0000
  F   F16       1.0  0.23500  0.21200  0.39900  1.0000
  F   F17       1.0  0.57800  0.21200  0.39900  1.0000
  F   F18       1.0  0.62500  0.67000  0.41900  1.0000
  F   F19       1.0  0.11700  0.69200  0.45800  1.0000
  F   F20       1.0  0.26700  0.99700  0.46400  1.0000
  F   F21       1.0  0.73300  0.00305  0.53600  1.0000
  F   F22       1.0  0.88300  0.30800  0.54200  1.0000
  F   F23       1.0  0.37500  0.33000  0.58100  1.0000
  F   F24       1.0  0.42200  0.78800  0.60100  1.0000
  F   F25       1.0  0.76500  0.78800  0.60100  1.0000
  F   F26       1.0  0.07170  0.12500  0.64600  1.0000
  F   F27       1.0  0.40700  0.12500  0.64600  1.0000
  F   F28       1.0  0.95600  0.58100  0.67000  1.0000
  F   F29       1.0  0.42500  0.54200  0.69200  1.0000
  F   F30       1.0  0.63500  0.39900  0.78800  1.0000
  F   F31       1.0  0.97700  0.39900  0.78800  1.0000
  F   F32       1.0  0.31500  0.94200  0.83400  1.0000
  F   F33       1.0  0.79400  0.94200  0.83400  1.0000
  F   F34       1.0  0.05340  0.64600  0.87500  1.0000
  F   F35       1.0  0.71800  0.64600  0.87500  1.0000
  F   F36       1.0  0.37200  0.16600  0.94200  1.0000
  F   F37       1.0  0.85100  0.16600  0.94200  1.0000
  F   F38       1.0  0.27000  0.53600  0.99700  1.0000
