data_image0
_chemical_formula_structural       Ba4Na4O36P12
_chemical_formula_sum              "Ba4 Na4 O36 P12"
_cell_length_a       10.9997
_cell_length_b       12.1862
_cell_length_c       5.6932
_cell_angle_alpha    90
_cell_angle_beta     90
_cell_angle_gamma    90

_space_group_name_H-M_alt    "P 1"
_space_group_IT_number       1

loop_
  _space_group_symop_operation_xyz
  'x, y, z'

loop_
  _atom_site_type_symbol
  _atom_site_label
  _atom_site_symmetry_multiplicity
  _atom_site_fract_x
  _atom_site_fract_y
  _atom_site_fract_z
  _atom_site_occupancy
  Ba  Ba1       1.0  0.11000  0.08370  0.09860  1.0000
  Ba  Ba2       1.0  0.89000  0.58400  0.40100  1.0000
  Ba  Ba3       1.0  0.39000  0.91600  0.59900  1.0000
  Ba  Ba4       1.0  0.61000  0.41600  0.90100  1.0000
  Na  Na1       1.0  0.47700  0.13600  0.10700  1.0000
  Na  Na2       1.0  0.52300  0.63600  0.39300  1.0000
  Na  Na3       1.0  0.02330  0.86400  0.60700  1.0000
  Na  Na4       1.0  0.97700  0.36400  0.89300  1.0000
  O   O1        1.0  0.44000  0.56800  0.01050  1.0000
  O   O2        1.0  0.49300  0.95400  0.02940  1.0000
  O   O3        1.0  0.09360  0.72000  0.08760  1.0000
  O   O4        1.0  0.31900  0.73700  0.09100  1.0000
  O   O5        1.0  0.71900  0.92700  0.10000  1.0000
  O   O6        1.0  0.69500  0.61600  0.12000  1.0000
  O   O7        1.0  0.43400  0.31900  0.15000  1.0000
  O   O8        1.0  0.13000  0.31000  0.16200  1.0000
  O   O9        1.0  0.80900  0.37200  0.17400  1.0000
  O   O10       1.0  0.19100  0.87200  0.32600  1.0000
  O   O11       1.0  0.87000  0.81000  0.33800  1.0000
  O   O12       1.0  0.56600  0.81900  0.35000  1.0000
  O   O13       1.0  0.30500  0.11600  0.38000  1.0000
  O   O14       1.0  0.28100  0.42700  0.40000  1.0000
  O   O15       1.0  0.68100  0.23700  0.40900  1.0000
  O   O16       1.0  0.90600  0.22000  0.41200  1.0000
  O   O17       1.0  0.50700  0.45400  0.47100  1.0000
  O   O18       1.0  0.56000  0.06790  0.49000  1.0000
  O   O19       1.0  0.06000  0.43200  0.51000  1.0000
  O   O20       1.0  0.00691  0.04620  0.52900  1.0000
  O   O21       1.0  0.40600  0.28000  0.58800  1.0000
  O   O22       1.0  0.18100  0.26300  0.59100  1.0000
  O   O23       1.0  0.78100  0.07260  0.60000  1.0000
  O   O24       1.0  0.80500  0.38400  0.62000  1.0000
  O   O25       1.0  0.06590  0.68100  0.65000  1.0000
  O   O26       1.0  0.37000  0.69000  0.66200  1.0000
  O   O27       1.0  0.69100  0.62800  0.67400  1.0000
  O   O28       1.0  0.30900  0.12800  0.82600  1.0000
  O   O29       1.0  0.63000  0.19000  0.83800  1.0000
  O   O30       1.0  0.93400  0.18100  0.85000  1.0000
  O   O31       1.0  0.19500  0.88400  0.88000  1.0000
  O   O32       1.0  0.21900  0.57300  0.90000  1.0000
  O   O33       1.0  0.81900  0.76300  0.90900  1.0000
  O   O34       1.0  0.59400  0.78000  0.91200  1.0000
  O   O35       1.0  0.99300  0.54600  0.97100  1.0000
  O   O36       1.0  0.94000  0.93200  0.99000  1.0000
  P   P1        1.0  0.19900  0.81300  0.09560  1.0000
  P   P2        1.0  0.84700  0.86100  0.10300  1.0000
  P   P3        1.0  0.58500  0.87400  0.11800  1.0000
  P   P4        1.0  0.41500  0.37400  0.38200  1.0000
  P   P5        1.0  0.15300  0.36100  0.39700  1.0000
  P   P6        1.0  0.80100  0.31300  0.40400  1.0000
  P   P7        1.0  0.30100  0.18700  0.59600  1.0000
  P   P8        1.0  0.65300  0.13900  0.60300  1.0000
  P   P9        1.0  0.91500  0.12600  0.61800  1.0000
  P   P10       1.0  0.08530  0.62600  0.88200  1.0000
  P   P11       1.0  0.34700  0.63900  0.89700  1.0000
  P   P12       1.0  0.69900  0.68700  0.90400  1.0000
