data_image0
_chemical_formula_structural       Ca2Cs10F30Ni8
_chemical_formula_sum              "Ca2 Cs10 F30 Ni8"
_cell_length_a       6.05854
_cell_length_b       6.05855
_cell_length_c       24.7936
_cell_angle_alpha    90
_cell_angle_beta     90
_cell_angle_gamma    120

_space_group_name_H-M_alt    "P 1"
_space_group_IT_number       1

loop_
  _space_group_symop_operation_xyz
  'x, y, z'

loop_
  _atom_site_type_symbol
  _atom_site_label
  _atom_site_symmetry_multiplicity
  _atom_site_fract_x
  _atom_site_fract_y
  _atom_site_fract_z
  _atom_site_occupancy
  Ca  Ca1       1.0  0.00000  0.00000  0.00000  1.0000
  Ca  Ca2       1.0  0.00000  0.00000  0.50000  1.0000
  Cs  Cs1       1.0  0.33300  0.66700  0.05700  1.0000
  Cs  Cs2       1.0  0.00000  0.00000  0.15500  1.0000
  Cs  Cs3       1.0  0.33300  0.66700  0.25000  1.0000
  Cs  Cs4       1.0  0.00000  0.00000  0.34500  1.0000
  Cs  Cs5       1.0  0.33300  0.66700  0.44300  1.0000
  Cs  Cs6       1.0  0.66700  0.33300  0.55700  1.0000
  Cs  Cs7       1.0  0.00000  0.00000  0.65500  1.0000
  Cs  Cs8       1.0  0.66700  0.33300  0.75000  1.0000
  Cs  Cs9       1.0  0.00000  0.00000  0.84500  1.0000
  Cs  Cs10      1.0  0.66700  0.33300  0.94300  1.0000
  F   F1        1.0  0.34900  0.17400  0.04980  1.0000
  F   F2        1.0  0.82600  0.17400  0.04980  1.0000
  F   F3        1.0  0.82600  0.65100  0.04980  1.0000
  F   F4        1.0  0.51800  0.03620  0.14700  1.0000
  F   F5        1.0  0.51800  0.48200  0.14700  1.0000
  F   F6        1.0  0.96400  0.48200  0.14700  1.0000
  F   F7        1.0  0.36900  0.18500  0.25000  1.0000
  F   F8        1.0  0.81500  0.18500  0.25000  1.0000
  F   F9        1.0  0.81500  0.63100  0.25000  1.0000
  F   F10       1.0  0.51800  0.03620  0.35300  1.0000
  F   F11       1.0  0.51800  0.48200  0.35300  1.0000
  F   F12       1.0  0.96400  0.48200  0.35300  1.0000
  F   F13       1.0  0.82600  0.65100  0.45000  1.0000
  F   F14       1.0  0.34900  0.17400  0.45000  1.0000
  F   F15       1.0  0.82600  0.17400  0.45000  1.0000
  F   F16       1.0  0.17400  0.82600  0.55000  1.0000
  F   F17       1.0  0.65100  0.82600  0.55000  1.0000
  F   F18       1.0  0.17400  0.34900  0.55000  1.0000
  F   F19       1.0  0.48200  0.96400  0.64700  1.0000
  F   F20       1.0  0.03620  0.51800  0.64700  1.0000
  F   F21       1.0  0.48200  0.51800  0.64700  1.0000
  F   F22       1.0  0.18500  0.36900  0.75000  1.0000
  F   F23       1.0  0.18500  0.81500  0.75000  1.0000
  F   F24       1.0  0.63100  0.81500  0.75000  1.0000
  F   F25       1.0  0.03620  0.51800  0.85300  1.0000
  F   F26       1.0  0.48200  0.51800  0.85300  1.0000
  F   F27       1.0  0.48200  0.96400  0.85300  1.0000
  F   F28       1.0  0.17400  0.34900  0.95000  1.0000
  F   F29       1.0  0.17400  0.82600  0.95000  1.0000
  F   F30       1.0  0.65100  0.82600  0.95000  1.0000
  Ni  Ni1       1.0  0.66700  0.33300  0.09250  1.0000
  Ni  Ni2       1.0  0.66700  0.33300  0.19800  1.0000
  Ni  Ni3       1.0  0.66700  0.33300  0.30200  1.0000
  Ni  Ni4       1.0  0.66700  0.33300  0.40800  1.0000
  Ni  Ni5       1.0  0.33300  0.66700  0.59200  1.0000
  Ni  Ni6       1.0  0.33300  0.66700  0.69800  1.0000
  Ni  Ni7       1.0  0.33300  0.66700  0.80200  1.0000
  Ni  Ni8       1.0  0.33300  0.66700  0.90800  1.0000
