data_image0
_chemical_formula_structural       As4Cl12F24Se12
_chemical_formula_sum              "As4 Cl12 F24 Se12"
_cell_length_a       11.7156
_cell_length_b       7.63241
_cell_length_c       11.6187
_cell_angle_alpha    90
_cell_angle_beta     106.231
_cell_angle_gamma    90

_space_group_name_H-M_alt    "P 1"
_space_group_IT_number       1

loop_
  _space_group_symop_operation_xyz
  'x, y, z'

loop_
  _atom_site_type_symbol
  _atom_site_label
  _atom_site_symmetry_multiplicity
  _atom_site_fract_x
  _atom_site_fract_y
  _atom_site_fract_z
  _atom_site_occupancy
  As  As1       1.0  0.73600  0.70400  0.00387  1.0000
  As  As2       1.0  0.26400  0.20400  0.49600  1.0000
  As  As3       1.0  0.73600  0.79600  0.50400  1.0000
  As  As4       1.0  0.26400  0.29600  0.99600  1.0000
  Cl  Cl1       1.0  0.64000  0.19500  0.10800  1.0000
  Cl  Cl2       1.0  0.99200  0.23100  0.15600  1.0000
  Cl  Cl3       1.0  0.47500  0.82000  0.18000  1.0000
  Cl  Cl4       1.0  0.52500  0.32000  0.32000  1.0000
  Cl  Cl5       1.0  0.00781  0.73100  0.34400  1.0000
  Cl  Cl6       1.0  0.36000  0.69500  0.39200  1.0000
  Cl  Cl7       1.0  0.64000  0.30500  0.60800  1.0000
  Cl  Cl8       1.0  0.99200  0.26900  0.65600  1.0000
  Cl  Cl9       1.0  0.47500  0.68000  0.68000  1.0000
  Cl  Cl10      1.0  0.52500  0.18000  0.82000  1.0000
  Cl  Cl11      1.0  0.00781  0.76900  0.84400  1.0000
  Cl  Cl12      1.0  0.36000  0.80500  0.89200  1.0000
  F   F1        1.0  0.39100  0.43000  0.04150  1.0000
  F   F2        1.0  0.86300  0.84100  0.04890  1.0000
  F   F3        1.0  0.19500  0.41800  0.08720  1.0000
  F   F4        1.0  0.66800  0.82600  0.09450  1.0000
  F   F5        1.0  0.32500  0.15200  0.11900  1.0000
  F   F6        1.0  0.79700  0.55900  0.12600  1.0000
  F   F7        1.0  0.20300  0.05920  0.37400  1.0000
  F   F8        1.0  0.67500  0.65200  0.38100  1.0000
  F   F9        1.0  0.33200  0.32600  0.40500  1.0000
  F   F10       1.0  0.80500  0.91800  0.41300  1.0000
  F   F11       1.0  0.13700  0.34100  0.45100  1.0000
  F   F12       1.0  0.60900  0.93000  0.45800  1.0000
  F   F13       1.0  0.39100  0.06970  0.54200  1.0000
  F   F14       1.0  0.86300  0.65900  0.54900  1.0000
  F   F15       1.0  0.19500  0.08240  0.58700  1.0000
  F   F16       1.0  0.66800  0.67400  0.59500  1.0000
  F   F17       1.0  0.32500  0.34800  0.61900  1.0000
  F   F18       1.0  0.79700  0.94100  0.62600  1.0000
  F   F19       1.0  0.20300  0.44100  0.87400  1.0000
  F   F20       1.0  0.67500  0.84800  0.88100  1.0000
  F   F21       1.0  0.33200  0.17400  0.90500  1.0000
  F   F22       1.0  0.80500  0.58200  0.91300  1.0000
  F   F23       1.0  0.13700  0.15900  0.95100  1.0000
  F   F24       1.0  0.60900  0.57000  0.95800  1.0000
  Se  Se1       1.0  0.15600  0.84400  0.12700  1.0000
  Se  Se2       1.0  0.09740  0.61800  0.21600  1.0000
  Se  Se3       1.0  0.64200  0.41400  0.22000  1.0000
  Se  Se4       1.0  0.35800  0.91400  0.28000  1.0000
  Se  Se5       1.0  0.90300  0.11800  0.28400  1.0000
  Se  Se6       1.0  0.84400  0.34400  0.37300  1.0000
  Se  Se7       1.0  0.15600  0.65600  0.62700  1.0000
  Se  Se8       1.0  0.09740  0.88200  0.71600  1.0000
  Se  Se9       1.0  0.64200  0.08600  0.72000  1.0000
  Se  Se10      1.0  0.35800  0.58600  0.78000  1.0000
  Se  Se11      1.0  0.90300  0.38200  0.78400  1.0000
  Se  Se12      1.0  0.84400  0.15600  0.87300  1.0000
