data_image0
_chemical_formula_structural       As8Fe6H4K2O32
_chemical_formula_sum              "As8 Fe6 H4 K2 O32"
_cell_length_a       6.57656
_cell_length_b       9.91854
_cell_length_c       10.8573
_cell_angle_alpha    100.046
_cell_angle_beta     90
_cell_angle_gamma    109.362

_space_group_name_H-M_alt    "P 1"
_space_group_IT_number       1

loop_
  _space_group_symop_operation_xyz
  'x, y, z'

loop_
  _atom_site_type_symbol
  _atom_site_label
  _atom_site_symmetry_multiplicity
  _atom_site_fract_x
  _atom_site_fract_y
  _atom_site_fract_z
  _atom_site_occupancy
  As  As1       1.0  0.59900  0.85500  0.05190  1.0000
  As  As2       1.0  0.17300  0.39300  0.22700  1.0000
  As  As3       1.0  0.78100  0.60700  0.27300  1.0000
  As  As4       1.0  0.74400  0.14500  0.44800  1.0000
  As  As5       1.0  0.25600  0.85500  0.55200  1.0000
  As  As6       1.0  0.21900  0.39300  0.72700  1.0000
  As  As7       1.0  0.82700  0.60700  0.77300  1.0000
  As  As8       1.0  0.40100  0.14500  0.94800  1.0000
  Fe  Fe1       1.0  0.50000  0.50000  0.00000  1.0000
  Fe  Fe2       1.0  0.62200  0.29300  0.22700  1.0000
  Fe  Fe3       1.0  0.32800  0.70700  0.27300  1.0000
  Fe  Fe4       1.0  0.00000  0.50000  0.50000  1.0000
  Fe  Fe5       1.0  0.67200  0.29300  0.72700  1.0000
  Fe  Fe6       1.0  0.37800  0.70700  0.77300  1.0000
  H   H1        1.0  0.82900  0.09630  0.11000  1.0000
  H   H2        1.0  0.73200  0.90400  0.39000  1.0000
  H   H3        1.0  0.26800  0.09630  0.61000  1.0000
  H   H4        1.0  0.17100  0.90400  0.89000  1.0000
  K   K1        1.0  0.16500  0.00000  0.25000  1.0000
  K   K2        1.0  0.83500  0.00000  0.75000  1.0000
  O   O1        1.0  0.68100  0.70700  0.03440  1.0000
  O   O2        1.0  0.50900  0.12900  0.08520  1.0000
  O   O3        1.0  0.84200  0.99700  0.09540  1.0000
  O   O4        1.0  0.28200  0.52300  0.13200  1.0000
  O   O5        1.0  0.67400  0.47200  0.14000  1.0000
  O   O6        1.0  0.41600  0.84500  0.16300  1.0000
  O   O7        1.0  0.91500  0.28600  0.17800  1.0000
  O   O8        1.0  0.03160  0.71300  0.24800  1.0000
  O   O9        1.0  0.31900  0.28700  0.25200  1.0000
  O   O10       1.0  0.62900  0.71400  0.32200  1.0000
  O   O11       1.0  0.57100  0.15500  0.33700  1.0000
  O   O12       1.0  0.20100  0.52800  0.36000  1.0000
  O   O13       1.0  0.75900  0.47700  0.36800  1.0000
  O   O14       1.0  0.84500  0.00261  0.40500  1.0000
  O   O15       1.0  0.38000  0.87100  0.41500  1.0000
  O   O16       1.0  0.97500  0.29300  0.46600  1.0000
  O   O17       1.0  0.02550  0.70700  0.53400  1.0000
  O   O18       1.0  0.62000  0.12900  0.58500  1.0000
  O   O19       1.0  0.15500  0.99700  0.59500  1.0000
  O   O20       1.0  0.24100  0.52300  0.63200  1.0000
  O   O21       1.0  0.79900  0.47200  0.64000  1.0000
  O   O22       1.0  0.42900  0.84500  0.66300  1.0000
  O   O23       1.0  0.37100  0.28600  0.67800  1.0000
  O   O24       1.0  0.68100  0.71300  0.74800  1.0000
  O   O25       1.0  0.96800  0.28700  0.75200  1.0000
  O   O26       1.0  0.08470  0.71400  0.82200  1.0000
  O   O27       1.0  0.58400  0.15500  0.83700  1.0000
  O   O28       1.0  0.32600  0.52800  0.86000  1.0000
  O   O29       1.0  0.71800  0.47700  0.86800  1.0000
  O   O30       1.0  0.15800  0.00261  0.90500  1.0000
  O   O31       1.0  0.49100  0.87100  0.91500  1.0000
  O   O32       1.0  0.31900  0.29300  0.96600  1.0000
