data_image0
_chemical_formula_structural       B16Cu2O32Tb4
_chemical_formula_sum              "B16 Cu2 O32 Tb4"
_cell_length_a       10.2357
_cell_length_b       8.35878
_cell_length_c       6.13661
_cell_angle_alpha    90
_cell_angle_beta     90.4998
_cell_angle_gamma    90

_space_group_name_H-M_alt    "P 1"
_space_group_IT_number       1

loop_
  _space_group_symop_operation_xyz
  'x, y, z'

loop_
  _atom_site_type_symbol
  _atom_site_label
  _atom_site_symmetry_multiplicity
  _atom_site_fract_x
  _atom_site_fract_y
  _atom_site_fract_z
  _atom_site_occupancy
  B   B1        1.0  0.80700  0.00617  0.00929  1.0000
  B   B2        1.0  0.00056  0.18300  0.11300  1.0000
  B   B3        1.0  0.38600  0.81200  0.11600  1.0000
  B   B4        1.0  0.63000  0.80700  0.12500  1.0000
  B   B5        1.0  0.37000  0.30700  0.37500  1.0000
  B   B6        1.0  0.61400  0.31200  0.38400  1.0000
  B   B7        1.0  0.99900  0.68300  0.38700  1.0000
  B   B8        1.0  0.19300  0.50600  0.49100  1.0000
  B   B9        1.0  0.80700  0.49400  0.50900  1.0000
  B   B10       1.0  0.00056  0.31700  0.61300  1.0000
  B   B11       1.0  0.38600  0.68800  0.61600  1.0000
  B   B12       1.0  0.63000  0.69300  0.62500  1.0000
  B   B13       1.0  0.37000  0.19300  0.87500  1.0000
  B   B14       1.0  0.61400  0.18800  0.88400  1.0000
  B   B15       1.0  0.99900  0.81700  0.88700  1.0000
  B   B16       1.0  0.19300  0.99400  0.99100  1.0000
  Cu  Cu1       1.0  0.50000  0.50000  0.00000  1.0000
  Cu  Cu2       1.0  0.50000  0.00000  0.50000  1.0000
  O   O1        1.0  0.01320  0.33800  0.06020  1.0000
  O   O2        1.0  0.36700  0.65900  0.06050  1.0000
  O   O3        1.0  0.64300  0.65300  0.06670  1.0000
  O   O4        1.0  0.10500  0.07830  0.13900  1.0000
  O   O5        1.0  0.27900  0.91200  0.14700  1.0000
  O   O6        1.0  0.50800  0.87900  0.15200  1.0000
  O   O7        1.0  0.87500  0.12200  0.15400  1.0000
  O   O8        1.0  0.73900  0.90300  0.16300  1.0000
  O   O9        1.0  0.26100  0.40300  0.33700  1.0000
  O   O10       1.0  0.12500  0.62200  0.34600  1.0000
  O   O11       1.0  0.49200  0.37900  0.34800  1.0000
  O   O12       1.0  0.72100  0.41200  0.35300  1.0000
  O   O13       1.0  0.89500  0.57800  0.36100  1.0000
  O   O14       1.0  0.35700  0.15300  0.43300  1.0000
  O   O15       1.0  0.63300  0.15900  0.43900  1.0000
  O   O16       1.0  0.98700  0.83800  0.44000  1.0000
  O   O17       1.0  0.01320  0.16200  0.56000  1.0000
  O   O18       1.0  0.36700  0.84100  0.56100  1.0000
  O   O19       1.0  0.64300  0.84700  0.56700  1.0000
  O   O20       1.0  0.10500  0.42200  0.63900  1.0000
  O   O21       1.0  0.27900  0.58800  0.64700  1.0000
  O   O22       1.0  0.50800  0.62100  0.65200  1.0000
  O   O23       1.0  0.87500  0.37800  0.65400  1.0000
  O   O24       1.0  0.73900  0.59700  0.66300  1.0000
  O   O25       1.0  0.26100  0.09750  0.83700  1.0000
  O   O26       1.0  0.12500  0.87800  0.84600  1.0000
  O   O27       1.0  0.49200  0.12100  0.84800  1.0000
  O   O28       1.0  0.72100  0.08790  0.85300  1.0000
  O   O29       1.0  0.89500  0.92200  0.86100  1.0000
  O   O30       1.0  0.35700  0.34700  0.93300  1.0000
  O   O31       1.0  0.63300  0.34100  0.93900  1.0000
  O   O32       1.0  0.98700  0.66200  0.94000  1.0000
  Tb  Tb1       1.0  0.81800  0.48700  0.00824  1.0000
  Tb  Tb2       1.0  0.18200  0.98700  0.49200  1.0000
  Tb  Tb3       1.0  0.81800  0.01300  0.50800  1.0000
  Tb  Tb4       1.0  0.18200  0.51300  0.99200  1.0000
