data_image0
_chemical_formula_structural       Ba8Cd8S32Sn8
_chemical_formula_sum              "Ba8 Cd8 S32 Sn8"
_cell_length_a       12.8023
_cell_length_b       12.8023
_cell_length_c       12.8996
_cell_angle_alpha    105.506
_cell_angle_beta     105.506
_cell_angle_gamma    117.469

_space_group_name_H-M_alt    "P 1"
_space_group_IT_number       1

loop_
  _space_group_symop_operation_xyz
  'x, y, z'

loop_
  _atom_site_type_symbol
  _atom_site_label
  _atom_site_symmetry_multiplicity
  _atom_site_fract_x
  _atom_site_fract_y
  _atom_site_fract_z
  _atom_site_occupancy
  Ba  Ba1       1.0  0.49500  0.49500  0.00000  1.0000
  Ba  Ba2       1.0  0.99900  0.99900  0.00000  1.0000
  Ba  Ba3       1.0  0.50000  0.99800  0.00447  1.0000
  Ba  Ba4       1.0  0.24600  0.24300  0.49600  1.0000
  Ba  Ba5       1.0  0.74900  0.24900  0.50000  1.0000
  Ba  Ba6       1.0  0.24500  0.74500  0.50000  1.0000
  Ba  Ba7       1.0  0.74800  0.75000  0.50400  1.0000
  Ba  Ba8       1.0  0.99300  0.49600  0.99600  1.0000
  Cd  Cd1       1.0  0.26200  0.48500  0.24800  1.0000
  Cd  Cd2       1.0  0.33000  0.97900  0.24900  1.0000
  Cd  Cd3       1.0  0.83100  0.98000  0.25100  1.0000
  Cd  Cd4       1.0  0.76300  0.48700  0.25200  1.0000
  Cd  Cd5       1.0  0.23500  0.51200  0.74800  1.0000
  Cd  Cd6       1.0  0.72900  0.58000  0.74900  1.0000
  Cd  Cd7       1.0  0.73000  0.08120  0.75100  1.0000
  Cd  Cd8       1.0  0.23700  0.01330  0.75200  1.0000
  S   S1        1.0  0.29700  0.05410  0.07960  1.0000
  S   S2        1.0  0.79400  0.05130  0.07980  1.0000
  S   S3        1.0  0.29400  0.55500  0.08040  1.0000
  S   S4        1.0  0.79300  0.55300  0.08120  1.0000
  S   S5        1.0  0.04860  0.46700  0.24700  1.0000
  S   S6        1.0  0.02740  0.96400  0.24700  1.0000
  S   S7        1.0  0.17900  0.76700  0.24900  1.0000
  S   S8        1.0  0.21500  0.27300  0.24900  1.0000
  S   S9        1.0  0.71600  0.27400  0.25100  1.0000
  S   S10       1.0  0.68000  0.76800  0.25100  1.0000
  S   S11       1.0  0.53000  0.96700  0.25300  1.0000
  S   S12       1.0  0.55200  0.47000  0.25300  1.0000
  S   S13       1.0  0.46200  0.72200  0.41900  1.0000
  S   S14       1.0  0.96400  0.72500  0.42000  1.0000
  S   S15       1.0  0.46400  0.22100  0.42000  1.0000
  S   S16       1.0  0.96700  0.22400  0.42000  1.0000
  S   S17       1.0  0.80400  0.54700  0.58000  1.0000
  S   S18       1.0  0.80100  0.04430  0.58000  1.0000
  S   S19       1.0  0.30500  0.54400  0.58000  1.0000
  S   S20       1.0  0.30300  0.04280  0.58100  1.0000
  S   S21       1.0  0.21700  0.29900  0.74700  1.0000
  S   S22       1.0  0.71400  0.27700  0.74700  1.0000
  S   S23       1.0  0.51700  0.42900  0.74900  1.0000
  S   S24       1.0  0.02340  0.46500  0.74900  1.0000
  S   S25       1.0  0.02440  0.96600  0.75100  1.0000
  S   S26       1.0  0.51800  0.93000  0.75100  1.0000
  S   S27       1.0  0.71700  0.78000  0.75300  1.0000
  S   S28       1.0  0.22000  0.80200  0.75300  1.0000
  S   S29       1.0  0.47200  0.71200  0.91900  1.0000
  S   S30       1.0  0.47500  0.21400  0.92000  1.0000
  S   S31       1.0  0.97100  0.71400  0.92000  1.0000
  S   S32       1.0  0.97400  0.21700  0.92000  1.0000
  Sn  Sn1       1.0  0.90200  0.26500  0.24900  1.0000
  Sn  Sn2       1.0  0.98600  0.76200  0.24900  1.0000
  Sn  Sn3       1.0  0.48600  0.76300  0.25100  1.0000
  Sn  Sn4       1.0  0.40300  0.26600  0.25100  1.0000
  Sn  Sn5       1.0  0.01550  0.15200  0.74900  1.0000
  Sn  Sn6       1.0  0.51200  0.23600  0.74900  1.0000
  Sn  Sn7       1.0  0.51300  0.73600  0.75100  1.0000
  Sn  Sn8       1.0  0.01640  0.65300  0.75100  1.0000
