data_image0
_chemical_formula_structural       H8O32Rb8S8
_chemical_formula_sum              "H8 O32 Rb8 S8"
_cell_length_a       13.2843
_cell_length_b       4.31083
_cell_length_c       13.4294
_cell_angle_alpha    90
_cell_angle_beta     119.452
_cell_angle_gamma    90

_space_group_name_H-M_alt    "P 1"
_space_group_IT_number       1

loop_
  _space_group_symop_operation_xyz
  'x, y, z'

loop_
  _atom_site_type_symbol
  _atom_site_label
  _atom_site_symmetry_multiplicity
  _atom_site_fract_x
  _atom_site_fract_y
  _atom_site_fract_z
  _atom_site_occupancy
  H   H1        1.0  0.24000  0.66700  0.02050  1.0000
  H   H2        1.0  0.24000  0.33300  0.52100  1.0000
  H   H3        1.0  0.82800  0.85200  0.25000  1.0000
  H   H4        1.0  0.82800  0.14800  0.75000  1.0000
  H   H5        1.0  0.12000  0.33800  0.09370  1.0000
  H   H6        1.0  0.12000  0.66200  0.59400  1.0000
  H   H7        1.0  0.66000  0.64400  0.40200  1.0000
  H   H8        1.0  0.66000  0.35600  0.90200  1.0000
  O   O1        1.0  0.98400  0.36200  0.35000  1.0000
  O   O2        1.0  0.98400  0.63800  0.85000  1.0000
  O   O3        1.0  0.32000  0.11500  0.10500  1.0000
  O   O4        1.0  0.32000  0.88500  0.60500  1.0000
  O   O5        1.0  0.28600  0.57300  0.98900  1.0000
  O   O6        1.0  0.28600  0.42700  0.48900  1.0000
  O   O7        1.0  0.42300  0.03180  0.21700  1.0000
  O   O8        1.0  0.42300  0.96800  0.71700  1.0000
  O   O9        1.0  0.47500  0.34500  0.07000  1.0000
  O   O10       1.0  0.47500  0.65500  0.57000  1.0000
  O   O11       1.0  0.07370  0.12700  0.07110  1.0000
  O   O12       1.0  0.07370  0.87300  0.57100  1.0000
  O   O13       1.0  0.22600  0.01150  0.26300  1.0000
  O   O14       1.0  0.22600  0.98900  0.76300  1.0000
  O   O15       1.0  0.17600  0.63300  0.10900  1.0000
  O   O16       1.0  0.17600  0.36700  0.60900  1.0000
  O   O17       1.0  0.04510  0.72400  0.18000  1.0000
  O   O18       1.0  0.04510  0.27600  0.68000  1.0000
  O   O19       1.0  0.70400  0.91300  0.41900  1.0000
  O   O20       1.0  0.70400  0.08720  0.91900  1.0000
  O   O21       1.0  0.73800  0.27300  0.57100  1.0000
  O   O22       1.0  0.73800  0.72700  0.07090  1.0000
  O   O23       1.0  0.61600  0.41500  0.37000  1.0000
  O   O24       1.0  0.61600  0.58500  0.87000  1.0000
  O   O25       1.0  0.54800  0.03810  0.45700  1.0000
  O   O26       1.0  0.54800  0.96200  0.95700  1.0000
  O   O27       1.0  0.86700  0.80300  0.33200  1.0000
  O   O28       1.0  0.86700  0.19700  0.83200  1.0000
  O   O29       1.0  0.77400  0.32100  0.24400  1.0000
  O   O30       1.0  0.77400  0.67900  0.74400  1.0000
  O   O31       1.0  0.87700  0.38100  0.45300  1.0000
  O   O32       1.0  0.87700  0.61900  0.95300  1.0000
  Rb  Rb1       1.0  0.61000  0.86100  0.18700  1.0000
  Rb  Rb2       1.0  0.61000  0.13900  0.68700  1.0000
  Rb  Rb3       1.0  0.89300  0.23300  0.11600  1.0000
  Rb  Rb4       1.0  0.89300  0.76700  0.61600  1.0000
  Rb  Rb5       1.0  0.38900  0.52400  0.34200  1.0000
  Rb  Rb6       1.0  0.38900  0.47600  0.84200  1.0000
  Rb  Rb7       1.0  0.12100  0.88600  0.39500  1.0000
  Rb  Rb8       1.0  0.12100  0.11400  0.89500  1.0000
  S   S1        1.0  0.87500  0.43500  0.34700  1.0000
  S   S2        1.0  0.87500  0.56500  0.84700  1.0000
  S   S3        1.0  0.39400  0.41900  0.11100  1.0000
  S   S4        1.0  0.39400  0.58100  0.61100  1.0000
  S   S5        1.0  0.13400  0.86700  0.16200  1.0000
  S   S6        1.0  0.13400  0.13300  0.66200  1.0000
  S   S7        1.0  0.65100  0.15700  0.45900  1.0000
  S   S8        1.0  0.65100  0.84300  0.95900  1.0000
