data_image0
_chemical_formula_structural       K2S32V20
_chemical_formula_sum              "K2 S32 V20"
_cell_length_a       17.4708
_cell_length_b       6.4476
_cell_length_c       8.43169
_cell_angle_alpha    90
_cell_angle_beta     104.181
_cell_angle_gamma    90

_space_group_name_H-M_alt    "P 1"
_space_group_IT_number       1

loop_
  _space_group_symop_operation_xyz
  'x, y, z'

loop_
  _atom_site_type_symbol
  _atom_site_label
  _atom_site_symmetry_multiplicity
  _atom_site_fract_x
  _atom_site_fract_y
  _atom_site_fract_z
  _atom_site_occupancy
  K   K1        1.0  0.00000  0.01250  0.00000  1.0000
  K   K2        1.0  0.50000  0.26200  0.00000  1.0000
  S   S1        1.0  0.16000  0.76300  0.00452  1.0000
  S   S2        1.0  0.66000  0.51400  0.00495  1.0000
  S   S3        1.0  0.16100  0.26500  0.00626  1.0000
  S   S4        1.0  0.66100  0.01290  0.00633  1.0000
  S   S5        1.0  0.42400  0.76400  0.31200  1.0000
  S   S6        1.0  0.92400  0.51400  0.31300  1.0000
  S   S7        1.0  0.08420  0.26800  0.31500  1.0000
  S   S8        1.0  0.58400  0.51700  0.31500  1.0000
  S   S9        1.0  0.08430  0.76000  0.31500  1.0000
  S   S10       1.0  0.58400  0.00973  0.31500  1.0000
  S   S11       1.0  0.42800  0.26300  0.32600  1.0000
  S   S12       1.0  0.92800  0.01410  0.32600  1.0000
  S   S13       1.0  0.25900  0.01360  0.34000  1.0000
  S   S14       1.0  0.75900  0.26400  0.34000  1.0000
  S   S15       1.0  0.25900  0.51300  0.34100  1.0000
  S   S16       1.0  0.75900  0.76400  0.34200  1.0000
  S   S17       1.0  0.24100  0.76400  0.65800  1.0000
  S   S18       1.0  0.74100  0.51300  0.65900  1.0000
  S   S19       1.0  0.24100  0.26400  0.66000  1.0000
  S   S20       1.0  0.74100  0.01360  0.66000  1.0000
  S   S21       1.0  0.07180  0.01410  0.67400  1.0000
  S   S22       1.0  0.57200  0.26300  0.67400  1.0000
  S   S23       1.0  0.41600  0.00973  0.68500  1.0000
  S   S24       1.0  0.91600  0.76000  0.68500  1.0000
  S   S25       1.0  0.41600  0.51700  0.68500  1.0000
  S   S26       1.0  0.91600  0.26800  0.68500  1.0000
  S   S27       1.0  0.07580  0.51400  0.68700  1.0000
  S   S28       1.0  0.57600  0.76400  0.68800  1.0000
  S   S29       1.0  0.33900  0.01290  0.99400  1.0000
  S   S30       1.0  0.83900  0.26500  0.99400  1.0000
  S   S31       1.0  0.34000  0.51400  0.99500  1.0000
  S   S32       1.0  0.84000  0.76300  0.99500  1.0000
  V   V1        1.0  0.28900  0.76300  0.13900  1.0000
  V   V2        1.0  0.78900  0.51400  0.14000  1.0000
  V   V3        1.0  0.29000  0.26400  0.14100  1.0000
  V   V4        1.0  0.79000  0.01390  0.14100  1.0000
  V   V5        1.0  0.14700  0.01420  0.49500  1.0000
  V   V6        1.0  0.64700  0.26400  0.49500  1.0000
  V   V7        1.0  0.14700  0.51400  0.49600  1.0000
  V   V8        1.0  0.64700  0.76300  0.49600  1.0000
  V   V9        1.0  0.50000  0.53800  0.50000  1.0000
  V   V10       1.0  0.50000  0.98900  0.50000  1.0000
  V   V11       1.0  0.00000  0.28900  0.50000  1.0000
  V   V12       1.0  0.00000  0.73900  0.50000  1.0000
  V   V13       1.0  0.35300  0.76300  0.50400  1.0000
  V   V14       1.0  0.85300  0.51400  0.50400  1.0000
  V   V15       1.0  0.35300  0.26400  0.50500  1.0000
  V   V16       1.0  0.85300  0.01420  0.50500  1.0000
  V   V17       1.0  0.21000  0.01390  0.85900  1.0000
  V   V18       1.0  0.71000  0.26400  0.85900  1.0000
  V   V19       1.0  0.21100  0.51400  0.86000  1.0000
  V   V20       1.0  0.71100  0.76300  0.86100  1.0000
