data_image0
_chemical_formula_structural       I4K18Li6O26
_chemical_formula_sum              "I4 K18 Li6 O26"
_cell_length_a       9.33043
_cell_length_b       9.33043
_cell_length_c       11.4628
_cell_angle_alpha    90
_cell_angle_beta     90
_cell_angle_gamma    120

_space_group_name_H-M_alt    "P 1"
_space_group_IT_number       1

loop_
  _space_group_symop_operation_xyz
  'x, y, z'

loop_
  _atom_site_type_symbol
  _atom_site_label
  _atom_site_symmetry_multiplicity
  _atom_site_fract_x
  _atom_site_fract_y
  _atom_site_fract_z
  _atom_site_occupancy
  I   I1        1.0  0.66700  0.33300  0.01060  1.0000
  I   I2        1.0  0.66700  0.33300  0.48900  1.0000
  I   I3        1.0  0.33300  0.66700  0.51100  1.0000
  I   I4        1.0  0.33300  0.66700  0.98900  1.0000
  K   K1        1.0  0.78500  0.00000  0.00000  1.0000
  K   K2        1.0  0.21500  0.21500  0.00000  1.0000
  K   K3        1.0  0.00000  0.78500  0.00000  1.0000
  K   K4        1.0  0.36100  0.09510  0.25000  1.0000
  K   K5        1.0  0.90500  0.26600  0.25000  1.0000
  K   K6        1.0  0.35000  0.44700  0.25000  1.0000
  K   K7        1.0  0.73400  0.63900  0.25000  1.0000
  K   K8        1.0  0.09760  0.65000  0.25000  1.0000
  K   K9        1.0  0.55300  0.90200  0.25000  1.0000
  K   K10       1.0  0.78500  0.00000  0.50000  1.0000
  K   K11       1.0  0.21500  0.21500  0.50000  1.0000
  K   K12       1.0  0.00000  0.78500  0.50000  1.0000
  K   K13       1.0  0.65000  0.09760  0.75000  1.0000
  K   K14       1.0  0.44700  0.35000  0.75000  1.0000
  K   K15       1.0  0.09510  0.36100  0.75000  1.0000
  K   K16       1.0  0.90200  0.55300  0.75000  1.0000
  K   K17       1.0  0.63900  0.73400  0.75000  1.0000
  K   K18       1.0  0.26600  0.90500  0.75000  1.0000
  Li  Li1       1.0  0.46100  0.00000  0.00000  1.0000
  Li  Li2       1.0  0.00000  0.46100  0.00000  1.0000
  Li  Li3       1.0  0.53900  0.53900  0.00000  1.0000
  Li  Li4       1.0  0.00000  0.46100  0.50000  1.0000
  Li  Li5       1.0  0.53900  0.53900  0.50000  1.0000
  Li  Li6       1.0  0.46100  0.00000  0.50000  1.0000
  O   O1        1.0  0.51800  0.70000  0.08510  1.0000
  O   O2        1.0  0.18200  0.48200  0.08520  1.0000
  O   O3        1.0  0.30000  0.81800  0.08520  1.0000
  O   O4        1.0  0.51600  0.36600  0.10300  1.0000
  O   O5        1.0  0.85000  0.48400  0.10300  1.0000
  O   O6        1.0  0.63400  0.15000  0.10300  1.0000
  O   O7        1.0  0.00000  0.00000  0.25000  1.0000
  O   O8        1.0  0.63400  0.15000  0.39700  1.0000
  O   O9        1.0  0.85000  0.48400  0.39700  1.0000
  O   O10       1.0  0.51600  0.36600  0.39700  1.0000
  O   O11       1.0  0.30000  0.81800  0.41500  1.0000
  O   O12       1.0  0.18200  0.48200  0.41500  1.0000
  O   O13       1.0  0.51800  0.70000  0.41500  1.0000
  O   O14       1.0  0.70000  0.51800  0.58500  1.0000
  O   O15       1.0  0.48200  0.18200  0.58500  1.0000
  O   O16       1.0  0.81800  0.30000  0.58500  1.0000
  O   O17       1.0  0.36600  0.51600  0.60300  1.0000
  O   O18       1.0  0.48400  0.85000  0.60300  1.0000
  O   O19       1.0  0.15000  0.63400  0.60300  1.0000
  O   O20       1.0  0.00000  0.00000  0.75000  1.0000
  O   O21       1.0  0.15000  0.63400  0.89700  1.0000
  O   O22       1.0  0.48400  0.85000  0.89700  1.0000
  O   O23       1.0  0.36600  0.51600  0.89700  1.0000
  O   O24       1.0  0.81800  0.30000  0.91500  1.0000
  O   O25       1.0  0.48200  0.18200  0.91500  1.0000
  O   O26       1.0  0.70000  0.51800  0.91500  1.0000
