data_image0
_chemical_formula_structural       F12H24Mn4O12
_chemical_formula_sum              "F12 H24 Mn4 O12"
_cell_length_a       7.98571
_cell_length_b       8.85349
_cell_length_c       5.96263
_cell_angle_alpha    90
_cell_angle_beta     94.7061
_cell_angle_gamma    90

_space_group_name_H-M_alt    "P 1"
_space_group_IT_number       1

loop_
  _space_group_symop_operation_xyz
  'x, y, z'

loop_
  _atom_site_type_symbol
  _atom_site_label
  _atom_site_symmetry_multiplicity
  _atom_site_fract_x
  _atom_site_fract_y
  _atom_site_fract_z
  _atom_site_occupancy
  F   F1        1.0  0.28300  0.08440  0.04850  1.0000
  F   F2        1.0  0.14200  0.67100  0.15200  1.0000
  F   F3        1.0  0.46000  0.41700  0.17800  1.0000
  F   F4        1.0  0.54000  0.91700  0.32200  1.0000
  F   F5        1.0  0.85800  0.17100  0.34800  1.0000
  F   F6        1.0  0.71700  0.58400  0.45200  1.0000
  F   F7        1.0  0.28300  0.41600  0.54800  1.0000
  F   F8        1.0  0.14200  0.82900  0.65200  1.0000
  F   F9        1.0  0.46000  0.08310  0.67800  1.0000
  F   F10       1.0  0.54000  0.58300  0.82200  1.0000
  F   F11       1.0  0.85800  0.32900  0.84800  1.0000
  F   F12       1.0  0.71700  0.91600  0.95200  1.0000
  H   H1        1.0  0.30500  0.40400  0.04640  1.0000
  H   H2        1.0  0.88700  0.91300  0.10500  1.0000
  H   H3        1.0  0.54100  0.27900  0.12200  1.0000
  H   H4        1.0  0.05360  0.80900  0.18100  1.0000
  H   H5        1.0  0.71200  0.17800  0.19200  1.0000
  H   H6        1.0  0.76900  0.59800  0.21900  1.0000
  H   H7        1.0  0.23100  0.09810  0.28100  1.0000
  H   H8        1.0  0.28800  0.67800  0.30800  1.0000
  H   H9        1.0  0.94600  0.30900  0.31900  1.0000
  H   H10       1.0  0.45900  0.77900  0.37800  1.0000
  H   H11       1.0  0.11300  0.41300  0.39500  1.0000
  H   H12       1.0  0.69500  0.90400  0.45400  1.0000
  H   H13       1.0  0.30500  0.09580  0.54600  1.0000
  H   H14       1.0  0.88700  0.58700  0.60500  1.0000
  H   H15       1.0  0.54100  0.22100  0.62200  1.0000
  H   H16       1.0  0.05360  0.69100  0.68100  1.0000
  H   H17       1.0  0.71200  0.32200  0.69200  1.0000
  H   H18       1.0  0.76900  0.90200  0.71900  1.0000
  H   H19       1.0  0.23100  0.40200  0.78100  1.0000
  H   H20       1.0  0.28800  0.82200  0.80800  1.0000
  H   H21       1.0  0.94600  0.19100  0.81900  1.0000
  H   H22       1.0  0.45900  0.72100  0.87800  1.0000
  H   H23       1.0  0.11300  0.08680  0.89500  1.0000
  H   H24       1.0  0.69500  0.59600  0.95400  1.0000
  Mn  Mn1       1.0  0.50000  0.00000  0.00000  1.0000
  Mn  Mn2       1.0  0.00000  0.50000  0.00000  1.0000
  Mn  Mn3       1.0  0.50000  0.50000  0.50000  1.0000
  Mn  Mn4       1.0  0.00000  0.00000  0.50000  1.0000
  O   O1        1.0  0.80200  0.61200  0.06000  1.0000
  O   O2        1.0  0.60900  0.18600  0.07930  1.0000
  O   O3        1.0  0.99600  0.91200  0.20000  1.0000
  O   O4        1.0  0.00389  0.41200  0.30000  1.0000
  O   O5        1.0  0.39100  0.68600  0.42100  1.0000
  O   O6        1.0  0.19800  0.11200  0.44000  1.0000
  O   O7        1.0  0.80200  0.88800  0.56000  1.0000
  O   O8        1.0  0.60900  0.31400  0.57900  1.0000
  O   O9        1.0  0.99600  0.58800  0.70000  1.0000
  O   O10       1.0  0.00389  0.08840  0.80000  1.0000
  O   O11       1.0  0.39100  0.81400  0.92100  1.0000
  O   O12       1.0  0.19800  0.38800  0.94000  1.0000
