data_image0
_chemical_formula_structural       Pt30Si18Sm6
_chemical_formula_sum              "Pt30 Si18 Sm6"
_cell_length_a       16.0255
_cell_length_b       16.0255
_cell_length_c       4.00645
_cell_angle_alpha    90
_cell_angle_beta     90
_cell_angle_gamma    120

_space_group_name_H-M_alt    "P 1"
_space_group_IT_number       1

loop_
  _space_group_symop_operation_xyz
  'x, y, z'

loop_
  _atom_site_type_symbol
  _atom_site_label
  _atom_site_symmetry_multiplicity
  _atom_site_fract_x
  _atom_site_fract_y
  _atom_site_fract_z
  _atom_site_occupancy
  Pt  Pt1       1.0  0.53400  0.07650  0.25000  1.0000
  Pt  Pt2       1.0  0.11600  0.14700  0.25000  1.0000
  Pt  Pt3       1.0  0.74400  0.15600  0.25000  1.0000
  Pt  Pt4       1.0  0.41200  0.25600  0.25000  1.0000
  Pt  Pt5       1.0  0.04040  0.27600  0.25000  1.0000
  Pt  Pt6       1.0  0.92300  0.45800  0.25000  1.0000
  Pt  Pt7       1.0  0.54200  0.46600  0.25000  1.0000
  Pt  Pt8       1.0  0.22900  0.56500  0.25000  1.0000
  Pt  Pt9       1.0  0.84400  0.58800  0.25000  1.0000
  Pt  Pt10      1.0  0.43500  0.66300  0.25000  1.0000
  Pt  Pt11      1.0  0.72400  0.76500  0.25000  1.0000
  Pt  Pt12      1.0  0.33700  0.77100  0.25000  1.0000
  Pt  Pt13      1.0  0.03130  0.88400  0.25000  1.0000
  Pt  Pt14      1.0  0.23500  0.96000  0.25000  1.0000
  Pt  Pt15      1.0  0.85300  0.96900  0.25000  1.0000
  Pt  Pt16      1.0  0.14700  0.03130  0.75000  1.0000
  Pt  Pt17      1.0  0.76500  0.04040  0.75000  1.0000
  Pt  Pt18      1.0  0.96900  0.11600  0.75000  1.0000
  Pt  Pt19      1.0  0.66300  0.22900  0.75000  1.0000
  Pt  Pt20      1.0  0.27600  0.23500  0.75000  1.0000
  Pt  Pt21      1.0  0.56500  0.33700  0.75000  1.0000
  Pt  Pt22      1.0  0.15600  0.41200  0.75000  1.0000
  Pt  Pt23      1.0  0.77100  0.43500  0.75000  1.0000
  Pt  Pt24      1.0  0.45800  0.53400  0.75000  1.0000
  Pt  Pt25      1.0  0.07650  0.54200  0.75000  1.0000
  Pt  Pt26      1.0  0.96000  0.72400  0.75000  1.0000
  Pt  Pt27      1.0  0.58800  0.74400  0.75000  1.0000
  Pt  Pt28      1.0  0.25600  0.84400  0.75000  1.0000
  Pt  Pt29      1.0  0.88400  0.85300  0.75000  1.0000
  Pt  Pt30      1.0  0.46600  0.92300  0.75000  1.0000
  Si  Si1       1.0  0.24900  0.11700  0.25000  1.0000
  Si  Si2       1.0  0.88300  0.13200  0.25000  1.0000
  Si  Si3       1.0  0.55100  0.23300  0.25000  1.0000
  Si  Si4       1.0  0.76700  0.31800  0.25000  1.0000
  Si  Si5       1.0  0.06060  0.43400  0.25000  1.0000
  Si  Si6       1.0  0.68200  0.44900  0.25000  1.0000
  Si  Si7       1.0  0.56600  0.62700  0.25000  1.0000
  Si  Si8       1.0  0.86800  0.75100  0.25000  1.0000
  Si  Si9       1.0  0.37300  0.93900  0.25000  1.0000
  Si  Si10      1.0  0.62700  0.06060  0.75000  1.0000
  Si  Si11      1.0  0.13200  0.24900  0.75000  1.0000
  Si  Si12      1.0  0.43400  0.37300  0.75000  1.0000
  Si  Si13      1.0  0.31800  0.55100  0.75000  1.0000
  Si  Si14      1.0  0.93900  0.56600  0.75000  1.0000
  Si  Si15      1.0  0.23300  0.68200  0.75000  1.0000
  Si  Si16      1.0  0.44900  0.76700  0.75000  1.0000
  Si  Si17      1.0  0.11700  0.86800  0.75000  1.0000
  Si  Si18      1.0  0.75100  0.88300  0.75000  1.0000
  Sm  Sm1       1.0  0.29400  0.39100  0.25000  1.0000
  Sm  Sm2       1.0  0.09700  0.70600  0.25000  1.0000
  Sm  Sm3       1.0  0.60900  0.90300  0.25000  1.0000
  Sm  Sm4       1.0  0.39100  0.09700  0.75000  1.0000
  Sm  Sm5       1.0  0.90300  0.29400  0.75000  1.0000
  Sm  Sm6       1.0  0.70600  0.60900  0.75000  1.0000
