data_image0
_chemical_formula_structural       K8Mg8O32P8
_chemical_formula_sum              "K8 Mg8 O32 P8"
_cell_length_a       8.45377
_cell_length_b       5.05286
_cell_length_c       18.9243
_cell_angle_alpha    90
_cell_angle_beta     91.7607
_cell_angle_gamma    90

_space_group_name_H-M_alt    "P 1"
_space_group_IT_number       1

loop_
  _space_group_symop_operation_xyz
  'x, y, z'

loop_
  _atom_site_type_symbol
  _atom_site_label
  _atom_site_symmetry_multiplicity
  _atom_site_fract_x
  _atom_site_fract_y
  _atom_site_fract_z
  _atom_site_occupancy
  K   K1        1.0  0.00356  0.72200  0.09460  1.0000
  K   K2        1.0  0.51900  0.73700  0.15800  1.0000
  K   K3        1.0  0.48100  0.23700  0.34200  1.0000
  K   K4        1.0  0.99600  0.22200  0.40500  1.0000
  K   K5        1.0  0.00356  0.77800  0.59500  1.0000
  K   K6        1.0  0.51900  0.76300  0.65800  1.0000
  K   K7        1.0  0.48100  0.26300  0.84200  1.0000
  K   K8        1.0  0.99600  0.27800  0.90500  1.0000
  Mg  Mg1       1.0  0.32000  0.28000  0.02940  1.0000
  Mg  Mg2       1.0  0.84200  0.27500  0.23200  1.0000
  Mg  Mg3       1.0  0.15800  0.77500  0.26800  1.0000
  Mg  Mg4       1.0  0.68000  0.78000  0.47100  1.0000
  Mg  Mg5       1.0  0.32000  0.22000  0.52900  1.0000
  Mg  Mg6       1.0  0.84200  0.22500  0.73200  1.0000
  Mg  Mg7       1.0  0.15800  0.72500  0.76800  1.0000
  Mg  Mg8       1.0  0.68000  0.72000  0.97100  1.0000
  O   O1        1.0  0.78500  0.39400  0.00118  1.0000
  O   O2        1.0  0.71900  0.94200  0.05260  1.0000
  O   O3        1.0  0.53100  0.32800  0.06610  1.0000
  O   O4        1.0  0.20600  0.14900  0.10900  1.0000
  O   O5        1.0  0.79100  0.32600  0.13300  1.0000
  O   O6        1.0  0.22900  0.50300  0.20200  1.0000
  O   O7        1.0  0.04990  0.09320  0.21900  1.0000
  O   O8        1.0  0.33500  0.03780  0.23000  1.0000
  O   O9        1.0  0.66500  0.53800  0.27000  1.0000
  O   O10       1.0  0.95000  0.59300  0.28100  1.0000
  O   O11       1.0  0.77100  0.00302  0.29800  1.0000
  O   O12       1.0  0.20900  0.82600  0.36700  1.0000
  O   O13       1.0  0.79400  0.64900  0.39100  1.0000
  O   O14       1.0  0.46900  0.82800  0.43400  1.0000
  O   O15       1.0  0.28100  0.44200  0.44700  1.0000
  O   O16       1.0  0.21500  0.89400  0.49900  1.0000
  O   O17       1.0  0.78500  0.10600  0.50100  1.0000
  O   O18       1.0  0.71900  0.55800  0.55300  1.0000
  O   O19       1.0  0.53100  0.17200  0.56600  1.0000
  O   O20       1.0  0.20600  0.35100  0.60900  1.0000
  O   O21       1.0  0.79100  0.17400  0.63300  1.0000
  O   O22       1.0  0.22900  0.99700  0.70200  1.0000
  O   O23       1.0  0.04990  0.40700  0.71900  1.0000
  O   O24       1.0  0.33500  0.46200  0.73000  1.0000
  O   O25       1.0  0.66500  0.96200  0.77000  1.0000
  O   O26       1.0  0.95000  0.90700  0.78100  1.0000
  O   O27       1.0  0.77100  0.49700  0.79800  1.0000
  O   O28       1.0  0.20900  0.67400  0.86700  1.0000
  O   O29       1.0  0.79400  0.85100  0.89100  1.0000
  O   O30       1.0  0.46900  0.67200  0.93400  1.0000
  O   O31       1.0  0.28100  0.05750  0.94700  1.0000
  O   O32       1.0  0.21500  0.60600  0.99900  1.0000
  P   P1        1.0  0.70700  0.24600  0.06310  1.0000
  P   P2        1.0  0.20900  0.20400  0.18900  1.0000
  P   P3        1.0  0.79100  0.70400  0.31100  1.0000
  P   P4        1.0  0.29300  0.74600  0.43700  1.0000
  P   P5        1.0  0.70700  0.25400  0.56300  1.0000
  P   P6        1.0  0.20900  0.29600  0.68900  1.0000
  P   P7        1.0  0.79100  0.79600  0.81100  1.0000
  P   P8        1.0  0.29300  0.75400  0.93700  1.0000
