data_image0
_chemical_formula_structural       Cd4O4Sn4Te4
_chemical_formula_sum              "Cd4 O4 Sn4 Te4"
_cell_length_a       6.49559
_cell_length_b       4.12222
_cell_length_c       14.7101
_cell_angle_alpha    90
_cell_angle_beta     90
_cell_angle_gamma    90

_space_group_name_H-M_alt    "P 1"
_space_group_IT_number       1

loop_
  _space_group_symop_operation_xyz
  'x, y, z'

loop_
  _atom_site_type_symbol
  _atom_site_label
  _atom_site_symmetry_multiplicity
  _atom_site_fract_x
  _atom_site_fract_y
  _atom_site_fract_z
  _atom_site_occupancy
  Cd  Cd1       1.0  0.60900  0.25000  0.20300  1.0000
  Cd  Cd2       1.0  0.10900  0.25000  0.29700  1.0000
  Cd  Cd3       1.0  0.89100  0.75000  0.70300  1.0000
  Cd  Cd4       1.0  0.39100  0.75000  0.79700  1.0000
  O   O1        1.0  0.27300  0.25000  0.16700  1.0000
  O   O2        1.0  0.77300  0.25000  0.33300  1.0000
  O   O3        1.0  0.22700  0.75000  0.66700  1.0000
  O   O4        1.0  0.72700  0.75000  0.83300  1.0000
  Sn  Sn1       1.0  0.25100  0.75000  0.08890  1.0000
  Sn  Sn2       1.0  0.75100  0.75000  0.41100  1.0000
  Sn  Sn3       1.0  0.24900  0.25000  0.58900  1.0000
  Sn  Sn4       1.0  0.74900  0.25000  0.91100  1.0000
  Te  Te1       1.0  0.77200  0.75000  0.09120  1.0000
  Te  Te2       1.0  0.27200  0.75000  0.40900  1.0000
  Te  Te3       1.0  0.72800  0.25000  0.59100  1.0000
  Te  Te4       1.0  0.22800  0.25000  0.90900  1.0000
