data_image0
_chemical_formula_structural       H16N6O20S6Sm2
_chemical_formula_sum              "H16 N6 O20 S6 Sm2"
_cell_length_a       6.57359
_cell_length_b       9.13296
_cell_length_c       9.1105
_cell_angle_alpha    68.3039
_cell_angle_beta     75.6108
_cell_angle_gamma    83.5627

_space_group_name_H-M_alt    "P 1"
_space_group_IT_number       1

loop_
  _space_group_symop_operation_xyz
  'x, y, z'

loop_
  _atom_site_type_symbol
  _atom_site_label
  _atom_site_symmetry_multiplicity
  _atom_site_fract_x
  _atom_site_fract_y
  _atom_site_fract_z
  _atom_site_occupancy
  H   H1        1.0  0.56700  0.30300  0.18200  1.0000
  H   H2        1.0  0.37400  0.53400  0.26300  1.0000
  H   H3        1.0  0.41100  0.68200  0.32600  1.0000
  H   H4        1.0  0.32900  0.00673  0.37500  1.0000
  H   H5        1.0  0.53000  0.25600  0.38400  1.0000
  H   H6        1.0  0.02690  0.75600  0.38500  1.0000
  H   H7        1.0  0.17400  0.14400  0.42200  1.0000
  H   H8        1.0  0.81500  0.64700  0.47600  1.0000
  H   H9        1.0  0.18500  0.35300  0.52400  1.0000
  H   H10       1.0  0.82600  0.85600  0.57800  1.0000
  H   H11       1.0  0.97300  0.24400  0.61500  1.0000
  H   H12       1.0  0.47000  0.74400  0.61600  1.0000
  H   H13       1.0  0.67100  0.99300  0.62500  1.0000
  H   H14       1.0  0.58900  0.31800  0.67400  1.0000
  H   H15       1.0  0.62600  0.46600  0.73700  1.0000
  H   H16       1.0  0.43300  0.69700  0.81800  1.0000
  N   N1        1.0  0.32200  0.64400  0.26900  1.0000
  N   N2        1.0  0.55400  0.34700  0.27300  1.0000
  N   N3        1.0  0.87000  0.75900  0.44000  1.0000
  N   N4        1.0  0.13000  0.24100  0.56000  1.0000
  N   N5        1.0  0.44600  0.65300  0.72700  1.0000
  N   N6        1.0  0.67800  0.35600  0.73100  1.0000
  O   O1        1.0  0.50400  0.18800  0.02990  1.0000
  O   O2        1.0  0.15500  0.70500  0.04180  1.0000
  O   O3        1.0  0.77600  0.56100  0.08410  1.0000
  O   O4        1.0  0.21300  0.91300  0.13700  1.0000
  O   O5        1.0  0.76500  0.83900  0.16600  1.0000
  O   O6        1.0  0.95600  0.33600  0.24700  1.0000
  O   O7        1.0  0.81400  0.03800  0.27100  1.0000
  O   O8        1.0  0.22000  0.08840  0.34300  1.0000
  O   O9        1.0  0.72800  0.49900  0.38000  1.0000
  O   O10       1.0  0.51700  0.86100  0.40300  1.0000
  O   O11       1.0  0.48300  0.13900  0.59700  1.0000
  O   O12       1.0  0.27200  0.50100  0.62000  1.0000
  O   O13       1.0  0.78000  0.91200  0.65700  1.0000
  O   O14       1.0  0.18600  0.96200  0.72900  1.0000
  O   O15       1.0  0.04420  0.66400  0.75300  1.0000
  O   O16       1.0  0.23500  0.16100  0.83400  1.0000
  O   O17       1.0  0.78700  0.08720  0.86300  1.0000
  O   O18       1.0  0.22400  0.43900  0.91600  1.0000
  O   O19       1.0  0.84500  0.29500  0.95800  1.0000
  O   O20       1.0  0.49600  0.81200  0.97000  1.0000
  S   S1        1.0  0.30000  0.77400  0.09580  1.0000
  S   S2        1.0  0.76800  0.44200  0.24700  1.0000
  S   S3        1.0  0.73600  0.88100  0.31000  1.0000
  S   S4        1.0  0.26400  0.11900  0.69000  1.0000
  S   S5        1.0  0.23200  0.55800  0.75300  1.0000
  S   S6        1.0  0.70000  0.22600  0.90400  1.0000
  Sm  Sm1       1.0  0.13000  0.18500  0.09140  1.0000
  Sm  Sm2       1.0  0.87000  0.81500  0.90900  1.0000
