data_image0
_chemical_formula_structural       Cl20N16S16Sb4
_chemical_formula_sum              "Cl20 N16 S16 Sb4"
_cell_length_a       7.01904
_cell_length_b       12.5332
_cell_length_c       15.336
_cell_angle_alpha    90
_cell_angle_beta     106.949
_cell_angle_gamma    90

_space_group_name_H-M_alt    "P 1"
_space_group_IT_number       1

loop_
  _space_group_symop_operation_xyz
  'x, y, z'

loop_
  _atom_site_type_symbol
  _atom_site_label
  _atom_site_symmetry_multiplicity
  _atom_site_fract_x
  _atom_site_fract_y
  _atom_site_fract_z
  _atom_site_occupancy
  Cl  Cl1       1.0  0.04900  0.38400  0.03310  1.0000
  Cl  Cl2       1.0  0.84300  0.13700  0.03570  1.0000
  Cl  Cl3       1.0  0.74000  0.83500  0.03710  1.0000
  Cl  Cl4       1.0  0.50000  0.28400  0.16200  1.0000
  Cl  Cl5       1.0  0.08920  0.25500  0.23700  1.0000
  Cl  Cl6       1.0  0.91100  0.75500  0.26300  1.0000
  Cl  Cl7       1.0  0.50000  0.78400  0.33800  1.0000
  Cl  Cl8       1.0  0.26000  0.33500  0.46300  1.0000
  Cl  Cl9       1.0  0.15700  0.63700  0.46400  1.0000
  Cl  Cl10      1.0  0.95100  0.88400  0.46700  1.0000
  Cl  Cl11      1.0  0.04900  0.11600  0.53300  1.0000
  Cl  Cl12      1.0  0.84300  0.36300  0.53600  1.0000
  Cl  Cl13      1.0  0.74000  0.66500  0.53700  1.0000
  Cl  Cl14      1.0  0.50000  0.21600  0.66200  1.0000
  Cl  Cl15      1.0  0.08920  0.24500  0.73700  1.0000
  Cl  Cl16      1.0  0.91100  0.74500  0.76300  1.0000
  Cl  Cl17      1.0  0.50000  0.71600  0.83800  1.0000
  Cl  Cl18      1.0  0.26000  0.16500  0.96300  1.0000
  Cl  Cl19      1.0  0.15700  0.86300  0.96400  1.0000
  Cl  Cl20      1.0  0.95100  0.61600  0.96700  1.0000
  N   N1        1.0  0.44500  0.62100  0.13900  1.0000
  N   N2        1.0  0.27200  0.05590  0.15200  1.0000
  N   N3        1.0  0.78800  0.50300  0.18800  1.0000
  N   N4        1.0  0.66600  0.02910  0.22200  1.0000
  N   N5        1.0  0.33400  0.52900  0.27800  1.0000
  N   N6        1.0  0.21200  0.00332  0.31200  1.0000
  N   N7        1.0  0.72800  0.55600  0.34800  1.0000
  N   N8        1.0  0.55500  0.12100  0.36100  1.0000
  N   N9        1.0  0.44500  0.87900  0.63900  1.0000
  N   N10       1.0  0.27200  0.44400  0.65200  1.0000
  N   N11       1.0  0.78800  0.99700  0.68800  1.0000
  N   N12       1.0  0.66600  0.47100  0.72200  1.0000
  N   N13       1.0  0.33400  0.97100  0.77800  1.0000
  N   N14       1.0  0.21200  0.49700  0.81200  1.0000
  N   N15       1.0  0.72800  0.94400  0.84800  1.0000
  N   N16       1.0  0.55500  0.37900  0.86100  1.0000
  S   S1        1.0  0.63100  0.57000  0.11500  1.0000
  S   S2        1.0  0.47700  0.99900  0.13900  1.0000
  S   S3        1.0  0.27700  0.59000  0.18500  1.0000
  S   S4        1.0  0.14500  0.98100  0.20500  1.0000
  S   S5        1.0  0.85500  0.48100  0.29500  1.0000
  S   S6        1.0  0.72300  0.08980  0.31500  1.0000
  S   S7        1.0  0.52300  0.49900  0.36100  1.0000
  S   S8        1.0  0.36900  0.06960  0.38500  1.0000
  S   S9        1.0  0.63100  0.93000  0.61500  1.0000
  S   S10       1.0  0.47700  0.50100  0.63900  1.0000
  S   S11       1.0  0.27700  0.91000  0.68500  1.0000
  S   S12       1.0  0.14500  0.51900  0.70500  1.0000
  S   S13       1.0  0.85500  0.01940  0.79500  1.0000
  S   S14       1.0  0.72300  0.41000  0.81500  1.0000
  S   S15       1.0  0.52300  0.00061  0.86100  1.0000
  S   S16       1.0  0.36900  0.43000  0.88500  1.0000
  Sb  Sb1       1.0  0.16800  0.21400  0.09700  1.0000
  Sb  Sb2       1.0  0.83200  0.71400  0.40300  1.0000
  Sb  Sb3       1.0  0.16800  0.28600  0.59700  1.0000
  Sb  Sb4       1.0  0.83200  0.78600  0.90300  1.0000
