data_image0
_chemical_formula_structural       Cl16N16S8Se16
_chemical_formula_sum              "Cl16 N16 S8 Se16"
_cell_length_a       7.70594
_cell_length_b       20.1023
_cell_length_c       8.25254
_cell_angle_alpha    90
_cell_angle_beta     90
_cell_angle_gamma    90

_space_group_name_H-M_alt    "P 1"
_space_group_IT_number       1

loop_
  _space_group_symop_operation_xyz
  'x, y, z'

loop_
  _atom_site_type_symbol
  _atom_site_label
  _atom_site_symmetry_multiplicity
  _atom_site_fract_x
  _atom_site_fract_y
  _atom_site_fract_z
  _atom_site_occupancy
  Cl  Cl1       1.0  0.33200  0.03580  0.07570  1.0000
  Cl  Cl2       1.0  0.16800  0.53600  0.07570  1.0000
  Cl  Cl3       1.0  0.76100  0.16300  0.13300  1.0000
  Cl  Cl4       1.0  0.73900  0.66300  0.13300  1.0000
  Cl  Cl5       1.0  0.26100  0.16300  0.36700  1.0000
  Cl  Cl6       1.0  0.23900  0.66300  0.36700  1.0000
  Cl  Cl7       1.0  0.83200  0.03580  0.42400  1.0000
  Cl  Cl8       1.0  0.66800  0.53600  0.42400  1.0000
  Cl  Cl9       1.0  0.33200  0.46400  0.57600  1.0000
  Cl  Cl10      1.0  0.16800  0.96400  0.57600  1.0000
  Cl  Cl11      1.0  0.76100  0.33700  0.63300  1.0000
  Cl  Cl12      1.0  0.73900  0.83700  0.63300  1.0000
  Cl  Cl13      1.0  0.26100  0.33700  0.86700  1.0000
  Cl  Cl14      1.0  0.23900  0.83700  0.86700  1.0000
  Cl  Cl15      1.0  0.83200  0.46400  0.92400  1.0000
  Cl  Cl16      1.0  0.66800  0.96400  0.92400  1.0000
  N   N1        1.0  0.50800  0.42600  0.11600  1.0000
  N   N2        1.0  0.99200  0.92600  0.11600  1.0000
  N   N3        1.0  0.65400  0.31400  0.21300  1.0000
  N   N4        1.0  0.84600  0.81400  0.21300  1.0000
  N   N5        1.0  0.15400  0.31400  0.28700  1.0000
  N   N6        1.0  0.34600  0.81400  0.28700  1.0000
  N   N7        1.0  0.00832  0.42600  0.38400  1.0000
  N   N8        1.0  0.49200  0.92600  0.38400  1.0000
  N   N9        1.0  0.50800  0.07380  0.61600  1.0000
  N   N10       1.0  0.99200  0.57400  0.61600  1.0000
  N   N11       1.0  0.65400  0.18600  0.71300  1.0000
  N   N12       1.0  0.84600  0.68600  0.71300  1.0000
  N   N13       1.0  0.15400  0.18600  0.78700  1.0000
  N   N14       1.0  0.34600  0.68600  0.78700  1.0000
  N   N15       1.0  0.00832  0.07380  0.88400  1.0000
  N   N16       1.0  0.49200  0.57400  0.88400  1.0000
  S   S1        1.0  0.06270  0.38000  0.23700  1.0000
  S   S2        1.0  0.43700  0.88000  0.23700  1.0000
  S   S3        1.0  0.56300  0.38000  0.26300  1.0000
  S   S4        1.0  0.93700  0.88000  0.26300  1.0000
  S   S5        1.0  0.06270  0.12000  0.73700  1.0000
  S   S6        1.0  0.43700  0.62000  0.73700  1.0000
  S   S7        1.0  0.56300  0.12000  0.76300  1.0000
  S   S8        1.0  0.93700  0.62000  0.76300  1.0000
  Se  Se1       1.0  0.69500  0.29300  0.00303  1.0000
  Se  Se2       1.0  0.80500  0.79300  0.00303  1.0000
  Se  Se3       1.0  0.07890  0.09770  0.08610  1.0000
  Se  Se4       1.0  0.42100  0.59800  0.08610  1.0000
  Se  Se5       1.0  0.57900  0.09770  0.41400  1.0000
  Se  Se6       1.0  0.92100  0.59800  0.41400  1.0000
  Se  Se7       1.0  0.19500  0.29300  0.49700  1.0000
  Se  Se8       1.0  0.30500  0.79300  0.49700  1.0000
  Se  Se9       1.0  0.69500  0.20700  0.50300  1.0000
  Se  Se10      1.0  0.80500  0.70700  0.50300  1.0000
  Se  Se11      1.0  0.07890  0.40200  0.58600  1.0000
  Se  Se12      1.0  0.42100  0.90200  0.58600  1.0000
  Se  Se13      1.0  0.57900  0.40200  0.91400  1.0000
  Se  Se14      1.0  0.92100  0.90200  0.91400  1.0000
  Se  Se15      1.0  0.19500  0.20700  0.99700  1.0000
  Se  Se16      1.0  0.30500  0.70700  0.99700  1.0000
