data_image0
_chemical_formula_structural       C8Cl4Co4Na12O24
_chemical_formula_sum              "C8 Cl4 Co4 Na12 O24"
_cell_length_a       9.84055
_cell_length_b       9.84055
_cell_length_c       9.84055
_cell_angle_alpha    120
_cell_angle_beta     90
_cell_angle_gamma    120

_space_group_name_H-M_alt    "P 1"
_space_group_IT_number       1

loop_
  _space_group_symop_operation_xyz
  'x, y, z'

loop_
  _atom_site_type_symbol
  _atom_site_label
  _atom_site_symmetry_multiplicity
  _atom_site_fract_x
  _atom_site_fract_y
  _atom_site_fract_z
  _atom_site_occupancy
  C   C1        1.0  0.21800  0.93600  0.15400  1.0000
  C   C2        1.0  0.78200  0.06400  0.21800  1.0000
  C   C3        1.0  0.15400  0.43600  0.21800  1.0000
  C   C4        1.0  0.78200  0.43600  0.21800  1.0000
  C   C5        1.0  0.21800  0.93600  0.78200  1.0000
  C   C6        1.0  0.21800  0.56400  0.78200  1.0000
  C   C7        1.0  0.84600  0.56400  0.78200  1.0000
  C   C8        1.0  0.78200  0.06400  0.84600  1.0000
  Cl  Cl1       1.0  0.50000  0.50000  0.00000  1.0000
  Cl  Cl2       1.0  0.00000  0.00000  0.50000  1.0000
  Cl  Cl3       1.0  0.50000  0.50000  0.50000  1.0000
  Cl  Cl4       1.0  0.50000  0.00000  0.50000  1.0000
  Co  Co1       1.0  0.00000  0.00000  0.00000  1.0000
  Co  Co2       1.0  0.50000  0.00000  0.00000  1.0000
  Co  Co3       1.0  0.00000  0.50000  0.00000  1.0000
  Co  Co4       1.0  0.00000  0.50000  0.50000  1.0000
  Na  Na1       1.0  0.40300  0.30700  0.15300  1.0000
  Na  Na2       1.0  0.40300  0.75000  0.15300  1.0000
  Na  Na3       1.0  0.84700  0.75000  0.15300  1.0000
  Na  Na4       1.0  0.15300  0.80700  0.40300  1.0000
  Na  Na5       1.0  0.15300  0.25000  0.40300  1.0000
  Na  Na6       1.0  0.59700  0.25000  0.40300  1.0000
  Na  Na7       1.0  0.84700  0.19300  0.59700  1.0000
  Na  Na8       1.0  0.40300  0.75000  0.59700  1.0000
  Na  Na9       1.0  0.84700  0.75000  0.59700  1.0000
  Na  Na10      1.0  0.15300  0.25000  0.84700  1.0000
  Na  Na11      1.0  0.59700  0.25000  0.84700  1.0000
  Na  Na12      1.0  0.59700  0.69300  0.84700  1.0000
  O   O1        1.0  0.63700  0.29400  0.10500  1.0000
  O   O2        1.0  0.15700  0.46700  0.10500  1.0000
  O   O3        1.0  0.81000  0.94800  0.10500  1.0000
  O   O4        1.0  0.19000  0.79400  0.15700  1.0000
  O   O5        1.0  0.10500  0.96700  0.15700  1.0000
  O   O6        1.0  0.36300  0.05240  0.15700  1.0000
  O   O7        1.0  0.63700  0.03260  0.19000  1.0000
  O   O8        1.0  0.15700  0.29400  0.19000  1.0000
  O   O9        1.0  0.89500  0.55200  0.19000  1.0000
  O   O10       1.0  0.81000  0.46700  0.36300  1.0000
  O   O11       1.0  0.15700  0.55200  0.36300  1.0000
  O   O12       1.0  0.89500  0.20600  0.36300  1.0000
  O   O13       1.0  0.10500  0.79400  0.63700  1.0000
  O   O14       1.0  0.84300  0.44800  0.63700  1.0000
  O   O15       1.0  0.19000  0.53300  0.63700  1.0000
  O   O16       1.0  0.10500  0.44800  0.81000  1.0000
  O   O17       1.0  0.84300  0.70600  0.81000  1.0000
  O   O18       1.0  0.36300  0.96700  0.81000  1.0000
  O   O19       1.0  0.89500  0.03260  0.84300  1.0000
  O   O20       1.0  0.81000  0.20600  0.84300  1.0000
  O   O21       1.0  0.63700  0.94800  0.84300  1.0000
  O   O22       1.0  0.19000  0.05240  0.89500  1.0000
  O   O23       1.0  0.84300  0.53300  0.89500  1.0000
  O   O24       1.0  0.36300  0.70600  0.89500  1.0000
