data_image0
_chemical_formula_structural       Ca2O20S12Sb20
_chemical_formula_sum              "Ca2 O20 S12 Sb20"
_cell_length_a       5.65147
_cell_length_b       12.997
_cell_length_c       15.9961
_cell_angle_alpha    105.083
_cell_angle_beta     100.175
_cell_angle_gamma    102.557

_space_group_name_H-M_alt    "P 1"
_space_group_IT_number       1

loop_
  _space_group_symop_operation_xyz
  'x, y, z'

loop_
  _atom_site_type_symbol
  _atom_site_label
  _atom_site_symmetry_multiplicity
  _atom_site_fract_x
  _atom_site_fract_y
  _atom_site_fract_z
  _atom_site_occupancy
  Ca  Ca1       1.0  0.80100  0.25000  0.25000  1.0000
  Ca  Ca2       1.0  0.19900  0.75000  0.75000  1.0000
  O   O1        1.0  0.71600  0.06720  0.01710  1.0000
  O   O2        1.0  0.96000  0.29300  0.12800  1.0000
  O   O3        1.0  0.47400  0.07650  0.16500  1.0000
  O   O4        1.0  0.46000  0.29700  0.17100  1.0000
  O   O5        1.0  0.02220  0.11300  0.17800  1.0000
  O   O6        1.0  0.23100  0.38700  0.32200  1.0000
  O   O7        1.0  0.49200  0.20300  0.32900  1.0000
  O   O8        1.0  0.73300  0.42300  0.33500  1.0000
  O   O9        1.0  0.03880  0.20700  0.37200  1.0000
  O   O10       1.0  0.13200  0.43300  0.48300  1.0000
  O   O11       1.0  0.86800  0.56700  0.51700  1.0000
  O   O12       1.0  0.96100  0.79300  0.62800  1.0000
  O   O13       1.0  0.26700  0.57700  0.66500  1.0000
  O   O14       1.0  0.50800  0.79700  0.67100  1.0000
  O   O15       1.0  0.76900  0.61300  0.67800  1.0000
  O   O16       1.0  0.97800  0.88700  0.82200  1.0000
  O   O17       1.0  0.54000  0.70300  0.82900  1.0000
  O   O18       1.0  0.52600  0.92300  0.83500  1.0000
  O   O19       1.0  0.04010  0.70700  0.87200  1.0000
  O   O20       1.0  0.28400  0.93300  0.98300  1.0000
  S   S1        1.0  0.25400  0.43800  0.02570  1.0000
  S   S2        1.0  0.21200  0.79300  0.14400  1.0000
  S   S3        1.0  0.93300  0.53400  0.19000  1.0000
  S   S4        1.0  0.70900  0.96600  0.31000  1.0000
  S   S5        1.0  0.77500  0.70700  0.35600  1.0000
  S   S6        1.0  0.29000  0.06210  0.47400  1.0000
  S   S7        1.0  0.71000  0.93800  0.52600  1.0000
  S   S8        1.0  0.22500  0.29300  0.64400  1.0000
  S   S9        1.0  0.29100  0.03400  0.69000  1.0000
  S   S10       1.0  0.06670  0.46600  0.81000  1.0000
  S   S11       1.0  0.78800  0.20700  0.85600  1.0000
  S   S12       1.0  0.74600  0.56200  0.97400  1.0000
  Sb  Sb1       1.0  0.82000  0.37600  0.04600  1.0000
  Sb  Sb2       1.0  0.59000  0.96300  0.08580  1.0000
  Sb  Sb3       1.0  0.14200  0.18100  0.08630  1.0000
  Sb  Sb4       1.0  0.80200  0.68100  0.13600  1.0000
  Sb  Sb5       1.0  0.45700  0.44700  0.24500  1.0000
  Sb  Sb6       1.0  0.26400  0.05320  0.25500  1.0000
  Sb  Sb7       1.0  0.48500  0.81900  0.36400  1.0000
  Sb  Sb8       1.0  0.37500  0.31900  0.41400  1.0000
  Sb  Sb9       1.0  0.04120  0.53700  0.41400  1.0000
  Sb  Sb10      1.0  0.89800  0.12400  0.45400  1.0000
  Sb  Sb11      1.0  0.10200  0.87600  0.54600  1.0000
  Sb  Sb12      1.0  0.95900  0.46300  0.58600  1.0000
  Sb  Sb13      1.0  0.62500  0.68100  0.58600  1.0000
  Sb  Sb14      1.0  0.51500  0.18100  0.63600  1.0000
  Sb  Sb15      1.0  0.73600  0.94700  0.74500  1.0000
  Sb  Sb16      1.0  0.54300  0.55300  0.75500  1.0000
  Sb  Sb17      1.0  0.19800  0.31900  0.86400  1.0000
  Sb  Sb18      1.0  0.85800  0.81900  0.91400  1.0000
  Sb  Sb19      1.0  0.41000  0.03670  0.91400  1.0000
  Sb  Sb20      1.0  0.18000  0.62400  0.95400  1.0000
