data_image0
_chemical_formula_structural       Br12Ca2H24O12Zn4
_chemical_formula_sum              "Br12 Ca2 H24 O12 Zn4"
_cell_length_a       8.39835
_cell_length_b       8.39835
_cell_length_c       13.4132
_cell_angle_alpha    107.065
_cell_angle_beta     72.9351
_cell_angle_gamma    102.333

_space_group_name_H-M_alt    "P 1"
_space_group_IT_number       1

loop_
  _space_group_symop_operation_xyz
  'x, y, z'

loop_
  _atom_site_type_symbol
  _atom_site_label
  _atom_site_symmetry_multiplicity
  _atom_site_fract_x
  _atom_site_fract_y
  _atom_site_fract_z
  _atom_site_occupancy
  Br  Br1       1.0  0.13300  0.48200  0.10200  1.0000
  Br  Br2       1.0  0.51800  0.86700  0.10200  1.0000
  Br  Br3       1.0  0.05490  0.94500  0.11300  1.0000
  Br  Br4       1.0  0.12400  0.87600  0.35900  1.0000
  Br  Br5       1.0  0.04080  0.33200  0.38600  1.0000
  Br  Br6       1.0  0.66800  0.95900  0.38600  1.0000
  Br  Br7       1.0  0.33200  0.04080  0.61400  1.0000
  Br  Br8       1.0  0.95900  0.66800  0.61400  1.0000
  Br  Br9       1.0  0.87600  0.12400  0.64100  1.0000
  Br  Br10      1.0  0.94500  0.05490  0.88700  1.0000
  Br  Br11      1.0  0.48200  0.13300  0.89800  1.0000
  Br  Br12      1.0  0.86700  0.51800  0.89800  1.0000
  Ca  Ca1       1.0  0.56900  0.43100  0.27900  1.0000
  Ca  Ca2       1.0  0.43100  0.56900  0.72100  1.0000
  H   H1        1.0  0.43600  0.22500  0.08830  1.0000
  H   H2        1.0  0.77500  0.56400  0.08830  1.0000
  H   H3        1.0  0.73000  0.11900  0.14600  1.0000
  H   H4        1.0  0.88100  0.27000  0.14600  1.0000
  H   H5        1.0  0.31300  0.35400  0.15200  1.0000
  H   H6        1.0  0.64600  0.68700  0.15200  1.0000
  H   H7        1.0  0.49300  0.14000  0.38200  1.0000
  H   H8        1.0  0.86000  0.50700  0.38200  1.0000
  H   H9        1.0  0.31900  0.19000  0.38900  1.0000
  H   H10       1.0  0.81000  0.68100  0.38900  1.0000
  H   H11       1.0  0.25800  0.59200  0.40600  1.0000
  H   H12       1.0  0.40800  0.74200  0.40600  1.0000
  H   H13       1.0  0.59200  0.25800  0.59400  1.0000
  H   H14       1.0  0.74200  0.40800  0.59400  1.0000
  H   H15       1.0  0.19000  0.31900  0.61100  1.0000
  H   H16       1.0  0.68100  0.81000  0.61100  1.0000
  H   H17       1.0  0.14000  0.49300  0.61800  1.0000
  H   H18       1.0  0.50700  0.86000  0.61800  1.0000
  H   H19       1.0  0.35400  0.31300  0.84800  1.0000
  H   H20       1.0  0.68700  0.64600  0.84800  1.0000
  H   H21       1.0  0.11900  0.73000  0.85400  1.0000
  H   H22       1.0  0.27000  0.88100  0.85400  1.0000
  H   H23       1.0  0.22500  0.43600  0.91200  1.0000
  H   H24       1.0  0.56400  0.77500  0.91200  1.0000
  O   O1        1.0  0.39700  0.29700  0.16000  1.0000
  O   O2        1.0  0.70300  0.60300  0.16000  1.0000
  O   O3        1.0  0.76100  0.23900  0.17700  1.0000
  O   O4        1.0  0.37900  0.62100  0.37700  1.0000
  O   O5        1.0  0.43900  0.23200  0.37900  1.0000
  O   O6        1.0  0.76800  0.56100  0.37900  1.0000
  O   O7        1.0  0.23200  0.43900  0.62100  1.0000
  O   O8        1.0  0.56100  0.76800  0.62100  1.0000
  O   O9        1.0  0.62100  0.37900  0.62300  1.0000
  O   O10       1.0  0.23900  0.76100  0.82300  1.0000
  O   O11       1.0  0.29700  0.39700  0.84000  1.0000
  O   O12       1.0  0.60300  0.70300  0.84000  1.0000
  Zn  Zn1       1.0  0.22200  0.77800  0.16000  1.0000
  Zn  Zn2       1.0  0.95700  0.04310  0.31000  1.0000
  Zn  Zn3       1.0  0.04310  0.95700  0.69000  1.0000
  Zn  Zn4       1.0  0.77800  0.22200  0.84000  1.0000
