data_image0
_chemical_formula_structural       Co14Na8O28
_chemical_formula_sum              "Co14 Na8 O28"
_cell_length_a       7.43441
_cell_length_b       7.42154
_cell_length_c       10.8714
_cell_angle_alpha    90
_cell_angle_beta     90
_cell_angle_gamma    119.988

_space_group_name_H-M_alt    "P 1"
_space_group_IT_number       1

loop_
  _space_group_symop_operation_xyz
  'x, y, z'

loop_
  _atom_site_type_symbol
  _atom_site_label
  _atom_site_symmetry_multiplicity
  _atom_site_fract_x
  _atom_site_fract_y
  _atom_site_fract_z
  _atom_site_occupancy
  Co  Co1       1.0  0.00000  0.00000  0.00000  1.0000
  Co  Co2       1.0  0.42800  0.14400  0.00082  1.0000
  Co  Co3       1.0  0.85800  0.28500  0.00094  1.0000
  Co  Co4       1.0  0.71500  0.57100  0.00170  1.0000
  Co  Co5       1.0  0.71500  0.57100  0.49800  1.0000
  Co  Co6       1.0  0.85800  0.28500  0.49900  1.0000
  Co  Co7       1.0  0.42800  0.14400  0.49900  1.0000
  Co  Co8       1.0  0.00000  0.00000  0.50000  1.0000
  Co  Co9       1.0  0.57200  0.85600  0.50100  1.0000
  Co  Co10      1.0  0.14200  0.71500  0.50100  1.0000
  Co  Co11      1.0  0.28500  0.42900  0.50200  1.0000
  Co  Co12      1.0  0.28500  0.42900  0.99800  1.0000
  Co  Co13      1.0  0.14200  0.71500  0.99900  1.0000
  Co  Co14      1.0  0.57200  0.85600  0.99900  1.0000
  Na  Na1       1.0  0.59800  0.05280  0.25000  1.0000
  Na  Na2       1.0  0.45400  0.41000  0.25000  1.0000
  Na  Na3       1.0  0.95100  0.54600  0.25000  1.0000
  Na  Na4       1.0  0.00066  0.99600  0.25000  1.0000
  Na  Na5       1.0  0.99900  0.00392  0.75000  1.0000
  Na  Na6       1.0  0.04940  0.45400  0.75000  1.0000
  Na  Na7       1.0  0.54600  0.59000  0.75000  1.0000
  Na  Na8       1.0  0.40200  0.94700  0.75000  1.0000
  O   O1        1.0  0.09480  0.47700  0.08620  1.0000
  O   O2        1.0  0.52400  0.62400  0.08820  1.0000
  O   O3        1.0  0.38000  0.90400  0.08830  1.0000
  O   O4        1.0  0.95500  0.76200  0.09140  1.0000
  O   O5        1.0  0.24000  0.19100  0.09170  1.0000
  O   O6        1.0  0.80700  0.04450  0.09190  1.0000
  O   O7        1.0  0.66500  0.33100  0.09650  1.0000
  O   O8        1.0  0.66500  0.33100  0.40400  1.0000
  O   O9        1.0  0.80700  0.04450  0.40800  1.0000
  O   O10       1.0  0.24000  0.19100  0.40800  1.0000
  O   O11       1.0  0.95500  0.76200  0.40900  1.0000
  O   O12       1.0  0.38000  0.90400  0.41200  1.0000
  O   O13       1.0  0.52400  0.62400  0.41200  1.0000
  O   O14       1.0  0.09480  0.47700  0.41400  1.0000
  O   O15       1.0  0.90500  0.52300  0.58600  1.0000
  O   O16       1.0  0.47600  0.37600  0.58800  1.0000
  O   O17       1.0  0.62000  0.09560  0.58800  1.0000
  O   O18       1.0  0.04470  0.23800  0.59100  1.0000
  O   O19       1.0  0.76000  0.80900  0.59200  1.0000
  O   O20       1.0  0.19300  0.95600  0.59200  1.0000
  O   O21       1.0  0.33500  0.66900  0.59600  1.0000
  O   O22       1.0  0.33500  0.66900  0.90400  1.0000
  O   O23       1.0  0.19300  0.95600  0.90800  1.0000
  O   O24       1.0  0.76000  0.80900  0.90800  1.0000
  O   O25       1.0  0.04470  0.23800  0.90900  1.0000
  O   O26       1.0  0.62000  0.09560  0.91200  1.0000
  O   O27       1.0  0.47600  0.37600  0.91200  1.0000
  O   O28       1.0  0.90500  0.52300  0.91400  1.0000
