data_image0
_chemical_formula_structural       AlClCuH28O22S2
_chemical_formula_sum              "Al1 Cl1 Cu1 H28 O22 S2"
_cell_length_a       6.17214
_cell_length_b       12.8259
_cell_length_c       6.05699
_cell_angle_alpha    92.5759
_cell_angle_beta     94.5454
_cell_angle_gamma    82.8104

_space_group_name_H-M_alt    "P 1"
_space_group_IT_number       1

loop_
  _space_group_symop_operation_xyz
  'x, y, z'

loop_
  _atom_site_type_symbol
  _atom_site_label
  _atom_site_symmetry_multiplicity
  _atom_site_fract_x
  _atom_site_fract_y
  _atom_site_fract_z
  _atom_site_occupancy
  Al  Al1       1.0  0.50000  0.00000  0.50000  1.0000
  Cl  Cl1       1.0  0.00000  0.50000  0.50000  1.0000
  Cu  Cu1       1.0  0.50000  0.50000  0.00000  1.0000
  H   H1        1.0  0.10800  0.59600  0.00645  1.0000
  H   H2        1.0  0.71900  0.68600  0.04390  1.0000
  H   H3        1.0  0.46400  0.72000  0.08840  1.0000
  H   H4        1.0  0.30700  0.02960  0.11800  1.0000
  H   H5        1.0  0.30900  0.90500  0.16700  1.0000
  H   H6        1.0  0.15200  0.52700  0.22400  1.0000
  H   H7        1.0  0.80400  0.90600  0.27100  1.0000
  H   H8        1.0  0.71400  0.13600  0.35000  1.0000
  H   H9        1.0  0.50500  0.38900  0.35900  1.0000
  H   H10       1.0  0.72400  0.45400  0.36400  1.0000
  H   H11       1.0  0.21900  0.32100  0.37400  1.0000
  H   H12       1.0  0.64100  0.67900  0.38100  1.0000
  H   H13       1.0  0.47700  0.19800  0.41900  1.0000
  H   H14       1.0  0.11500  0.10300  0.46400  1.0000
  H   H15       1.0  0.88500  0.89700  0.53600  1.0000
  H   H16       1.0  0.52300  0.80200  0.58100  1.0000
  H   H17       1.0  0.35900  0.32100  0.61900  1.0000
  H   H18       1.0  0.78100  0.67900  0.62600  1.0000
  H   H19       1.0  0.27600  0.54600  0.63600  1.0000
  H   H20       1.0  0.49500  0.61100  0.64100  1.0000
  H   H21       1.0  0.28600  0.86400  0.65000  1.0000
  H   H22       1.0  0.19600  0.09430  0.72900  1.0000
  H   H23       1.0  0.84800  0.47300  0.77600  1.0000
  H   H24       1.0  0.69100  0.09460  0.83300  1.0000
  H   H25       1.0  0.69300  0.97000  0.88200  1.0000
  H   H26       1.0  0.53600  0.28000  0.91200  1.0000
  H   H27       1.0  0.28100  0.31400  0.95600  1.0000
  H   H28       1.0  0.89200  0.40400  0.99400  1.0000
  O   O1        1.0  0.83500  0.87600  0.02070  1.0000
  O   O2        1.0  0.19800  0.53400  0.07260  1.0000
  O   O3        1.0  0.21500  0.79800  0.08350  1.0000
  O   O4        1.0  0.05680  0.30500  0.09720  1.0000
  O   O5        1.0  0.59700  0.67100  0.13000  1.0000
  O   O6        1.0  0.38100  0.97000  0.20900  1.0000
  O   O7        1.0  0.57800  0.44500  0.29100  1.0000
  O   O8        1.0  0.94300  0.16200  0.29100  1.0000
  O   O9        1.0  0.56600  0.12600  0.39700  1.0000
  O   O10       1.0  0.77700  0.93400  0.42500  1.0000
  O   O11       1.0  0.36600  0.30700  0.45100  1.0000
  O   O12       1.0  0.63400  0.69300  0.54900  1.0000
  O   O13       1.0  0.22300  0.06600  0.57500  1.0000
  O   O14       1.0  0.43400  0.87400  0.60300  1.0000
  O   O15       1.0  0.05750  0.83800  0.70900  1.0000
  O   O16       1.0  0.42200  0.55500  0.70900  1.0000
  O   O17       1.0  0.61900  0.02990  0.79100  1.0000
  O   O18       1.0  0.40300  0.32900  0.87000  1.0000
  O   O19       1.0  0.94300  0.69500  0.90300  1.0000
  O   O20       1.0  0.78500  0.20200  0.91600  1.0000
  O   O21       1.0  0.80200  0.46600  0.92700  1.0000
  O   O22       1.0  0.16500  0.12400  0.97900  1.0000
  S   S1        1.0  0.98500  0.19800  0.06970  1.0000
  S   S2        1.0  0.01460  0.80200  0.93000  1.0000
