data_image0
_chemical_formula_structural       B12Ca4H12O28
_chemical_formula_sum              "B12 Ca4 H12 O28"
_cell_length_a       8.24133
_cell_length_b       8.07799
_cell_length_c       7.17379
_cell_angle_alpha    90
_cell_angle_beta     98.7944
_cell_angle_gamma    90

_space_group_name_H-M_alt    "P 1"
_space_group_IT_number       1

loop_
  _space_group_symop_operation_xyz
  'x, y, z'

loop_
  _atom_site_type_symbol
  _atom_site_label
  _atom_site_symmetry_multiplicity
  _atom_site_fract_x
  _atom_site_fract_y
  _atom_site_fract_z
  _atom_site_occupancy
  B   B1        1.0  0.89000  0.85100  0.22100  1.0000
  B   B2        1.0  0.39000  0.64900  0.22100  1.0000
  B   B3        1.0  0.66600  0.03760  0.30800  1.0000
  B   B4        1.0  0.16600  0.46200  0.30800  1.0000
  B   B5        1.0  0.71300  0.30800  0.48100  1.0000
  B   B6        1.0  0.21300  0.19200  0.48100  1.0000
  B   B7        1.0  0.78700  0.80800  0.51900  1.0000
  B   B8        1.0  0.28700  0.69200  0.51900  1.0000
  B   B9        1.0  0.83400  0.53800  0.69200  1.0000
  B   B10       1.0  0.33400  0.96200  0.69200  1.0000
  B   B11       1.0  0.61000  0.35100  0.77900  1.0000
  B   B12       1.0  0.11000  0.14900  0.77900  1.0000
  Ca  Ca1       1.0  0.88600  0.20700  0.07120  1.0000
  Ca  Ca2       1.0  0.38600  0.29300  0.07120  1.0000
  Ca  Ca3       1.0  0.61400  0.70700  0.92900  1.0000
  Ca  Ca4       1.0  0.11400  0.79300  0.92900  1.0000
  H   H1        1.0  0.42500  0.89100  0.13800  1.0000
  H   H2        1.0  0.92500  0.60900  0.13800  1.0000
  H   H3        1.0  0.62300  0.54500  0.31800  1.0000
  H   H4        1.0  0.12300  0.95500  0.31800  1.0000
  H   H5        1.0  0.92600  0.45400  0.35400  1.0000
  H   H6        1.0  0.42600  0.04580  0.35400  1.0000
  H   H7        1.0  0.57400  0.95400  0.64600  1.0000
  H   H8        1.0  0.07370  0.54600  0.64600  1.0000
  H   H9        1.0  0.87700  0.04540  0.68200  1.0000
  H   H10       1.0  0.37700  0.45500  0.68200  1.0000
  H   H11       1.0  0.07520  0.39100  0.86200  1.0000
  H   H12       1.0  0.57500  0.10900  0.86200  1.0000
  O   O1        1.0  0.88700  0.71900  0.07730  1.0000
  O   O2        1.0  0.38700  0.78100  0.07730  1.0000
  O   O3        1.0  0.24300  0.54900  0.16600  1.0000
  O   O4        1.0  0.74300  0.95100  0.16600  1.0000
  O   O5        1.0  0.54000  0.54300  0.20400  1.0000
  O   O6        1.0  0.03980  0.95700  0.20400  1.0000
  O   O7        1.0  0.48800  0.05230  0.24300  1.0000
  O   O8        1.0  0.98800  0.44800  0.24300  1.0000
  O   O9        1.0  0.23900  0.29300  0.33400  1.0000
  O   O10       1.0  0.73900  0.20700  0.33400  1.0000
  O   O11       1.0  0.90100  0.77500  0.40700  1.0000
  O   O12       1.0  0.40100  0.72500  0.40700  1.0000
  O   O13       1.0  0.69400  0.95100  0.49400  1.0000
  O   O14       1.0  0.19400  0.54900  0.49400  1.0000
  O   O15       1.0  0.80600  0.45100  0.50600  1.0000
  O   O16       1.0  0.30600  0.04850  0.50600  1.0000
  O   O17       1.0  0.59900  0.27500  0.59300  1.0000
  O   O18       1.0  0.09870  0.22500  0.59300  1.0000
  O   O19       1.0  0.26100  0.79300  0.66600  1.0000
  O   O20       1.0  0.76100  0.70700  0.66600  1.0000
  O   O21       1.0  0.01190  0.55200  0.75700  1.0000
  O   O22       1.0  0.51200  0.94800  0.75700  1.0000
  O   O23       1.0  0.46000  0.45700  0.79600  1.0000
  O   O24       1.0  0.96000  0.04310  0.79600  1.0000
  O   O25       1.0  0.25700  0.04900  0.83400  1.0000
  O   O26       1.0  0.75700  0.45100  0.83400  1.0000
  O   O27       1.0  0.61300  0.21900  0.92300  1.0000
  O   O28       1.0  0.11300  0.28100  0.92300  1.0000
