data_image0
_chemical_formula_structural       Mg4Mo4O16
_chemical_formula_sum              "Mg4 Mo4 O16"
_cell_length_a       6.89987
_cell_length_b       6.89987
_cell_length_c       7.0201
_cell_angle_alpha    102.698
_cell_angle_beta     77.3023
_cell_angle_gamma    95.9611

_space_group_name_H-M_alt    "P 1"
_space_group_IT_number       1

loop_
  _space_group_symop_operation_xyz
  'x, y, z'

loop_
  _atom_site_type_symbol
  _atom_site_label
  _atom_site_symmetry_multiplicity
  _atom_site_fract_x
  _atom_site_fract_y
  _atom_site_fract_z
  _atom_site_occupancy
  Mg  Mg1       1.0  0.32300  0.32300  0.00000  1.0000
  Mg  Mg2       1.0  0.67700  0.67700  0.00000  1.0000
  Mg  Mg3       1.0  0.30000  0.70000  0.35500  1.0000
  Mg  Mg4       1.0  0.70000  0.30000  0.64500  1.0000
  Mo  Mo1       1.0  0.77000  0.23000  0.09530  1.0000
  Mo  Mo2       1.0  0.25000  0.25000  0.50000  1.0000
  Mo  Mo3       1.0  0.75000  0.75000  0.50000  1.0000
  Mo  Mo4       1.0  0.23000  0.77000  0.90500  1.0000
  O   O1        1.0  0.02530  0.29200  0.02640  1.0000
  O   O2        1.0  0.70800  0.97500  0.02640  1.0000
  O   O3        1.0  0.36100  0.63900  0.03950  1.0000
  O   O4        1.0  0.30600  0.39000  0.30200  1.0000
  O   O5        1.0  0.61000  0.69400  0.30200  1.0000
  O   O6        1.0  0.70000  0.30000  0.35800  1.0000
  O   O7        1.0  0.28700  0.99900  0.38900  1.0000
  O   O8        1.0  0.00092  0.71300  0.38900  1.0000
  O   O9        1.0  0.99900  0.28700  0.61100  1.0000
  O   O10       1.0  0.71300  0.00093  0.61100  1.0000
  O   O11       1.0  0.30000  0.70000  0.64200  1.0000
  O   O12       1.0  0.39000  0.30600  0.69800  1.0000
  O   O13       1.0  0.69400  0.61000  0.69800  1.0000
  O   O14       1.0  0.63900  0.36100  0.96100  1.0000
  O   O15       1.0  0.29200  0.02530  0.97400  1.0000
  O   O16       1.0  0.97500  0.70800  0.97400  1.0000
