data_image0
_chemical_formula_structural       Ag16I8N8O24
_chemical_formula_sum              "Ag16 I8 N8 O24"
_cell_length_a       7.3014
_cell_length_b       7.72965
_cell_length_c       16.9973
_cell_angle_alpha    90
_cell_angle_beta     90
_cell_angle_gamma    90

_space_group_name_H-M_alt    "P 1"
_space_group_IT_number       1

loop_
  _space_group_symop_operation_xyz
  'x, y, z'

loop_
  _atom_site_type_symbol
  _atom_site_label
  _atom_site_symmetry_multiplicity
  _atom_site_fract_x
  _atom_site_fract_y
  _atom_site_fract_z
  _atom_site_occupancy
  Ag  Ag1       1.0  0.74200  0.53000  0.05880  1.0000
  Ag  Ag2       1.0  0.33000  0.53300  0.06010  1.0000
  Ag  Ag3       1.0  0.28900  0.02680  0.18500  1.0000
  Ag  Ag4       1.0  0.67100  0.98300  0.19300  1.0000
  Ag  Ag5       1.0  0.32900  0.48300  0.30700  1.0000
  Ag  Ag6       1.0  0.71100  0.52700  0.31500  1.0000
  Ag  Ag7       1.0  0.67000  0.03320  0.44000  1.0000
  Ag  Ag8       1.0  0.25800  0.03050  0.44100  1.0000
  Ag  Ag9       1.0  0.75800  0.47000  0.55900  1.0000
  Ag  Ag10      1.0  0.17000  0.46700  0.56000  1.0000
  Ag  Ag11      1.0  0.21100  0.97300  0.68500  1.0000
  Ag  Ag12      1.0  0.82900  0.01670  0.69300  1.0000
  Ag  Ag13      1.0  0.17100  0.51700  0.80700  1.0000
  Ag  Ag14      1.0  0.78900  0.47300  0.81500  1.0000
  Ag  Ag15      1.0  0.83000  0.96700  0.94000  1.0000
  Ag  Ag16      1.0  0.24200  0.97000  0.94100  1.0000
  I   I1        1.0  0.54200  0.85700  0.04640  1.0000
  I   I2        1.0  0.53000  0.34000  0.17900  1.0000
  I   I3        1.0  0.47000  0.84000  0.32100  1.0000
  I   I4        1.0  0.45800  0.35700  0.45400  1.0000
  I   I5        1.0  0.95800  0.14300  0.54600  1.0000
  I   I6        1.0  0.97000  0.66000  0.67900  1.0000
  I   I7        1.0  0.03050  0.16000  0.82100  1.0000
  I   I8        1.0  0.04150  0.64300  0.95400  1.0000
  N   N1        1.0  0.99900  0.21000  0.07170  1.0000
  N   N2        1.0  0.02310  0.65000  0.20400  1.0000
  N   N3        1.0  0.97700  0.15000  0.29600  1.0000
  N   N4        1.0  0.00123  0.71000  0.42800  1.0000
  N   N5        1.0  0.50100  0.79000  0.57200  1.0000
  N   N6        1.0  0.47700  0.35000  0.70400  1.0000
  N   N7        1.0  0.52300  0.85000  0.79600  1.0000
  N   N8        1.0  0.49900  0.29000  0.92800  1.0000
  O   O1        1.0  0.86300  0.23200  0.02480  1.0000
  O   O2        1.0  0.08120  0.06440  0.07180  1.0000
  O   O3        1.0  0.04810  0.33100  0.11600  1.0000
  O   O4        1.0  0.16900  0.70100  0.17200  1.0000
  O   O5        1.0  0.86700  0.69100  0.17800  1.0000
  O   O6        1.0  0.96900  0.05200  0.23400  1.0000
  O   O7        1.0  0.03090  0.55200  0.26600  1.0000
  O   O8        1.0  0.13300  0.19100  0.32200  1.0000
  O   O9        1.0  0.83100  0.20100  0.32800  1.0000
  O   O10       1.0  0.95200  0.83100  0.38400  1.0000
  O   O11       1.0  0.91900  0.56400  0.42800  1.0000
  O   O12       1.0  0.13700  0.73200  0.47500  1.0000
  O   O13       1.0  0.63700  0.76800  0.52500  1.0000
  O   O14       1.0  0.41900  0.93600  0.57200  1.0000
  O   O15       1.0  0.45200  0.66900  0.61600  1.0000
  O   O16       1.0  0.33100  0.29900  0.67200  1.0000
  O   O17       1.0  0.63300  0.30900  0.67800  1.0000
  O   O18       1.0  0.53100  0.94800  0.73400  1.0000
  O   O19       1.0  0.46900  0.44800  0.76600  1.0000
  O   O20       1.0  0.36700  0.80900  0.82200  1.0000
  O   O21       1.0  0.66900  0.79900  0.82800  1.0000
  O   O22       1.0  0.54800  0.16900  0.88400  1.0000
  O   O23       1.0  0.58100  0.43600  0.92800  1.0000
  O   O24       1.0  0.36300  0.26800  0.97500  1.0000
