data_image0
_chemical_formula_structural       B8Li16Na8O24
_chemical_formula_sum              "B8 Li16 Na8 O24"
_cell_length_a       9.41626
_cell_length_b       11.9873
_cell_length_c       4.90283
_cell_angle_alpha    90
_cell_angle_beta     103.912
_cell_angle_gamma    90

_space_group_name_H-M_alt    "P 1"
_space_group_IT_number       1

loop_
  _space_group_symop_operation_xyz
  'x, y, z'

loop_
  _atom_site_type_symbol
  _atom_site_label
  _atom_site_symmetry_multiplicity
  _atom_site_fract_x
  _atom_site_fract_y
  _atom_site_fract_z
  _atom_site_occupancy
  B   B1        1.0  0.42200  0.71100  0.06370  1.0000
  B   B2        1.0  0.28200  0.02200  0.23200  1.0000
  B   B3        1.0  0.21800  0.52200  0.26800  1.0000
  B   B4        1.0  0.07820  0.21100  0.43600  1.0000
  B   B5        1.0  0.92200  0.78900  0.56400  1.0000
  B   B6        1.0  0.78200  0.47800  0.73200  1.0000
  B   B7        1.0  0.71800  0.97800  0.76800  1.0000
  B   B8        1.0  0.57800  0.28900  0.93600  1.0000
  Li  Li1       1.0  0.85400  0.84800  0.08400  1.0000
  Li  Li2       1.0  0.94000  0.65000  0.13200  1.0000
  Li  Li3       1.0  0.70100  0.60300  0.22400  1.0000
  Li  Li4       1.0  0.47800  0.50500  0.23800  1.0000
  Li  Li5       1.0  0.02240  0.00453  0.26200  1.0000
  Li  Li6       1.0  0.79900  0.10300  0.27600  1.0000
  Li  Li7       1.0  0.56000  0.15000  0.36800  1.0000
  Li  Li8       1.0  0.64600  0.34800  0.41600  1.0000
  Li  Li9       1.0  0.35400  0.65200  0.58400  1.0000
  Li  Li10      1.0  0.44000  0.85000  0.63200  1.0000
  Li  Li11      1.0  0.20100  0.89700  0.72400  1.0000
  Li  Li12      1.0  0.97800  0.99500  0.73800  1.0000
  Li  Li13      1.0  0.52200  0.49500  0.76200  1.0000
  Li  Li14      1.0  0.29900  0.39700  0.77600  1.0000
  Li  Li15      1.0  0.06000  0.35000  0.86800  1.0000
  Li  Li16      1.0  0.14600  0.15200  0.91600  1.0000
  Na  Na1       1.0  0.17600  0.80300  0.20500  1.0000
  Na  Na2       1.0  0.89600  0.38300  0.23900  1.0000
  Na  Na3       1.0  0.60400  0.88300  0.26100  1.0000
  Na  Na4       1.0  0.32400  0.30300  0.29500  1.0000
  Na  Na5       1.0  0.67600  0.69700  0.70500  1.0000
  Na  Na6       1.0  0.39600  0.11700  0.73900  1.0000
  Na  Na7       1.0  0.10400  0.61700  0.76100  1.0000
  Na  Na8       1.0  0.82400  0.19700  0.79500  1.0000
  O   O1        1.0  0.19100  0.46500  0.01700  1.0000
  O   O2        1.0  0.16000  0.99100  0.01940  1.0000
  O   O3        1.0  0.49700  0.37400  0.02250  1.0000
  O   O4        1.0  0.68300  0.23500  0.14400  1.0000
  O   O5        1.0  0.05350  0.24000  0.15600  1.0000
  O   O6        1.0  0.36200  0.11400  0.18600  1.0000
  O   O7        1.0  0.13800  0.61400  0.31400  1.0000
  O   O8        1.0  0.44600  0.74000  0.34400  1.0000
  O   O9        1.0  0.81700  0.73500  0.35600  1.0000
  O   O10       1.0  0.00304  0.87400  0.47800  1.0000
  O   O11       1.0  0.34000  0.49100  0.48100  1.0000
  O   O12       1.0  0.30900  0.96500  0.48300  1.0000
  O   O13       1.0  0.69100  0.03490  0.51700  1.0000
  O   O14       1.0  0.66000  0.50900  0.51900  1.0000
  O   O15       1.0  0.99700  0.12600  0.52200  1.0000
  O   O16       1.0  0.18300  0.26500  0.64400  1.0000
  O   O17       1.0  0.55400  0.26000  0.65600  1.0000
  O   O18       1.0  0.86200  0.38600  0.68600  1.0000
  O   O19       1.0  0.63800  0.88600  0.81400  1.0000
  O   O20       1.0  0.94600  0.76000  0.84400  1.0000
  O   O21       1.0  0.31700  0.76500  0.85600  1.0000
  O   O22       1.0  0.50300  0.62600  0.97800  1.0000
  O   O23       1.0  0.84000  0.00877  0.98100  1.0000
  O   O24       1.0  0.80900  0.53500  0.98300  1.0000
