data_image0
_chemical_formula_structural       C8F24Ge8Se12
_chemical_formula_sum              "C8 F24 Ge8 Se12"
_cell_length_a       10.8669
_cell_length_b       10.8669
_cell_length_c       10.8669
_cell_angle_alpha    120
_cell_angle_beta     90
_cell_angle_gamma    120

_space_group_name_H-M_alt    "P 1"
_space_group_IT_number       1

loop_
  _space_group_symop_operation_xyz
  'x, y, z'

loop_
  _atom_site_type_symbol
  _atom_site_label
  _atom_site_symmetry_multiplicity
  _atom_site_fract_x
  _atom_site_fract_y
  _atom_site_fract_z
  _atom_site_occupancy
  C   C1        1.0  0.72100  0.05800  0.27900  1.0000
  C   C2        1.0  0.33700  0.05800  0.27900  1.0000
  C   C3        1.0  0.72100  0.44200  0.27900  1.0000
  C   C4        1.0  0.27900  0.55800  0.33700  1.0000
  C   C5        1.0  0.72100  0.44200  0.66300  1.0000
  C   C6        1.0  0.27900  0.94200  0.72100  1.0000
  C   C7        1.0  0.66300  0.94200  0.72100  1.0000
  C   C8        1.0  0.27900  0.55800  0.72100  1.0000
  F   F1        1.0  0.63500  0.02720  0.16200  1.0000
  F   F2        1.0  0.63500  0.27000  0.16200  1.0000
  F   F3        1.0  0.39200  0.02720  0.16200  1.0000
  F   F4        1.0  0.83800  0.23000  0.36500  1.0000
  F   F5        1.0  0.39200  0.23000  0.36500  1.0000
  F   F6        1.0  0.39200  0.02720  0.36500  1.0000
  F   F7        1.0  0.63500  0.02720  0.36500  1.0000
  F   F8        1.0  0.83800  0.47300  0.36500  1.0000
  F   F9        1.0  0.63500  0.47300  0.36500  1.0000
  F   F10       1.0  0.16200  0.52700  0.39200  1.0000
  F   F11       1.0  0.36500  0.52700  0.39200  1.0000
  F   F12       1.0  0.36500  0.73000  0.39200  1.0000
  F   F13       1.0  0.63500  0.27000  0.60800  1.0000
  F   F14       1.0  0.63500  0.47300  0.60800  1.0000
  F   F15       1.0  0.83800  0.47300  0.60800  1.0000
  F   F16       1.0  0.16200  0.77000  0.63500  1.0000
  F   F17       1.0  0.60800  0.77000  0.63500  1.0000
  F   F18       1.0  0.36500  0.97300  0.63500  1.0000
  F   F19       1.0  0.60800  0.97300  0.63500  1.0000
  F   F20       1.0  0.16200  0.52700  0.63500  1.0000
  F   F21       1.0  0.36500  0.52700  0.63500  1.0000
  F   F22       1.0  0.36500  0.97300  0.83800  1.0000
  F   F23       1.0  0.60800  0.97300  0.83800  1.0000
  F   F24       1.0  0.36500  0.73000  0.83800  1.0000
  Ge  Ge1       1.0  0.20400  0.40800  0.11200  1.0000
  Ge  Ge2       1.0  0.79600  0.59200  0.20400  1.0000
  Ge  Ge3       1.0  0.11200  0.90800  0.20400  1.0000
  Ge  Ge4       1.0  0.79600  0.90800  0.20400  1.0000
  Ge  Ge5       1.0  0.20400  0.09200  0.79600  1.0000
  Ge  Ge6       1.0  0.88800  0.09200  0.79600  1.0000
  Ge  Ge7       1.0  0.20400  0.40800  0.79600  1.0000
  Ge  Ge8       1.0  0.79600  0.59200  0.88800  1.0000
  Se  Se1       1.0  0.30900  0.61700  0.05870  1.0000
  Se  Se2       1.0  0.30900  0.25000  0.05870  1.0000
  Se  Se3       1.0  0.94100  0.25000  0.05870  1.0000
  Se  Se4       1.0  0.05870  0.11700  0.30900  1.0000
  Se  Se5       1.0  0.05870  0.75000  0.30900  1.0000
  Se  Se6       1.0  0.69100  0.75000  0.30900  1.0000
  Se  Se7       1.0  0.94100  0.88300  0.69100  1.0000
  Se  Se8       1.0  0.30900  0.25000  0.69100  1.0000
  Se  Se9       1.0  0.94100  0.25000  0.69100  1.0000
  Se  Se10      1.0  0.69100  0.38300  0.94100  1.0000
  Se  Se11      1.0  0.05870  0.75000  0.94100  1.0000
  Se  Se12      1.0  0.69100  0.75000  0.94100  1.0000
