data_image0
_chemical_formula_structural       H4Na12O32S8
_chemical_formula_sum              "H4 Na12 O32 S8"
_cell_length_a       8.59925
_cell_length_b       9.53669
_cell_length_c       8.96864
_cell_angle_alpha    90
_cell_angle_beta     108.921
_cell_angle_gamma    90

_space_group_name_H-M_alt    "P 1"
_space_group_IT_number       1

loop_
  _space_group_symop_operation_xyz
  'x, y, z'

loop_
  _atom_site_type_symbol
  _atom_site_label
  _atom_site_symmetry_multiplicity
  _atom_site_fract_x
  _atom_site_fract_y
  _atom_site_fract_z
  _atom_site_occupancy
  H   H1        1.0  0.10700  0.73400  0.11700  1.0000
  H   H2        1.0  0.89300  0.23400  0.38300  1.0000
  H   H3        1.0  0.10700  0.76600  0.61700  1.0000
  H   H4        1.0  0.89300  0.26600  0.88300  1.0000
  Na  Na1       1.0  0.00000  0.00000  0.00000  1.0000
  Na  Na2       1.0  0.50000  0.50000  0.00000  1.0000
  Na  Na3       1.0  0.38400  0.15500  0.12500  1.0000
  Na  Na4       1.0  0.25700  0.49300  0.22100  1.0000
  Na  Na5       1.0  0.74300  0.99300  0.27900  1.0000
  Na  Na6       1.0  0.61600  0.65500  0.37500  1.0000
  Na  Na7       1.0  0.50000  0.00000  0.50000  1.0000
  Na  Na8       1.0  0.00000  0.50000  0.50000  1.0000
  Na  Na9       1.0  0.38400  0.34500  0.62500  1.0000
  Na  Na10      1.0  0.25700  0.00730  0.72100  1.0000
  Na  Na11      1.0  0.74300  0.50700  0.77900  1.0000
  Na  Na12      1.0  0.61600  0.84500  0.87500  1.0000
  O   O1        1.0  0.74000  0.62400  0.00732  1.0000
  O   O2        1.0  0.61800  0.13300  0.05550  1.0000
  O   O3        1.0  0.18700  0.83600  0.08350  1.0000
  O   O4        1.0  0.41100  0.67100  0.12600  1.0000
  O   O5        1.0  0.85100  0.84500  0.13000  1.0000
  O   O6        1.0  0.03390  0.64600  0.14400  1.0000
  O   O7        1.0  0.15600  0.14100  0.20700  1.0000
  O   O8        1.0  0.46600  0.90900  0.22600  1.0000
  O   O9        1.0  0.53400  0.40900  0.27400  1.0000
  O   O10       1.0  0.84400  0.64100  0.29300  1.0000
  O   O11       1.0  0.96600  0.14600  0.35600  1.0000
  O   O12       1.0  0.14900  0.34500  0.37000  1.0000
  O   O13       1.0  0.58900  0.17100  0.37400  1.0000
  O   O14       1.0  0.81300  0.33600  0.41600  1.0000
  O   O15       1.0  0.38200  0.63300  0.44400  1.0000
  O   O16       1.0  0.26000  0.12400  0.49300  1.0000
  O   O17       1.0  0.74000  0.87600  0.50700  1.0000
  O   O18       1.0  0.61800  0.36700  0.55600  1.0000
  O   O19       1.0  0.18700  0.66400  0.58400  1.0000
  O   O20       1.0  0.41100  0.82900  0.62600  1.0000
  O   O21       1.0  0.85100  0.65500  0.63000  1.0000
  O   O22       1.0  0.03390  0.85400  0.64400  1.0000
  O   O23       1.0  0.15600  0.35900  0.70700  1.0000
  O   O24       1.0  0.46600  0.59100  0.72600  1.0000
  O   O25       1.0  0.53400  0.09090  0.77400  1.0000
  O   O26       1.0  0.84400  0.85900  0.79300  1.0000
  O   O27       1.0  0.96600  0.35400  0.85600  1.0000
  O   O28       1.0  0.14900  0.15500  0.87000  1.0000
  O   O29       1.0  0.58900  0.32900  0.87400  1.0000
  O   O30       1.0  0.81300  0.16400  0.91600  1.0000
  O   O31       1.0  0.38200  0.86700  0.94400  1.0000
  O   O32       1.0  0.26000  0.37600  0.99300  1.0000
  S   S1        1.0  0.36400  0.82000  0.09440  1.0000
  S   S2        1.0  0.86200  0.69100  0.14500  1.0000
  S   S3        1.0  0.13800  0.19100  0.35500  1.0000
  S   S4        1.0  0.63600  0.32000  0.40600  1.0000
  S   S5        1.0  0.36400  0.68000  0.59400  1.0000
  S   S6        1.0  0.86200  0.80900  0.64500  1.0000
  S   S7        1.0  0.13800  0.30900  0.85500  1.0000
  S   S8        1.0  0.63600  0.18000  0.90600  1.0000
