data_image0
_chemical_formula_structural       O32Pb16Si8
_chemical_formula_sum              "O32 Pb16 Si8"
_cell_length_a       7.16507
_cell_length_b       7.16507
_cell_length_c       19.4951
_cell_angle_alpha    97.9059
_cell_angle_beta     97.9059
_cell_angle_gamma    64.2641

_space_group_name_H-M_alt    "P 1"
_space_group_IT_number       1

loop_
  _space_group_symop_operation_xyz
  'x, y, z'

loop_
  _atom_site_type_symbol
  _atom_site_label
  _atom_site_symmetry_multiplicity
  _atom_site_fract_x
  _atom_site_fract_y
  _atom_site_fract_z
  _atom_site_occupancy
  O   O1        1.0  0.78900  0.21100  0.00000  1.0000
  O   O2        1.0  0.21500  0.78500  0.00000  1.0000
  O   O3        1.0  0.50700  0.50300  0.07770  1.0000
  O   O4        1.0  0.65900  0.11600  0.10900  1.0000
  O   O5        1.0  0.12100  0.65900  0.11100  1.0000
  O   O6        1.0  0.33700  0.89700  0.12800  1.0000
  O   O7        1.0  0.90100  0.33000  0.12900  1.0000
  O   O8        1.0  0.29200  0.29000  0.20500  1.0000
  O   O9        1.0  0.79000  0.78300  0.20500  1.0000
  O   O10       1.0  0.46200  0.95600  0.29500  1.0000
  O   O11       1.0  0.96500  0.46200  0.29500  1.0000
  O   O12       1.0  0.85200  0.91400  0.37100  1.0000
  O   O13       1.0  0.41700  0.34800  0.37200  1.0000
  O   O14       1.0  0.63300  0.58700  0.38900  1.0000
  O   O15       1.0  0.09360  0.12900  0.39000  1.0000
  O   O16       1.0  0.24700  0.74200  0.42200  1.0000
  O   O17       1.0  0.96600  0.03400  0.50000  1.0000
  O   O18       1.0  0.53900  0.46100  0.50000  1.0000
  O   O19       1.0  0.25800  0.75300  0.57800  1.0000
  O   O20       1.0  0.87100  0.90600  0.61000  1.0000
  O   O21       1.0  0.41300  0.36700  0.61100  1.0000
  O   O22       1.0  0.65200  0.58300  0.62800  1.0000
  O   O23       1.0  0.08560  0.14800  0.62900  1.0000
  O   O24       1.0  0.53800  0.03490  0.70500  1.0000
  O   O25       1.0  0.04430  0.53800  0.70500  1.0000
  O   O26       1.0  0.21700  0.21000  0.79500  1.0000
  O   O27       1.0  0.71000  0.70800  0.79500  1.0000
  O   O28       1.0  0.67000  0.09910  0.87100  1.0000
  O   O29       1.0  0.10300  0.66300  0.87200  1.0000
  O   O30       1.0  0.34100  0.87900  0.88900  1.0000
  O   O31       1.0  0.88400  0.34100  0.89100  1.0000
  O   O32       1.0  0.49700  0.49300  0.92200  1.0000
  Pb  Pb1       1.0  0.76300  0.76100  0.08970  1.0000
  Pb  Pb2       1.0  0.24000  0.23400  0.09020  1.0000
  Pb  Pb3       1.0  0.12000  0.11700  0.24100  1.0000
  Pb  Pb4       1.0  0.62500  0.61800  0.24700  1.0000
  Pb  Pb5       1.0  0.13000  0.62700  0.25300  1.0000
  Pb  Pb6       1.0  0.63400  0.12800  0.25900  1.0000
  Pb  Pb7       1.0  0.51400  0.01130  0.41000  1.0000
  Pb  Pb8       1.0  0.99200  0.48400  0.41000  1.0000
  Pb  Pb9       1.0  0.51600  0.00844  0.59000  1.0000
  Pb  Pb10      1.0  0.98900  0.48600  0.59000  1.0000
  Pb  Pb11      1.0  0.87200  0.36600  0.74100  1.0000
  Pb  Pb12      1.0  0.37300  0.87000  0.74700  1.0000
  Pb  Pb13      1.0  0.38200  0.37500  0.75300  1.0000
  Pb  Pb14      1.0  0.88300  0.88000  0.75900  1.0000
  Pb  Pb15      1.0  0.76600  0.76000  0.91000  1.0000
  Pb  Pb16      1.0  0.23900  0.23700  0.91000  1.0000
  Si  Si1       1.0  0.71900  0.28400  0.08020  1.0000
  Si  Si2       1.0  0.28900  0.71600  0.08040  1.0000
  Si  Si3       1.0  0.46500  0.53000  0.42000  1.0000
  Si  Si4       1.0  0.03420  0.96200  0.42000  1.0000
  Si  Si5       1.0  0.03830  0.96600  0.58000  1.0000
  Si  Si6       1.0  0.47000  0.53500  0.58000  1.0000
  Si  Si7       1.0  0.28400  0.71100  0.92000  1.0000
  Si  Si8       1.0  0.71600  0.28100  0.92000  1.0000
