data_image0
_chemical_formula_structural       H24Na4O24P4
_chemical_formula_sum              "H24 Na4 O24 P4"
_cell_length_a       7.07509
_cell_length_b       11.0653
_cell_length_c       6.32765
_cell_angle_alpha    90
_cell_angle_beta     90
_cell_angle_gamma    90

_space_group_name_H-M_alt    "P 1"
_space_group_IT_number       1

loop_
  _space_group_symop_operation_xyz
  'x, y, z'

loop_
  _atom_site_type_symbol
  _atom_site_label
  _atom_site_symmetry_multiplicity
  _atom_site_fract_x
  _atom_site_fract_y
  _atom_site_fract_z
  _atom_site_occupancy
  H   H1        1.0  0.56000  0.12800  0.01450  1.0000
  H   H2        1.0  0.89300  0.84500  0.01610  1.0000
  H   H3        1.0  0.52700  0.99500  0.09650  1.0000
  H   H4        1.0  0.34200  0.23800  0.12400  1.0000
  H   H5        1.0  0.52500  0.31800  0.14200  1.0000
  H   H6        1.0  0.73200  0.52700  0.22900  1.0000
  H   H7        1.0  0.26800  0.02730  0.27100  1.0000
  H   H8        1.0  0.47500  0.81800  0.35800  1.0000
  H   H9        1.0  0.65800  0.73800  0.37600  1.0000
  H   H10       1.0  0.47300  0.49500  0.40400  1.0000
  H   H11       1.0  0.10700  0.34500  0.48400  1.0000
  H   H12       1.0  0.44000  0.62800  0.48500  1.0000
  H   H13       1.0  0.94000  0.87200  0.51500  1.0000
  H   H14       1.0  0.60700  0.15500  0.51600  1.0000
  H   H15       1.0  0.97300  0.00492  0.59600  1.0000
  H   H16       1.0  0.15800  0.76200  0.62400  1.0000
  H   H17       1.0  0.97500  0.68200  0.64200  1.0000
  H   H18       1.0  0.76800  0.47300  0.72900  1.0000
  H   H19       1.0  0.23200  0.97300  0.77100  1.0000
  H   H20       1.0  0.02460  0.18200  0.85800  1.0000
  H   H21       1.0  0.84200  0.26200  0.87600  1.0000
  H   H22       1.0  0.02720  0.50500  0.90400  1.0000
  H   H23       1.0  0.39300  0.65500  0.98400  1.0000
  H   H24       1.0  0.06050  0.37200  0.98500  1.0000
  Na  Na1       1.0  0.89000  0.07570  0.21400  1.0000
  Na  Na2       1.0  0.11000  0.57600  0.28600  1.0000
  Na  Na3       1.0  0.61000  0.92400  0.71400  1.0000
  Na  Na4       1.0  0.39000  0.42400  0.78600  1.0000
  O   O1        1.0  0.62000  0.04660  0.02300  1.0000
  O   O2        1.0  0.44800  0.26900  0.04120  1.0000
  O   O3        1.0  0.22800  0.71100  0.04870  1.0000
  O   O4        1.0  0.01170  0.89600  0.07250  1.0000
  O   O5        1.0  0.78300  0.61400  0.19000  1.0000
  O   O6        1.0  0.34000  0.91100  0.20700  1.0000
  O   O7        1.0  0.66000  0.41100  0.29300  1.0000
  O   O8        1.0  0.21700  0.11400  0.31000  1.0000
  O   O9        1.0  0.98800  0.39600  0.42800  1.0000
  O   O10       1.0  0.77200  0.21100  0.45100  1.0000
  O   O11       1.0  0.55200  0.76900  0.45900  1.0000
  O   O12       1.0  0.38000  0.54700  0.47700  1.0000
  O   O13       1.0  0.88000  0.95300  0.52300  1.0000
  O   O14       1.0  0.05160  0.73100  0.54100  1.0000
  O   O15       1.0  0.27200  0.28900  0.54900  1.0000
  O   O16       1.0  0.48800  0.10400  0.57200  1.0000
  O   O17       1.0  0.71700  0.38600  0.69000  1.0000
  O   O18       1.0  0.16000  0.08850  0.70700  1.0000
  O   O19       1.0  0.84000  0.58900  0.79300  1.0000
  O   O20       1.0  0.28300  0.88600  0.81000  1.0000
  O   O21       1.0  0.51200  0.60400  0.92800  1.0000
  O   O22       1.0  0.72800  0.78900  0.95100  1.0000
  O   O23       1.0  0.94800  0.23100  0.95900  1.0000
  O   O24       1.0  0.12000  0.45300  0.97700  1.0000
  P   P1        1.0  0.21700  0.84700  0.04130  1.0000
  P   P2        1.0  0.78300  0.34700  0.45900  1.0000
  P   P3        1.0  0.28300  0.15300  0.54100  1.0000
  P   P4        1.0  0.71700  0.65300  0.95900  1.0000
