data_image0
_chemical_formula_structural       K12P44
_chemical_formula_sum              "K12 P44"
_cell_length_a       10.5703
_cell_length_b       13.9556
_cell_length_c       10.597
_cell_angle_alpha    90
_cell_angle_beta     90
_cell_angle_gamma    90

_space_group_name_H-M_alt    "P 1"
_space_group_IT_number       1

loop_
  _space_group_symop_operation_xyz
  'x, y, z'

loop_
  _atom_site_type_symbol
  _atom_site_label
  _atom_site_symmetry_multiplicity
  _atom_site_fract_x
  _atom_site_fract_y
  _atom_site_fract_z
  _atom_site_occupancy
  K   K1        1.0  0.25000  0.28900  0.00000  1.0000
  K   K2        1.0  0.75000  0.71100  0.00000  1.0000
  K   K3        1.0  0.07370  0.00820  0.23200  1.0000
  K   K4        1.0  0.57400  0.99200  0.23200  1.0000
  K   K5        1.0  0.57400  0.49200  0.26800  1.0000
  K   K6        1.0  0.07370  0.50800  0.26800  1.0000
  K   K7        1.0  0.75000  0.21100  0.50000  1.0000
  K   K8        1.0  0.25000  0.78900  0.50000  1.0000
  K   K9        1.0  0.92600  0.49200  0.73200  1.0000
  K   K10       1.0  0.42600  0.50800  0.73200  1.0000
  K   K11       1.0  0.42600  0.00820  0.76800  1.0000
  K   K12       1.0  0.92600  0.99200  0.76800  1.0000
  P   P1        1.0  0.75000  0.47300  0.00000  1.0000
  P   P2        1.0  0.25000  0.52700  0.00000  1.0000
  P   P3        1.0  0.50700  0.15300  0.01260  1.0000
  P   P4        1.0  0.00705  0.84700  0.01260  1.0000
  P   P5        1.0  0.88100  0.37000  0.08100  1.0000
  P   P6        1.0  0.38100  0.63000  0.08100  1.0000
  P   P7        1.0  0.81500  0.12300  0.08270  1.0000
  P   P8        1.0  0.31500  0.87700  0.08270  1.0000
  P   P9        1.0  0.56600  0.28900  0.09170  1.0000
  P   P10       1.0  0.06550  0.71100  0.09170  1.0000
  P   P11       1.0  0.75700  0.26100  0.18000  1.0000
  P   P12       1.0  0.25700  0.73900  0.18000  1.0000
  P   P13       1.0  0.25700  0.23900  0.32000  1.0000
  P   P14       1.0  0.75700  0.76100  0.32000  1.0000
  P   P15       1.0  0.06550  0.21100  0.40800  1.0000
  P   P16       1.0  0.56600  0.78900  0.40800  1.0000
  P   P17       1.0  0.31500  0.37700  0.41700  1.0000
  P   P18       1.0  0.81500  0.62300  0.41700  1.0000
  P   P19       1.0  0.38100  0.13000  0.41900  1.0000
  P   P20       1.0  0.88100  0.87000  0.41900  1.0000
  P   P21       1.0  0.00705  0.34700  0.48700  1.0000
  P   P22       1.0  0.50700  0.65300  0.48700  1.0000
  P   P23       1.0  0.25000  0.02660  0.50000  1.0000
  P   P24       1.0  0.75000  0.97300  0.50000  1.0000
  P   P25       1.0  0.49300  0.34700  0.51300  1.0000
  P   P26       1.0  0.99300  0.65300  0.51300  1.0000
  P   P27       1.0  0.11900  0.13000  0.58100  1.0000
  P   P28       1.0  0.61900  0.87000  0.58100  1.0000
  P   P29       1.0  0.18500  0.37700  0.58300  1.0000
  P   P30       1.0  0.68500  0.62300  0.58300  1.0000
  P   P31       1.0  0.43400  0.21100  0.59200  1.0000
  P   P32       1.0  0.93400  0.78900  0.59200  1.0000
  P   P33       1.0  0.24300  0.23900  0.68000  1.0000
  P   P34       1.0  0.74300  0.76100  0.68000  1.0000
  P   P35       1.0  0.74300  0.26100  0.82000  1.0000
  P   P36       1.0  0.24300  0.73900  0.82000  1.0000
  P   P37       1.0  0.93400  0.28900  0.90800  1.0000
  P   P38       1.0  0.43400  0.71100  0.90800  1.0000
  P   P39       1.0  0.68500  0.12300  0.91700  1.0000
  P   P40       1.0  0.18500  0.87700  0.91700  1.0000
  P   P41       1.0  0.61900  0.37000  0.91900  1.0000
  P   P42       1.0  0.11900  0.63000  0.91900  1.0000
  P   P43       1.0  0.99300  0.15300  0.98700  1.0000
  P   P44       1.0  0.49300  0.84700  0.98700  1.0000
