data_image0
_chemical_formula_structural       Cl8H26N10O4Ru2Zn2
_chemical_formula_sum              "Cl8 H26 N10 O4 Ru2 Zn2"
_cell_length_a       8.97875
_cell_length_b       7.7829
_cell_length_c       9.17535
_cell_angle_alpha    90
_cell_angle_beta     90
_cell_angle_gamma    115.684

_space_group_name_H-M_alt    "P 1"
_space_group_IT_number       1

loop_
  _space_group_symop_operation_xyz
  'x, y, z'

loop_
  _atom_site_type_symbol
  _atom_site_label
  _atom_site_symmetry_multiplicity
  _atom_site_fract_x
  _atom_site_fract_y
  _atom_site_fract_z
  _atom_site_occupancy
  Cl  Cl1       1.0  0.95200  0.97600  0.03020  1.0000
  Cl  Cl2       1.0  0.29400  0.40100  0.18500  1.0000
  Cl  Cl3       1.0  0.29400  0.89200  0.18500  1.0000
  Cl  Cl4       1.0  0.63400  0.81700  0.35800  1.0000
  Cl  Cl5       1.0  0.04770  0.02380  0.53000  1.0000
  Cl  Cl6       1.0  0.70600  0.10800  0.68500  1.0000
  Cl  Cl7       1.0  0.70600  0.59900  0.68500  1.0000
  Cl  Cl8       1.0  0.36600  0.18300  0.85800  1.0000
  H   H1        1.0  0.75600  0.08260  0.04520  1.0000
  H   H2        1.0  0.75600  0.67300  0.04520  1.0000
  H   H3        1.0  0.07030  0.53500  0.09750  1.0000
  H   H4        1.0  0.56500  0.03900  0.10000  1.0000
  H   H5        1.0  0.56500  0.52600  0.10000  1.0000
  H   H6        1.0  0.00000  0.25600  0.23500  1.0000
  H   H7        1.0  0.00000  0.74400  0.23500  1.0000
  H   H8        1.0  0.83300  0.12500  0.33200  1.0000
  H   H9        1.0  0.83300  0.70900  0.33200  1.0000
  H   H10       1.0  0.96900  0.33900  0.39400  1.0000
  H   H11       1.0  0.96900  0.63000  0.39400  1.0000
  H   H12       1.0  0.35700  0.52300  0.45200  1.0000
  H   H13       1.0  0.35700  0.83300  0.45200  1.0000
  H   H14       1.0  0.24400  0.32700  0.54500  1.0000
  H   H15       1.0  0.24400  0.91700  0.54500  1.0000
  H   H16       1.0  0.93000  0.46500  0.59800  1.0000
  H   H17       1.0  0.43500  0.47400  0.60000  1.0000
  H   H18       1.0  0.43500  0.96100  0.60000  1.0000
  H   H19       1.0  0.00000  0.25600  0.73500  1.0000
  H   H20       1.0  0.00000  0.74400  0.73500  1.0000
  H   H21       1.0  0.16700  0.29100  0.83200  1.0000
  H   H22       1.0  0.16700  0.87500  0.83200  1.0000
  H   H23       1.0  0.03100  0.37000  0.89400  1.0000
  H   H24       1.0  0.03100  0.66100  0.89400  1.0000
  H   H25       1.0  0.64300  0.16700  0.95200  1.0000
  H   H26       1.0  0.64300  0.47700  0.95200  1.0000
  N   N1        1.0  0.67200  0.14100  0.05580  1.0000
  N   N2        1.0  0.67200  0.53200  0.05580  1.0000
  N   N3        1.0  0.91000  0.26300  0.30200  1.0000
  N   N4        1.0  0.91000  0.64700  0.30200  1.0000
  N   N5        1.0  0.61800  0.30900  0.32100  1.0000
  N   N6        1.0  0.32800  0.46800  0.55600  1.0000
  N   N7        1.0  0.32800  0.85900  0.55600  1.0000
  N   N8        1.0  0.08970  0.35300  0.80200  1.0000
  N   N9        1.0  0.08970  0.73700  0.80200  1.0000
  N   N10       1.0  0.38200  0.69100  0.82100  1.0000
  O   O1        1.0  0.96400  0.48200  0.04660  1.0000
  O   O2        1.0  0.52400  0.26200  0.41800  1.0000
  O   O3        1.0  0.03640  0.51800  0.54700  1.0000
  O   O4        1.0  0.47600  0.73800  0.91800  1.0000
  Ru  Ru1       1.0  0.77700  0.38900  0.18900  1.0000
  Ru  Ru2       1.0  0.22300  0.61100  0.68900  1.0000
  Zn  Zn1       1.0  0.23100  0.11500  0.07930  1.0000
  Zn  Zn2       1.0  0.76900  0.88500  0.57900  1.0000
