data_image0
_chemical_formula_structural       Ba8Sb16Se32
_chemical_formula_sum              "Ba8 Sb16 Se32"
_cell_length_a       9.23842
_cell_length_b       21.0964
_cell_length_c       8.73309
_cell_angle_alpha    90
_cell_angle_beta     91.0507
_cell_angle_gamma    90

_space_group_name_H-M_alt    "P 1"
_space_group_IT_number       1

loop_
  _space_group_symop_operation_xyz
  'x, y, z'

loop_
  _atom_site_type_symbol
  _atom_site_label
  _atom_site_symmetry_multiplicity
  _atom_site_fract_x
  _atom_site_fract_y
  _atom_site_fract_z
  _atom_site_occupancy
  Ba  Ba1       1.0  0.39400  0.80600  0.05570  1.0000
  Ba  Ba2       1.0  0.89300  0.79600  0.05770  1.0000
  Ba  Ba3       1.0  0.60700  0.29600  0.44200  1.0000
  Ba  Ba4       1.0  0.10600  0.30600  0.44400  1.0000
  Ba  Ba5       1.0  0.89400  0.69400  0.55600  1.0000
  Ba  Ba6       1.0  0.39300  0.70400  0.55800  1.0000
  Ba  Ba7       1.0  0.10700  0.20400  0.94200  1.0000
  Ba  Ba8       1.0  0.60600  0.19400  0.94400  1.0000
  Sb  Sb1       1.0  0.88100  0.38800  0.00729  1.0000
  Sb  Sb2       1.0  0.35700  0.38000  0.01670  1.0000
  Sb  Sb3       1.0  0.64400  0.00691  0.15900  1.0000
  Sb  Sb4       1.0  0.09430  0.03290  0.19600  1.0000
  Sb  Sb5       1.0  0.40600  0.53300  0.30400  1.0000
  Sb  Sb6       1.0  0.85600  0.50700  0.34100  1.0000
  Sb  Sb7       1.0  0.14300  0.88000  0.48300  1.0000
  Sb  Sb8       1.0  0.61900  0.88800  0.49300  1.0000
  Sb  Sb9       1.0  0.38100  0.11200  0.50700  1.0000
  Sb  Sb10      1.0  0.85700  0.12000  0.51700  1.0000
  Sb  Sb11      1.0  0.14400  0.49300  0.65900  1.0000
  Sb  Sb12      1.0  0.59400  0.46700  0.69600  1.0000
  Sb  Sb13      1.0  0.90600  0.96700  0.80400  1.0000
  Sb  Sb14      1.0  0.35600  0.99300  0.84100  1.0000
  Sb  Sb15      1.0  0.64300  0.62000  0.98300  1.0000
  Sb  Sb16      1.0  0.11900  0.61200  0.99300  1.0000
  Se  Se1       1.0  0.89500  0.07570  0.00088  1.0000
  Se  Se2       1.0  0.32500  0.08640  0.05220  1.0000
  Se  Se3       1.0  0.66200  0.46600  0.14500  1.0000
  Se  Se4       1.0  0.85700  0.28100  0.15400  1.0000
  Se  Se5       1.0  0.42500  0.65300  0.16100  1.0000
  Se  Se6       1.0  0.35600  0.27200  0.16800  1.0000
  Se  Se7       1.0  0.86300  0.64500  0.17100  1.0000
  Se  Se8       1.0  0.07300  0.43900  0.20800  1.0000
  Se  Se9       1.0  0.42700  0.93900  0.29200  1.0000
  Se  Se10      1.0  0.63700  0.14500  0.32900  1.0000
  Se  Se11      1.0  0.14400  0.77200  0.33200  1.0000
  Se  Se12      1.0  0.07540  0.15300  0.33900  1.0000
  Se  Se13      1.0  0.64300  0.78100  0.34600  1.0000
  Se  Se14      1.0  0.83800  0.96600  0.35500  1.0000
  Se  Se15      1.0  0.17500  0.58600  0.44800  1.0000
  Se  Se16      1.0  0.60500  0.57600  0.49900  1.0000
  Se  Se17      1.0  0.39500  0.42400  0.50100  1.0000
  Se  Se18      1.0  0.82500  0.41400  0.55200  1.0000
  Se  Se19      1.0  0.16200  0.03440  0.64500  1.0000
  Se  Se20      1.0  0.35700  0.21900  0.65400  1.0000
  Se  Se21      1.0  0.92500  0.84700  0.66100  1.0000
  Se  Se22      1.0  0.85600  0.22800  0.66800  1.0000
  Se  Se23      1.0  0.36300  0.85500  0.67100  1.0000
  Se  Se24      1.0  0.57300  0.06060  0.70800  1.0000
  Se  Se25      1.0  0.92700  0.56100  0.79200  1.0000
  Se  Se26      1.0  0.13700  0.35500  0.82900  1.0000
  Se  Se27      1.0  0.64400  0.72800  0.83200  1.0000
  Se  Se28      1.0  0.57500  0.34700  0.83900  1.0000
  Se  Se29      1.0  0.14300  0.71900  0.84600  1.0000
  Se  Se30      1.0  0.33800  0.53400  0.85500  1.0000
  Se  Se31      1.0  0.67500  0.91400  0.94800  1.0000
  Se  Se32      1.0  0.10500  0.92400  0.99900  1.0000
