data_image0
_chemical_formula_structural       Al16Be4Mg4O32
_chemical_formula_sum              "Al16 Be4 Mg4 O32"
_cell_length_a       5.61896
_cell_length_b       5.61896
_cell_length_c       18.1778
_cell_angle_alpha    90
_cell_angle_beta     90
_cell_angle_gamma    120

_space_group_name_H-M_alt    "P 1"
_space_group_IT_number       1

loop_
  _space_group_symop_operation_xyz
  'x, y, z'

loop_
  _atom_site_type_symbol
  _atom_site_label
  _atom_site_symmetry_multiplicity
  _atom_site_fract_x
  _atom_site_fract_y
  _atom_site_fract_z
  _atom_site_occupancy
  Al  Al1       1.0  0.50100  0.00286  0.06240  1.0000
  Al  Al2       1.0  0.50100  0.49900  0.06240  1.0000
  Al  Al3       1.0  0.99700  0.49900  0.06240  1.0000
  Al  Al4       1.0  0.66700  0.33300  0.18700  1.0000
  Al  Al5       1.0  0.32700  0.16300  0.31300  1.0000
  Al  Al6       1.0  0.83700  0.16300  0.31300  1.0000
  Al  Al7       1.0  0.83700  0.67300  0.31300  1.0000
  Al  Al8       1.0  0.00000  0.00000  0.44700  1.0000
  Al  Al9       1.0  0.00286  0.50100  0.56200  1.0000
  Al  Al10      1.0  0.49900  0.50100  0.56200  1.0000
  Al  Al11      1.0  0.49900  0.99700  0.56200  1.0000
  Al  Al12      1.0  0.33300  0.66700  0.68700  1.0000
  Al  Al13      1.0  0.16300  0.32700  0.81300  1.0000
  Al  Al14      1.0  0.16300  0.83700  0.81300  1.0000
  Al  Al15      1.0  0.67300  0.83700  0.81300  1.0000
  Al  Al16      1.0  0.00000  0.00000  0.94700  1.0000
  Be  Be1       1.0  0.33300  0.66700  0.21800  1.0000
  Be  Be2       1.0  0.66700  0.33300  0.45500  1.0000
  Be  Be3       1.0  0.66700  0.33300  0.71800  1.0000
  Be  Be4       1.0  0.33300  0.66700  0.95500  1.0000
  Mg  Mg1       1.0  0.00000  0.00000  0.15500  1.0000
  Mg  Mg2       1.0  0.33300  0.66700  0.40500  1.0000
  Mg  Mg3       1.0  0.00000  0.00000  0.65500  1.0000
  Mg  Mg4       1.0  0.66700  0.33300  0.90500  1.0000
  O   O1        1.0  0.66700  0.33300  0.00916  1.0000
  O   O2        1.0  0.36700  0.18400  0.12200  1.0000
  O   O3        1.0  0.81600  0.18400  0.12200  1.0000
  O   O4        1.0  0.81600  0.63300  0.12200  1.0000
  O   O5        1.0  0.33300  0.66700  0.12200  1.0000
  O   O6        1.0  0.50600  0.49400  0.25200  1.0000
  O   O7        1.0  0.98800  0.49400  0.25200  1.0000
  O   O8        1.0  0.50600  0.01170  0.25200  1.0000
  O   O9        1.0  0.00000  0.00000  0.26000  1.0000
  O   O10       1.0  0.66700  0.33300  0.36700  1.0000
  O   O11       1.0  0.14800  0.29600  0.37500  1.0000
  O   O12       1.0  0.14800  0.85200  0.37500  1.0000
  O   O13       1.0  0.70400  0.85200  0.37500  1.0000
  O   O14       1.0  0.35900  0.18000  0.50000  1.0000
  O   O15       1.0  0.82000  0.18000  0.50000  1.0000
  O   O16       1.0  0.82000  0.64100  0.50000  1.0000
  O   O17       1.0  0.33300  0.66700  0.50900  1.0000
  O   O18       1.0  0.18400  0.81600  0.62200  1.0000
  O   O19       1.0  0.63300  0.81600  0.62200  1.0000
  O   O20       1.0  0.18400  0.36700  0.62200  1.0000
  O   O21       1.0  0.66700  0.33300  0.62200  1.0000
  O   O22       1.0  0.01170  0.50600  0.75200  1.0000
  O   O23       1.0  0.49400  0.50600  0.75200  1.0000
  O   O24       1.0  0.49400  0.98800  0.75200  1.0000
  O   O25       1.0  0.00000  0.00000  0.76000  1.0000
  O   O26       1.0  0.33300  0.66700  0.86700  1.0000
  O   O27       1.0  0.85200  0.70400  0.87500  1.0000
  O   O28       1.0  0.29600  0.14800  0.87500  1.0000
  O   O29       1.0  0.85200  0.14800  0.87500  1.0000
  O   O30       1.0  0.18000  0.82000  0.00000  1.0000
  O   O31       1.0  0.64100  0.82000  0.00000  1.0000
  O   O32       1.0  0.18000  0.35900  0.00000  1.0000
