data_image0
_chemical_formula_structural       As8Br4La12O28
_chemical_formula_sum              "As8 Br4 La12 O28"
_cell_length_a       12.9534
_cell_length_b       12.9534
_cell_length_c       5.597
_cell_angle_alpha    90
_cell_angle_beta     90
_cell_angle_gamma    90

_space_group_name_H-M_alt    "P 1"
_space_group_IT_number       1

loop_
  _space_group_symop_operation_xyz
  'x, y, z'

loop_
  _atom_site_type_symbol
  _atom_site_label
  _atom_site_symmetry_multiplicity
  _atom_site_fract_x
  _atom_site_fract_y
  _atom_site_fract_z
  _atom_site_occupancy
  As  As1       1.0  0.79200  0.02590  0.00000  1.0000
  As  As2       1.0  0.97400  0.20800  0.00000  1.0000
  As  As3       1.0  0.02590  0.79200  0.00000  1.0000
  As  As4       1.0  0.20800  0.97400  0.00000  1.0000
  As  As5       1.0  0.47400  0.29200  0.50000  1.0000
  As  As6       1.0  0.29200  0.47400  0.50000  1.0000
  As  As7       1.0  0.70800  0.52600  0.50000  1.0000
  As  As8       1.0  0.52600  0.70800  0.50000  1.0000
  Br  Br1       1.0  0.64000  0.36000  0.00000  1.0000
  Br  Br2       1.0  0.36000  0.64000  0.00000  1.0000
  Br  Br3       1.0  0.14000  0.14000  0.50000  1.0000
  Br  Br4       1.0  0.86000  0.86000  0.50000  1.0000
  La  La1       1.0  0.54800  0.13800  0.00000  1.0000
  La  La2       1.0  0.26400  0.26400  0.00000  1.0000
  La  La3       1.0  0.86200  0.45200  0.00000  1.0000
  La  La4       1.0  0.13800  0.54800  0.00000  1.0000
  La  La5       1.0  0.73600  0.73600  0.00000  1.0000
  La  La6       1.0  0.45200  0.86200  0.00000  1.0000
  La  La7       1.0  0.36200  0.04840  0.50000  1.0000
  La  La8       1.0  0.76400  0.23600  0.50000  1.0000
  La  La9       1.0  0.04840  0.36200  0.50000  1.0000
  La  La10      1.0  0.95200  0.63800  0.50000  1.0000
  La  La11      1.0  0.23600  0.76400  0.50000  1.0000
  La  La12      1.0  0.63800  0.95200  0.50000  1.0000
  O   O1        1.0  0.29200  0.08290  0.00000  1.0000
  O   O2        1.0  0.08290  0.29200  0.00000  1.0000
  O   O3        1.0  0.91700  0.70800  0.00000  1.0000
  O   O4        1.0  0.70800  0.91700  0.00000  1.0000
  O   O5        1.0  0.72200  0.09200  0.23700  1.0000
  O   O6        1.0  0.90800  0.27800  0.23700  1.0000
  O   O7        1.0  0.09200  0.72200  0.23700  1.0000
  O   O8        1.0  0.27800  0.90800  0.23700  1.0000
  O   O9        1.0  0.50000  0.00000  0.25000  1.0000
  O   O10       1.0  0.00000  0.50000  0.25000  1.0000
  O   O11       1.0  0.40800  0.22200  0.26300  1.0000
  O   O12       1.0  0.22200  0.40800  0.26300  1.0000
  O   O13       1.0  0.77800  0.59200  0.26300  1.0000
  O   O14       1.0  0.59200  0.77800  0.26300  1.0000
  O   O15       1.0  0.58300  0.20800  0.50000  1.0000
  O   O16       1.0  0.79200  0.41700  0.50000  1.0000
  O   O17       1.0  0.20800  0.58300  0.50000  1.0000
  O   O18       1.0  0.41700  0.79200  0.50000  1.0000
  O   O19       1.0  0.40800  0.22200  0.73700  1.0000
  O   O20       1.0  0.22200  0.40800  0.73700  1.0000
  O   O21       1.0  0.77800  0.59200  0.73700  1.0000
  O   O22       1.0  0.59200  0.77800  0.73700  1.0000
  O   O23       1.0  0.50000  0.00000  0.75000  1.0000
  O   O24       1.0  0.00000  0.50000  0.75000  1.0000
  O   O25       1.0  0.72200  0.09200  0.76300  1.0000
  O   O26       1.0  0.90800  0.27800  0.76300  1.0000
  O   O27       1.0  0.09200  0.72200  0.76300  1.0000
  O   O28       1.0  0.27800  0.90800  0.76300  1.0000
