data_image0
_chemical_formula_structural       O36Ta8Th8
_chemical_formula_sum              "O36 Ta8 Th8"
_cell_length_a       7.44393
_cell_length_b       9.72221
_cell_length_c       9.72221
_cell_angle_alpha    106.04
_cell_angle_beta     90
_cell_angle_gamma    90

_space_group_name_H-M_alt    "P 1"
_space_group_IT_number       1

loop_
  _space_group_symop_operation_xyz
  'x, y, z'

loop_
  _atom_site_type_symbol
  _atom_site_label
  _atom_site_symmetry_multiplicity
  _atom_site_fract_x
  _atom_site_fract_y
  _atom_site_fract_z
  _atom_site_occupancy
  O   O1        1.0  0.30200  0.34600  0.01860  1.0000
  O   O2        1.0  0.25000  0.96900  0.03080  1.0000
  O   O3        1.0  0.71800  0.33200  0.03570  1.0000
  O   O4        1.0  0.53700  0.85200  0.10100  1.0000
  O   O5        1.0  0.49900  0.58400  0.10900  1.0000
  O   O6        1.0  0.96300  0.89900  0.14800  1.0000
  O   O7        1.0  0.00000  0.17300  0.17300  1.0000
  O   O8        1.0  0.50000  0.18300  0.18300  1.0000
  O   O9        1.0  0.02610  0.62900  0.21500  1.0000
  O   O10       1.0  0.70000  0.49500  0.29200  1.0000
  O   O11       1.0  0.32100  0.45300  0.30300  1.0000
  O   O12       1.0  0.28200  0.03570  0.33200  1.0000
  O   O13       1.0  0.69800  0.01860  0.34600  1.0000
  O   O14       1.0  0.47400  0.78500  0.37100  1.0000
  O   O15       1.0  0.00126  0.89100  0.41600  1.0000
  O   O16       1.0  0.00000  0.43100  0.43100  1.0000
  O   O17       1.0  0.67900  0.30300  0.45300  1.0000
  O   O18       1.0  0.30000  0.29200  0.49500  1.0000
  O   O19       1.0  0.80000  0.70800  0.50500  1.0000
  O   O20       1.0  0.17900  0.69700  0.54700  1.0000
  O   O21       1.0  0.50000  0.56900  0.56900  1.0000
  O   O22       1.0  0.50100  0.10900  0.58400  1.0000
  O   O23       1.0  0.97400  0.21500  0.62900  1.0000
  O   O24       1.0  0.19800  0.98100  0.65400  1.0000
  O   O25       1.0  0.78200  0.96400  0.66800  1.0000
  O   O26       1.0  0.82100  0.54700  0.69700  1.0000
  O   O27       1.0  0.20000  0.50500  0.70800  1.0000
  O   O28       1.0  0.52600  0.37100  0.78500  1.0000
  O   O29       1.0  0.00000  0.81700  0.81700  1.0000
  O   O30       1.0  0.50000  0.82700  0.82700  1.0000
  O   O31       1.0  0.46300  0.10100  0.85200  1.0000
  O   O32       1.0  0.99900  0.41600  0.89100  1.0000
  O   O33       1.0  0.03720  0.14800  0.89900  1.0000
  O   O34       1.0  0.21800  0.66800  0.96400  1.0000
  O   O35       1.0  0.75000  0.03080  0.96900  1.0000
  O   O36       1.0  0.80200  0.65400  0.98100  1.0000
  Ta  Ta1       1.0  0.50000  0.00683  0.00683  1.0000
  Ta  Ta2       1.0  0.50300  0.39700  0.14600  1.0000
  Ta  Ta3       1.0  0.49700  0.14600  0.39700  1.0000
  Ta  Ta4       1.0  0.75000  0.50600  0.49400  1.0000
  Ta  Ta5       1.0  0.25000  0.49400  0.50600  1.0000
  Ta  Ta6       1.0  0.99700  0.85400  0.60300  1.0000
  Ta  Ta7       1.0  0.00289  0.60300  0.85400  1.0000
  Ta  Ta8       1.0  0.00000  0.99300  0.99300  1.0000
  Th  Th1       1.0  0.01680  0.39000  0.13200  1.0000
  Th  Th2       1.0  0.25000  0.79400  0.20600  1.0000
  Th  Th3       1.0  0.75000  0.75600  0.24400  1.0000
  Th  Th4       1.0  0.98300  0.13200  0.39000  1.0000
  Th  Th5       1.0  0.48300  0.86800  0.61000  1.0000
  Th  Th6       1.0  0.25000  0.24400  0.75600  1.0000
  Th  Th7       1.0  0.75000  0.20600  0.79400  1.0000
  Th  Th8       1.0  0.51700  0.61000  0.86800  1.0000
