data_image0
_chemical_formula_structural       H32N14Se6Sn2
_chemical_formula_sum              "H32 N14 Se6 Sn2"
_cell_length_a       6.3672
_cell_length_b       9.47342
_cell_length_c       9.59553
_cell_angle_alpha    93.0127
_cell_angle_beta     98.7704
_cell_angle_gamma    103.186

_space_group_name_H-M_alt    "P 1"
_space_group_IT_number       1

loop_
  _space_group_symop_operation_xyz
  'x, y, z'

loop_
  _atom_site_type_symbol
  _atom_site_label
  _atom_site_symmetry_multiplicity
  _atom_site_fract_x
  _atom_site_fract_y
  _atom_site_fract_z
  _atom_site_occupancy
  H   H1        1.0  0.82000  0.89000  0.02070  1.0000
  H   H2        1.0  0.34800  0.65600  0.03090  1.0000
  H   H3        1.0  0.77300  0.11500  0.03500  1.0000
  H   H4        1.0  0.47600  0.30200  0.07750  1.0000
  H   H5        1.0  0.92300  0.68900  0.10200  1.0000
  H   H6        1.0  0.13500  0.04970  0.13300  1.0000
  H   H7        1.0  0.85800  0.27500  0.14600  1.0000
  H   H8        1.0  0.64400  0.13400  0.17600  1.0000
  H   H9        1.0  0.52900  0.83200  0.19000  1.0000
  H   H10       1.0  0.75900  0.65300  0.21500  1.0000
  H   H11       1.0  0.31000  0.82700  0.28600  1.0000
  H   H12       1.0  0.08450  0.65000  0.33000  1.0000
  H   H13       1.0  0.44800  0.05980  0.36000  1.0000
  H   H14       1.0  0.57900  0.82400  0.37000  1.0000
  H   H15       1.0  0.71300  0.04940  0.37600  1.0000
  H   H16       1.0  0.02960  0.80200  0.39000  1.0000
  H   H17       1.0  0.97000  0.19800  0.61000  1.0000
  H   H18       1.0  0.28700  0.95100  0.62400  1.0000
  H   H19       1.0  0.42100  0.17600  0.63000  1.0000
  H   H20       1.0  0.55200  0.94000  0.64000  1.0000
  H   H21       1.0  0.91600  0.35000  0.67000  1.0000
  H   H22       1.0  0.69000  0.17300  0.71400  1.0000
  H   H23       1.0  0.24100  0.34700  0.78500  1.0000
  H   H24       1.0  0.47100  0.16800  0.81000  1.0000
  H   H25       1.0  0.35600  0.86600  0.82400  1.0000
  H   H26       1.0  0.14200  0.72500  0.85400  1.0000
  H   H27       1.0  0.86500  0.95000  0.86700  1.0000
  H   H28       1.0  0.07750  0.31100  0.89800  1.0000
  H   H29       1.0  0.52400  0.69800  0.92200  1.0000
  H   H30       1.0  0.22700  0.88500  0.96500  1.0000
  H   H31       1.0  0.65200  0.34400  0.96900  1.0000
  H   H32       1.0  0.18000  0.11000  0.97900  1.0000
  N   N1        1.0  0.56200  0.25500  0.01180  1.0000
  N   N2        1.0  0.11800  0.01830  0.02670  1.0000
  N   N3        1.0  0.71800  0.19400  0.09840  1.0000
  N   N4        1.0  0.88200  0.73500  0.19100  1.0000
  N   N5        1.0  0.49300  0.86700  0.28700  1.0000
  N   N6        1.0  0.06850  0.75200  0.30200  1.0000
  N   N7        1.0  0.56300  0.02400  0.30900  1.0000
  N   N8        1.0  0.43700  0.97600  0.69100  1.0000
  N   N9        1.0  0.93200  0.24800  0.69800  1.0000
  N   N10       1.0  0.50700  0.13300  0.71300  1.0000
  N   N11       1.0  0.11800  0.26500  0.80900  1.0000
  N   N12       1.0  0.28200  0.80600  0.90200  1.0000
  N   N13       1.0  0.88200  0.98200  0.97300  1.0000
  N   N14       1.0  0.43800  0.74500  0.98800  1.0000
  Se  Se1       1.0  0.17600  0.45300  0.13400  1.0000
  Se  Se2       1.0  0.13600  0.12600  0.41200  1.0000
  Se  Se3       1.0  0.72700  0.43600  0.41700  1.0000
  Se  Se4       1.0  0.27300  0.56400  0.58300  1.0000
  Se  Se5       1.0  0.86400  0.87400  0.58800  1.0000
  Se  Se6       1.0  0.82400  0.54700  0.86600  1.0000
  Sn  Sn1       1.0  0.30000  0.38400  0.37400  1.0000
  Sn  Sn2       1.0  0.70000  0.61600  0.62600  1.0000
