data_image0
_chemical_formula_structural       F38Ga6Pb10
_chemical_formula_sum              "F38 Ga6 Pb10"
_cell_length_a       7.36193
_cell_length_b       10.4978
_cell_length_c       10.4978
_cell_angle_alpha    97.0624
_cell_angle_beta     69.4734
_cell_angle_gamma    110.527

_space_group_name_H-M_alt    "P 1"
_space_group_IT_number       1

loop_
  _space_group_symop_operation_xyz
  'x, y, z'

loop_
  _atom_site_type_symbol
  _atom_site_label
  _atom_site_symmetry_multiplicity
  _atom_site_fract_x
  _atom_site_fract_y
  _atom_site_fract_z
  _atom_site_occupancy
  F   F1        1.0  0.08070  0.00000  0.00000  1.0000
  F   F2        1.0  0.58100  0.00000  0.00000  1.0000
  F   F3        1.0  0.17200  0.50000  0.00543  1.0000
  F   F4        1.0  0.39700  0.18100  0.06180  1.0000
  F   F5        1.0  0.71600  0.81900  0.06180  1.0000
  F   F6        1.0  0.77500  0.34500  0.12600  1.0000
  F   F7        1.0  0.93100  0.65500  0.12600  1.0000
  F   F8        1.0  0.21600  0.93800  0.18100  1.0000
  F   F9        1.0  0.77700  0.06180  0.18100  1.0000
  F   F10       1.0  0.40700  0.37000  0.24600  1.0000
  F   F11       1.0  0.53800  0.63000  0.24600  1.0000
  F   F12       1.0  0.11900  0.50000  0.27100  1.0000
  F   F13       1.0  0.70400  0.50000  0.34200  1.0000
  F   F14       1.0  0.05670  0.12600  0.34500  1.0000
  F   F15       1.0  0.43100  0.87400  0.34500  1.0000
  F   F16       1.0  0.78300  0.24600  0.37000  1.0000
  F   F17       1.0  0.03780  0.75400  0.37000  1.0000
  F   F18       1.0  0.17700  0.00543  0.50000  1.0000
  F   F19       1.0  0.39000  0.27100  0.50000  1.0000
  F   F20       1.0  0.04610  0.34200  0.50000  1.0000
  F   F21       1.0  0.20400  0.65800  0.50000  1.0000
  F   F22       1.0  0.67200  0.99500  0.50000  1.0000
  F   F23       1.0  0.61900  0.72900  0.50000  1.0000
  F   F24       1.0  0.65300  0.24600  0.63000  1.0000
  F   F25       1.0  0.90700  0.75400  0.63000  1.0000
  F   F26       1.0  0.90200  0.12600  0.65500  1.0000
  F   F27       1.0  0.27500  0.87400  0.65500  1.0000
  F   F28       1.0  0.54600  0.50000  0.65800  1.0000
  F   F29       1.0  0.89000  0.50000  0.72900  1.0000
  F   F30       1.0  0.15300  0.37000  0.75400  1.0000
  F   F31       1.0  0.28300  0.63000  0.75400  1.0000
  F   F32       1.0  0.89700  0.93800  0.81900  1.0000
  F   F33       1.0  0.45900  0.06180  0.81900  1.0000
  F   F34       1.0  0.40200  0.34500  0.87400  1.0000
  F   F35       1.0  0.55700  0.65500  0.87400  1.0000
  F   F36       1.0  0.95900  0.18100  0.93800  1.0000
  F   F37       1.0  0.27700  0.81900  0.93800  1.0000
  F   F38       1.0  0.67700  0.50000  0.99500  1.0000
  Ga  Ga1       1.0  0.32800  0.00000  0.00000  1.0000
  Ga  Ga2       1.0  0.82800  0.00000  0.00000  1.0000
  Ga  Ga3       1.0  0.68400  0.50000  0.16900  1.0000
  Ga  Ga4       1.0  0.18400  0.83100  0.50000  1.0000
  Ga  Ga5       1.0  0.85300  0.16900  0.50000  1.0000
  Ga  Ga6       1.0  0.35300  0.50000  0.83100  1.0000
  Pb  Pb1       1.0  0.29300  0.70500  0.15200  1.0000
  Pb  Pb2       1.0  0.08790  0.29500  0.15200  1.0000
  Pb  Pb3       1.0  0.79300  0.84800  0.29500  1.0000
  Pb  Pb4       1.0  0.44600  0.15200  0.29500  1.0000
  Pb  Pb5       1.0  0.37000  0.50000  0.50000  1.0000
  Pb  Pb6       1.0  0.87000  0.50000  0.50000  1.0000
  Pb  Pb7       1.0  0.24000  0.15200  0.70500  1.0000
  Pb  Pb8       1.0  0.58800  0.84800  0.70500  1.0000
  Pb  Pb9       1.0  0.94600  0.70500  0.84800  1.0000
  Pb  Pb10      1.0  0.74000  0.29500  0.84800  1.0000
