data_image0
_chemical_formula_structural       B20H26K4O4
_chemical_formula_sum              "B20 H26 K4 O4"
_cell_length_a       6.98163
_cell_length_b       7.6171
_cell_length_c       10.4996
_cell_angle_alpha    103.381
_cell_angle_beta     89.9753
_cell_angle_gamma    97.4594

_space_group_name_H-M_alt    "P 1"
_space_group_IT_number       1

loop_
  _space_group_symop_operation_xyz
  'x, y, z'

loop_
  _atom_site_type_symbol
  _atom_site_label
  _atom_site_symmetry_multiplicity
  _atom_site_fract_x
  _atom_site_fract_y
  _atom_site_fract_z
  _atom_site_occupancy
  B   B1        1.0  0.04910  0.58500  0.06300  1.0000
  B   B2        1.0  0.13200  0.81000  0.07080  1.0000
  B   B3        1.0  0.28500  0.65900  0.11700  1.0000
  B   B4        1.0  0.94900  0.74400  0.18000  1.0000
  B   B5        1.0  0.33800  0.89900  0.18200  1.0000
  B   B6        1.0  0.10300  0.59200  0.22500  1.0000
  B   B7        1.0  0.09880  0.96100  0.22600  1.0000
  B   B8        1.0  0.31700  0.74700  0.29200  1.0000
  B   B9        1.0  0.07630  0.80700  0.33600  1.0000
  B   B10       1.0  0.27200  0.96700  0.34000  1.0000
  B   B11       1.0  0.72800  0.03290  0.66000  1.0000
  B   B12       1.0  0.92400  0.19300  0.66400  1.0000
  B   B13       1.0  0.68300  0.25300  0.70800  1.0000
  B   B14       1.0  0.90100  0.03870  0.77400  1.0000
  B   B15       1.0  0.89700  0.40800  0.77500  1.0000
  B   B16       1.0  0.66200  0.10100  0.81800  1.0000
  B   B17       1.0  0.05150  0.25600  0.82000  1.0000
  B   B18       1.0  0.71500  0.34100  0.88300  1.0000
  B   B19       1.0  0.86800  0.19000  0.92900  1.0000
  B   B20       1.0  0.95100  0.41500  0.93700  1.0000
  H   H1        1.0  0.87800  0.13200  0.02630  1.0000
  H   H2        1.0  0.41300  0.58400  0.06170  1.0000
  H   H3        1.0  0.47600  0.98000  0.14200  1.0000
  H   H4        1.0  0.73000  0.38200  0.15600  1.0000
  H   H5        1.0  0.77500  0.74100  0.18100  1.0000
  H   H6        1.0  0.02970  0.09810  0.22500  1.0000
  H   H7        1.0  0.06660  0.45400  0.26400  1.0000
  H   H8        1.0  0.65600  0.41700  0.29800  1.0000
  H   H9        1.0  0.43800  0.69200  0.35000  1.0000
  H   H10       1.0  0.34000  0.09200  0.42700  1.0000
  H   H11       1.0  0.98300  0.80900  0.43300  1.0000
  H   H12       1.0  0.25100  0.52700  0.44200  1.0000
  H   H13       1.0  0.87300  0.56600  0.46100  1.0000
  H   H14       1.0  0.12700  0.43400  0.53900  1.0000
  H   H15       1.0  0.74900  0.47300  0.55800  1.0000
  H   H16       1.0  0.01710  0.19100  0.56700  1.0000
  H   H17       1.0  0.66000  0.90800  0.57300  1.0000
  H   H18       1.0  0.56200  0.30800  0.65000  1.0000
  H   H19       1.0  0.34400  0.58300  0.70200  1.0000
  H   H20       1.0  0.93300  0.54600  0.73600  1.0000
  H   H21       1.0  0.97000  0.90200  0.77500  1.0000
  H   H22       1.0  0.22500  0.25900  0.81900  1.0000
  H   H23       1.0  0.27000  0.61800  0.84400  1.0000
  H   H24       1.0  0.52400  0.02040  0.85800  1.0000
  H   H25       1.0  0.58700  0.41600  0.93800  1.0000
  H   H26       1.0  0.12200  0.86800  0.97400  1.0000
  K   K1        1.0  0.29500  0.24200  0.06770  1.0000
  K   K2        1.0  0.72100  0.08040  0.36300  1.0000
  K   K3        1.0  0.27900  0.92000  0.63700  1.0000
  K   K4        1.0  0.70500  0.75800  0.93200  1.0000
  O   O1        1.0  0.63000  0.33700  0.21000  1.0000
  O   O2        1.0  0.77500  0.46400  0.46500  1.0000
  O   O3        1.0  0.22500  0.53600  0.53500  1.0000
  O   O4        1.0  0.37000  0.66300  0.79000  1.0000
