data_image0
_chemical_formula_structural       Fe8O36Te12
_chemical_formula_sum              "Fe8 O36 Te12"
_cell_length_a       9.38334
_cell_length_b       7.45787
_cell_length_c       10.917
_cell_angle_alpha    90
_cell_angle_beta     90
_cell_angle_gamma    90

_space_group_name_H-M_alt    "P 1"
_space_group_IT_number       1

loop_
  _space_group_symop_operation_xyz
  'x, y, z'

loop_
  _atom_site_type_symbol
  _atom_site_label
  _atom_site_symmetry_multiplicity
  _atom_site_fract_x
  _atom_site_fract_y
  _atom_site_fract_z
  _atom_site_occupancy
  Fe  Fe1       1.0  0.22300  0.55500  0.06430  1.0000
  Fe  Fe2       1.0  0.22300  0.94500  0.06430  1.0000
  Fe  Fe3       1.0  0.72300  0.55500  0.43600  1.0000
  Fe  Fe4       1.0  0.72300  0.94500  0.43600  1.0000
  Fe  Fe5       1.0  0.27700  0.05520  0.56400  1.0000
  Fe  Fe6       1.0  0.27700  0.44500  0.56400  1.0000
  Fe  Fe7       1.0  0.77700  0.05520  0.93600  1.0000
  Fe  Fe8       1.0  0.77700  0.44500  0.93600  1.0000
  O   O1        1.0  0.07160  0.75000  0.01100  1.0000
  O   O2        1.0  0.65700  0.25000  0.03840  1.0000
  O   O3        1.0  0.80300  0.56200  0.09380  1.0000
  O   O4        1.0  0.80300  0.93800  0.09380  1.0000
  O   O5        1.0  0.40600  0.06460  0.09900  1.0000
  O   O6        1.0  0.40600  0.43500  0.09900  1.0000
  O   O7        1.0  0.08970  0.06240  0.16900  1.0000
  O   O8        1.0  0.08970  0.43800  0.16900  1.0000
  O   O9        1.0  0.25700  0.75000  0.19300  1.0000
  O   O10       1.0  0.75700  0.75000  0.30700  1.0000
  O   O11       1.0  0.59000  0.06240  0.33100  1.0000
  O   O12       1.0  0.59000  0.43800  0.33100  1.0000
  O   O13       1.0  0.90600  0.06460  0.40100  1.0000
  O   O14       1.0  0.90600  0.43500  0.40100  1.0000
  O   O15       1.0  0.30300  0.56200  0.40600  1.0000
  O   O16       1.0  0.30300  0.93800  0.40600  1.0000
  O   O17       1.0  0.15700  0.25000  0.46200  1.0000
  O   O18       1.0  0.57200  0.75000  0.48900  1.0000
  O   O19       1.0  0.42800  0.25000  0.51100  1.0000
  O   O20       1.0  0.84300  0.75000  0.53800  1.0000
  O   O21       1.0  0.69700  0.06170  0.59400  1.0000
  O   O22       1.0  0.69700  0.43800  0.59400  1.0000
  O   O23       1.0  0.09410  0.56500  0.59900  1.0000
  O   O24       1.0  0.09410  0.93500  0.59900  1.0000
  O   O25       1.0  0.41000  0.56200  0.66900  1.0000
  O   O26       1.0  0.41000  0.93800  0.66900  1.0000
  O   O27       1.0  0.24300  0.25000  0.69300  1.0000
  O   O28       1.0  0.74300  0.25000  0.80700  1.0000
  O   O29       1.0  0.91000  0.56200  0.83100  1.0000
  O   O30       1.0  0.91000  0.93800  0.83100  1.0000
  O   O31       1.0  0.59400  0.56500  0.90100  1.0000
  O   O32       1.0  0.59400  0.93500  0.90100  1.0000
  O   O33       1.0  0.19700  0.06170  0.90600  1.0000
  O   O34       1.0  0.19700  0.43800  0.90600  1.0000
  O   O35       1.0  0.34300  0.75000  0.96200  1.0000
  O   O36       1.0  0.92800  0.25000  0.98900  1.0000
  Te  Te1       1.0  0.53700  0.75000  0.01330  1.0000
  Te  Te2       1.0  0.95400  0.25000  0.16900  1.0000
  Te  Te3       1.0  0.90000  0.75000  0.17600  1.0000
  Te  Te4       1.0  0.40000  0.75000  0.32400  1.0000
  Te  Te5       1.0  0.45400  0.25000  0.33100  1.0000
  Te  Te6       1.0  0.03690  0.75000  0.48700  1.0000
  Te  Te7       1.0  0.96300  0.25000  0.51300  1.0000
  Te  Te8       1.0  0.54600  0.75000  0.66900  1.0000
  Te  Te9       1.0  0.60000  0.25000  0.67600  1.0000
  Te  Te10      1.0  0.10000  0.25000  0.82400  1.0000
  Te  Te11      1.0  0.04550  0.75000  0.83100  1.0000
  Te  Te12      1.0  0.46300  0.25000  0.98700  1.0000
