data_image0
_chemical_formula_structural       As12F24S16Sb4
_chemical_formula_sum              "As12 F24 S16 Sb4"
_cell_length_a       19.9491
_cell_length_b       5.74121
_cell_length_c       9.35354
_cell_angle_alpha    90
_cell_angle_beta     90
_cell_angle_gamma    90

_space_group_name_H-M_alt    "P 1"
_space_group_IT_number       1

loop_
  _space_group_symop_operation_xyz
  'x, y, z'

loop_
  _atom_site_type_symbol
  _atom_site_label
  _atom_site_symmetry_multiplicity
  _atom_site_fract_x
  _atom_site_fract_y
  _atom_site_fract_z
  _atom_site_occupancy
  As  As1       1.0  0.17500  0.01020  0.11500  1.0000
  As  As2       1.0  0.67500  0.99000  0.11500  1.0000
  As  As3       1.0  0.00772  0.06960  0.25000  1.0000
  As  As4       1.0  0.50800  0.93000  0.25000  1.0000
  As  As5       1.0  0.17500  0.01020  0.38500  1.0000
  As  As6       1.0  0.67500  0.99000  0.38500  1.0000
  As  As7       1.0  0.32500  0.01020  0.61500  1.0000
  As  As8       1.0  0.82500  0.99000  0.61500  1.0000
  As  As9       1.0  0.49200  0.06960  0.75000  1.0000
  As  As10      1.0  0.99200  0.93000  0.75000  1.0000
  As  As11      1.0  0.32500  0.01020  0.88500  1.0000
  As  As12      1.0  0.82500  0.99000  0.88500  1.0000
  F   F1        1.0  0.89500  0.34400  0.10500  1.0000
  F   F2        1.0  0.39500  0.65700  0.10500  1.0000
  F   F3        1.0  0.28800  0.36600  0.10700  1.0000
  F   F4        1.0  0.78800  0.63400  0.10700  1.0000
  F   F5        1.0  0.78200  0.22300  0.25000  1.0000
  F   F6        1.0  0.39900  0.24400  0.25000  1.0000
  F   F7        1.0  0.89900  0.75600  0.25000  1.0000
  F   F8        1.0  0.28200  0.77700  0.25000  1.0000
  F   F9        1.0  0.28800  0.36600  0.39300  1.0000
  F   F10       1.0  0.78800  0.63400  0.39300  1.0000
  F   F11       1.0  0.89500  0.34400  0.39500  1.0000
  F   F12       1.0  0.39500  0.65700  0.39500  1.0000
  F   F13       1.0  0.60500  0.34400  0.60500  1.0000
  F   F14       1.0  0.10500  0.65700  0.60500  1.0000
  F   F15       1.0  0.21200  0.36600  0.60700  1.0000
  F   F16       1.0  0.71200  0.63400  0.60700  1.0000
  F   F17       1.0  0.71800  0.22300  0.75000  1.0000
  F   F18       1.0  0.10100  0.24400  0.75000  1.0000
  F   F19       1.0  0.60100  0.75600  0.75000  1.0000
  F   F20       1.0  0.21800  0.77700  0.75000  1.0000
  F   F21       1.0  0.21200  0.36600  0.89300  1.0000
  F   F22       1.0  0.71200  0.63400  0.89300  1.0000
  F   F23       1.0  0.60500  0.34400  0.89500  1.0000
  F   F24       1.0  0.10500  0.65700  0.89500  1.0000
  S   S1        1.0  0.07600  0.16100  0.06580  1.0000
  S   S2        1.0  0.57600  0.83900  0.06580  1.0000
  S   S3        1.0  0.53600  0.31900  0.25000  1.0000
  S   S4        1.0  0.63700  0.32100  0.25000  1.0000
  S   S5        1.0  0.13700  0.67900  0.25000  1.0000
  S   S6        1.0  0.03590  0.68100  0.25000  1.0000
  S   S7        1.0  0.07600  0.16100  0.43400  1.0000
  S   S8        1.0  0.57600  0.83900  0.43400  1.0000
  S   S9        1.0  0.42400  0.16100  0.56600  1.0000
  S   S10       1.0  0.92400  0.83900  0.56600  1.0000
  S   S11       1.0  0.96400  0.31900  0.75000  1.0000
  S   S12       1.0  0.86300  0.32100  0.75000  1.0000
  S   S13       1.0  0.36300  0.67900  0.75000  1.0000
  S   S14       1.0  0.46400  0.68100  0.75000  1.0000
  S   S15       1.0  0.42400  0.16100  0.93400  1.0000
  S   S16       1.0  0.92400  0.83900  0.93400  1.0000
  Sb  Sb1       1.0  0.84200  0.48800  0.25000  1.0000
  Sb  Sb2       1.0  0.34200  0.51200  0.25000  1.0000
  Sb  Sb3       1.0  0.65800  0.48800  0.75000  1.0000
  Sb  Sb4       1.0  0.15800  0.51200  0.75000  1.0000
