data_image0
_chemical_formula_structural       Mo32P24
_chemical_formula_sum              "Mo32 P24"
_cell_length_a       12.4962
_cell_length_b       3.16358
_cell_length_c       20.5228
_cell_angle_alpha    90
_cell_angle_beta     90
_cell_angle_gamma    90

_space_group_name_H-M_alt    "P 1"
_space_group_IT_number       1

loop_
  _space_group_symop_operation_xyz
  'x, y, z'

loop_
  _atom_site_type_symbol
  _atom_site_label
  _atom_site_symmetry_multiplicity
  _atom_site_fract_x
  _atom_site_fract_y
  _atom_site_fract_z
  _atom_site_occupancy
  Mo  Mo1       1.0  0.09890  0.75000  0.02720  1.0000
  Mo  Mo2       1.0  0.59500  0.25000  0.03360  1.0000
  Mo  Mo3       1.0  0.29700  0.25000  0.08410  1.0000
  Mo  Mo4       1.0  0.79800  0.25000  0.11400  1.0000
  Mo  Mo5       1.0  0.61500  0.75000  0.14700  1.0000
  Mo  Mo6       1.0  0.99100  0.75000  0.17200  1.0000
  Mo  Mo7       1.0  0.38000  0.75000  0.18900  1.0000
  Mo  Mo8       1.0  0.19400  0.25000  0.22700  1.0000
  Mo  Mo9       1.0  0.69400  0.25000  0.27300  1.0000
  Mo  Mo10      1.0  0.88000  0.75000  0.31100  1.0000
  Mo  Mo11      1.0  0.49100  0.75000  0.32800  1.0000
  Mo  Mo12      1.0  0.11500  0.75000  0.35300  1.0000
  Mo  Mo13      1.0  0.29800  0.25000  0.38600  1.0000
  Mo  Mo14      1.0  0.79700  0.25000  0.41600  1.0000
  Mo  Mo15      1.0  0.09500  0.25000  0.46600  1.0000
  Mo  Mo16      1.0  0.59900  0.75000  0.47300  1.0000
  Mo  Mo17      1.0  0.40100  0.25000  0.52700  1.0000
  Mo  Mo18      1.0  0.90500  0.75000  0.53400  1.0000
  Mo  Mo19      1.0  0.20300  0.75000  0.58400  1.0000
  Mo  Mo20      1.0  0.70200  0.75000  0.61400  1.0000
  Mo  Mo21      1.0  0.88500  0.25000  0.64700  1.0000
  Mo  Mo22      1.0  0.50900  0.25000  0.67200  1.0000
  Mo  Mo23      1.0  0.12000  0.25000  0.68900  1.0000
  Mo  Mo24      1.0  0.30600  0.75000  0.72700  1.0000
  Mo  Mo25      1.0  0.80600  0.75000  0.77300  1.0000
  Mo  Mo26      1.0  0.62000  0.25000  0.81100  1.0000
  Mo  Mo27      1.0  0.00921  0.25000  0.82800  1.0000
  Mo  Mo28      1.0  0.38500  0.25000  0.85300  1.0000
  Mo  Mo29      1.0  0.20200  0.75000  0.88600  1.0000
  Mo  Mo30      1.0  0.70300  0.75000  0.91600  1.0000
  Mo  Mo31      1.0  0.40500  0.75000  0.96600  1.0000
  Mo  Mo32      1.0  0.90100  0.25000  0.97300  1.0000
  P   P1        1.0  0.75400  0.75000  0.02770  1.0000
  P   P2        1.0  0.45800  0.75000  0.08060  1.0000
  P   P3        1.0  0.98200  0.25000  0.08100  1.0000
  P   P4        1.0  0.17900  0.75000  0.13700  1.0000
  P   P5        1.0  0.80000  0.75000  0.20500  1.0000
  P   P6        1.0  0.51600  0.25000  0.22500  1.0000
  P   P7        1.0  0.01630  0.25000  0.27500  1.0000
  P   P8        1.0  0.30000  0.75000  0.29500  1.0000
  P   P9        1.0  0.67900  0.75000  0.36300  1.0000
  P   P10       1.0  0.48200  0.25000  0.41900  1.0000
  P   P11       1.0  0.95800  0.75000  0.41900  1.0000
  P   P12       1.0  0.25400  0.75000  0.47200  1.0000
  P   P13       1.0  0.74600  0.25000  0.52800  1.0000
  P   P14       1.0  0.04150  0.25000  0.58100  1.0000
  P   P15       1.0  0.51800  0.75000  0.58100  1.0000
  P   P16       1.0  0.32100  0.25000  0.63700  1.0000
  P   P17       1.0  0.70000  0.25000  0.70500  1.0000
  P   P18       1.0  0.98400  0.75000  0.72500  1.0000
  P   P19       1.0  0.48400  0.75000  0.77500  1.0000
  P   P20       1.0  0.20000  0.25000  0.79500  1.0000
  P   P21       1.0  0.82100  0.25000  0.86300  1.0000
  P   P22       1.0  0.01800  0.75000  0.91900  1.0000
  P   P23       1.0  0.54200  0.25000  0.91900  1.0000
  P   P24       1.0  0.24600  0.25000  0.97200  1.0000
