data_image0
_chemical_formula_structural       H20N4O24P4V4
_chemical_formula_sum              "H20 N4 O24 P4 V4"
_cell_length_a       6.75884
_cell_length_b       8.89906
_cell_length_c       8.44378
_cell_angle_alpha    90
_cell_angle_beta     90
_cell_angle_gamma    90

_space_group_name_H-M_alt    "P 1"
_space_group_IT_number       1

loop_
  _space_group_symop_operation_xyz
  'x, y, z'

loop_
  _atom_site_type_symbol
  _atom_site_label
  _atom_site_symmetry_multiplicity
  _atom_site_fract_x
  _atom_site_fract_y
  _atom_site_fract_z
  _atom_site_occupancy
  H   H1        1.0  0.78400  0.35500  0.07990  1.0000
  H   H2        1.0  0.71600  0.85500  0.07990  1.0000
  H   H3        1.0  0.34100  0.20500  0.11200  1.0000
  H   H4        1.0  0.15900  0.70500  0.11200  1.0000
  H   H5        1.0  0.12400  0.27300  0.17500  1.0000
  H   H6        1.0  0.37600  0.77300  0.17500  1.0000
  H   H7        1.0  0.34400  0.36100  0.22300  1.0000
  H   H8        1.0  0.15600  0.86100  0.22300  1.0000
  H   H9        1.0  0.28100  0.19300  0.30600  1.0000
  H   H10       1.0  0.21900  0.69300  0.30600  1.0000
  H   H11       1.0  0.78100  0.19300  0.69400  1.0000
  H   H12       1.0  0.71900  0.69300  0.69400  1.0000
  H   H13       1.0  0.84400  0.36100  0.77700  1.0000
  H   H14       1.0  0.65600  0.86100  0.77700  1.0000
  H   H15       1.0  0.62400  0.27300  0.82500  1.0000
  H   H16       1.0  0.87600  0.77300  0.82500  1.0000
  H   H17       1.0  0.84100  0.20500  0.88800  1.0000
  H   H18       1.0  0.65900  0.70500  0.88800  1.0000
  H   H19       1.0  0.28400  0.35500  0.92000  1.0000
  H   H20       1.0  0.21600  0.85500  0.92000  1.0000
  N   N1        1.0  0.27200  0.25900  0.20500  1.0000
  N   N2        1.0  0.22800  0.75900  0.20500  1.0000
  N   N3        1.0  0.77200  0.25900  0.79500  1.0000
  N   N4        1.0  0.72800  0.75900  0.79500  1.0000
  O   O1        1.0  0.72500  0.45800  0.04410  1.0000
  O   O2        1.0  0.77500  0.95800  0.04410  1.0000
  O   O3        1.0  0.88000  0.21400  0.11500  1.0000
  O   O4        1.0  0.62000  0.71400  0.11500  1.0000
  O   O5        1.0  0.61400  0.08330  0.28200  1.0000
  O   O6        1.0  0.88600  0.58300  0.28200  1.0000
  O   O7        1.0  0.52800  0.49500  0.29300  1.0000
  O   O8        1.0  0.97200  0.99500  0.29300  1.0000
  O   O9        1.0  0.28400  0.05100  0.44300  1.0000
  O   O10       1.0  0.21600  0.55100  0.44300  1.0000
  O   O11       1.0  0.95800  0.31800  0.44900  1.0000
  O   O12       1.0  0.54200  0.81800  0.44900  1.0000
  O   O13       1.0  0.45800  0.31800  0.55100  1.0000
  O   O14       1.0  0.04200  0.81800  0.55100  1.0000
  O   O15       1.0  0.78400  0.05100  0.55700  1.0000
  O   O16       1.0  0.71600  0.55100  0.55700  1.0000
  O   O17       1.0  0.02830  0.49500  0.70700  1.0000
  O   O18       1.0  0.47200  0.99500  0.70700  1.0000
  O   O19       1.0  0.11400  0.08330  0.71800  1.0000
  O   O20       1.0  0.38600  0.58300  0.71800  1.0000
  O   O21       1.0  0.38000  0.21400  0.88500  1.0000
  O   O22       1.0  0.12000  0.71400  0.88500  1.0000
  O   O23       1.0  0.22500  0.45800  0.95600  1.0000
  O   O24       1.0  0.27500  0.95800  0.95600  1.0000
  P   P1        1.0  0.81100  0.06730  0.18600  1.0000
  P   P2        1.0  0.68900  0.56700  0.18600  1.0000
  P   P3        1.0  0.31100  0.06730  0.81400  1.0000
  P   P4        1.0  0.18900  0.56700  0.81400  1.0000
  V   V1        1.0  0.96700  0.49700  0.48100  1.0000
  V   V2        1.0  0.53300  0.99700  0.48100  1.0000
  V   V3        1.0  0.46700  0.49700  0.51900  1.0000
  V   V4        1.0  0.03280  0.99700  0.51900  1.0000
