data_image0
_chemical_formula_structural       H32N12O8P4
_chemical_formula_sum              "H32 N12 O8 P4"
_cell_length_a       6.73141
_cell_length_b       8.15205
_cell_length_c       8.80055
_cell_angle_alpha    90
_cell_angle_beta     111.672
_cell_angle_gamma    90

_space_group_name_H-M_alt    "P 1"
_space_group_IT_number       1

loop_
  _space_group_symop_operation_xyz
  'x, y, z'

loop_
  _atom_site_type_symbol
  _atom_site_label
  _atom_site_symmetry_multiplicity
  _atom_site_fract_x
  _atom_site_fract_y
  _atom_site_fract_z
  _atom_site_occupancy
  H   H1        1.0  0.90500  0.32500  0.00393  1.0000
  H   H2        1.0  0.66000  0.31300  0.02730  1.0000
  H   H3        1.0  0.24800  0.50700  0.03140  1.0000
  H   H4        1.0  0.71700  0.02950  0.11700  1.0000
  H   H5        1.0  0.33200  0.66600  0.16300  1.0000
  H   H6        1.0  0.11000  0.99000  0.17900  1.0000
  H   H7        1.0  0.81000  0.85000  0.20500  1.0000
  H   H8        1.0  0.37200  0.93300  0.24800  1.0000
  H   H9        1.0  0.62800  0.43300  0.25200  1.0000
  H   H10       1.0  0.19000  0.35000  0.29500  1.0000
  H   H11       1.0  0.89000  0.49000  0.32100  1.0000
  H   H12       1.0  0.66800  0.16600  0.33700  1.0000
  H   H13       1.0  0.28300  0.53000  0.38300  1.0000
  H   H14       1.0  0.75200  0.00686  0.46900  1.0000
  H   H15       1.0  0.34000  0.81300  0.47300  1.0000
  H   H16       1.0  0.09500  0.82500  0.49600  1.0000
  H   H17       1.0  0.90500  0.17500  0.50400  1.0000
  H   H18       1.0  0.66000  0.18700  0.52700  1.0000
  H   H19       1.0  0.24800  0.99300  0.53100  1.0000
  H   H20       1.0  0.71700  0.47000  0.61700  1.0000
  H   H21       1.0  0.33200  0.83400  0.66300  1.0000
  H   H22       1.0  0.11000  0.51000  0.67900  1.0000
  H   H23       1.0  0.81000  0.65000  0.70500  1.0000
  H   H24       1.0  0.37200  0.56700  0.74800  1.0000
  H   H25       1.0  0.62800  0.06680  0.75200  1.0000
  H   H26       1.0  0.19000  0.15000  0.79500  1.0000
  H   H27       1.0  0.89000  0.00997  0.82100  1.0000
  H   H28       1.0  0.66800  0.33400  0.83700  1.0000
  H   H29       1.0  0.28300  0.97000  0.88300  1.0000
  H   H30       1.0  0.75200  0.49300  0.96900  1.0000
  H   H31       1.0  0.34000  0.68700  0.97300  1.0000
  H   H32       1.0  0.09500  0.67500  0.99600  1.0000
  N   N1        1.0  0.25600  0.63500  0.03920  1.0000
  N   N2        1.0  0.80100  0.92600  0.10900  1.0000
  N   N3        1.0  0.26700  0.02880  0.20900  1.0000
  N   N4        1.0  0.73300  0.52900  0.29100  1.0000
  N   N5        1.0  0.19900  0.42600  0.39100  1.0000
  N   N6        1.0  0.74400  0.13500  0.46100  1.0000
  N   N7        1.0  0.25600  0.86500  0.53900  1.0000
  N   N8        1.0  0.80100  0.57400  0.60900  1.0000
  N   N9        1.0  0.26700  0.47100  0.70900  1.0000
  N   N10       1.0  0.73300  0.97100  0.79100  1.0000
  N   N11       1.0  0.19900  0.07400  0.89100  1.0000
  N   N12       1.0  0.74400  0.36500  0.96100  1.0000
  O   O1        1.0  0.16400  0.31200  0.07070  1.0000
  O   O2        1.0  0.53900  0.19800  0.13300  1.0000
  O   O3        1.0  0.46100  0.69800  0.36700  1.0000
  O   O4        1.0  0.83600  0.81200  0.42900  1.0000
  O   O5        1.0  0.16400  0.18800  0.57100  1.0000
  O   O6        1.0  0.53900  0.30200  0.63300  1.0000
  O   O7        1.0  0.46100  0.80200  0.86700  1.0000
  O   O8        1.0  0.83600  0.68800  0.92900  1.0000
  P   P1        1.0  0.29800  0.16000  0.07620  1.0000
  P   P2        1.0  0.70200  0.66000  0.42400  1.0000
  P   P3        1.0  0.29800  0.34000  0.57600  1.0000
  P   P4        1.0  0.70200  0.84000  0.92400  1.0000
