data_image0
_chemical_formula_structural       AsS3Tl3
_chemical_formula_sum              "As1 S3 Tl3"
_cell_length_a       6.17443
_cell_length_b       6.17443
_cell_length_c       6.17443
_cell_angle_alpha    106.349
_cell_angle_beta     106.349
_cell_angle_gamma    106.349

_space_group_name_H-M_alt    "P 1"
_space_group_IT_number       1

loop_
  _space_group_symop_operation_xyz
  'x, y, z'

loop_
  _atom_site_type_symbol
  _atom_site_label
  _atom_site_symmetry_multiplicity
  _atom_site_fract_x
  _atom_site_fract_y
  _atom_site_fract_z
  _atom_site_occupancy
  As  As1       1.0  0.70600  0.70600  0.70600  1.0000
  S   S1        1.0  0.72500  0.72500  0.08630  1.0000
  S   S2        1.0  0.08630  0.72500  0.72500  1.0000
  S   S3        1.0  0.72500  0.08630  0.72500  1.0000
  Tl  Tl1       1.0  0.55000  0.14800  0.14800  1.0000
  Tl  Tl2       1.0  0.14800  0.55000  0.14800  1.0000
  Tl  Tl3       1.0  0.14800  0.14800  0.55000  1.0000
