data_image0
_chemical_formula_structural       Al2B4H14O26P4
_chemical_formula_sum              "Al2 B4 H14 O26 P4"
_cell_length_a       6.62277
_cell_length_b       6.81226
_cell_length_c       9.6283
_cell_angle_alpha    96.6638
_cell_angle_beta     110.116
_cell_angle_gamma    90

_space_group_name_H-M_alt    "P 1"
_space_group_IT_number       1

loop_
  _space_group_symop_operation_xyz
  'x, y, z'

loop_
  _atom_site_type_symbol
  _atom_site_label
  _atom_site_symmetry_multiplicity
  _atom_site_fract_x
  _atom_site_fract_y
  _atom_site_fract_z
  _atom_site_occupancy
  Al  Al1       1.0  0.00000  0.00000  0.50000  1.0000
  Al  Al2       1.0  0.50000  0.50000  0.50000  1.0000
  B   B1        1.0  0.86800  0.22200  0.22600  1.0000
  B   B2        1.0  0.35800  0.72200  0.22600  1.0000
  B   B3        1.0  0.64200  0.27800  0.77400  1.0000
  B   B4        1.0  0.13200  0.77800  0.77400  1.0000
  H   H1        1.0  0.87200  0.25000  0.00000  1.0000
  H   H2        1.0  0.12800  0.75000  0.00000  1.0000
  H   H3        1.0  0.35400  0.35600  0.04470  1.0000
  H   H4        1.0  0.69100  0.85600  0.04470  1.0000
  H   H5        1.0  0.08750  0.14800  0.11700  1.0000
  H   H6        1.0  0.02980  0.64800  0.11700  1.0000
  H   H7        1.0  0.12100  0.28500  0.42000  1.0000
  H   H8        1.0  0.29900  0.78500  0.42000  1.0000
  H   H9        1.0  0.70100  0.21500  0.58000  1.0000
  H   H10       1.0  0.87900  0.71500  0.58000  1.0000
  H   H11       1.0  0.91200  0.85200  0.88300  1.0000
  H   H12       1.0  0.97000  0.35200  0.88300  1.0000
  H   H13       1.0  0.30900  0.14400  0.95500  1.0000
  H   H14       1.0  0.64600  0.64400  0.95500  1.0000
  O   O1        1.0  0.24300  0.25000  0.00000  1.0000
  O   O2        1.0  0.75700  0.75000  0.00000  1.0000
  O   O3        1.0  0.93100  0.14600  0.09840  1.0000
  O   O4        1.0  0.16800  0.64600  0.09840  1.0000
  O   O5        1.0  0.65100  0.13400  0.19400  1.0000
  O   O6        1.0  0.54300  0.63400  0.19400  1.0000
  O   O7        1.0  0.86700  0.44000  0.22900  1.0000
  O   O8        1.0  0.36200  0.94000  0.22900  1.0000
  O   O9        1.0  0.42200  0.28900  0.34300  1.0000
  O   O10       1.0  0.92000  0.78900  0.34300  1.0000
  O   O11       1.0  0.01870  0.17000  0.36400  1.0000
  O   O12       1.0  0.34600  0.67000  0.36400  1.0000
  O   O13       1.0  0.70300  0.04740  0.45400  1.0000
  O   O14       1.0  0.75000  0.54700  0.45400  1.0000
  O   O15       1.0  0.25000  0.45300  0.54600  1.0000
  O   O16       1.0  0.29700  0.95300  0.54600  1.0000
  O   O17       1.0  0.65400  0.33000  0.63600  1.0000
  O   O18       1.0  0.98100  0.83000  0.63600  1.0000
  O   O19       1.0  0.07960  0.21100  0.65700  1.0000
  O   O20       1.0  0.57800  0.71100  0.65700  1.0000
  O   O21       1.0  0.13300  0.56000  0.77100  1.0000
  O   O22       1.0  0.63800  0.05990  0.77100  1.0000
  O   O23       1.0  0.45700  0.36600  0.80600  1.0000
  O   O24       1.0  0.34900  0.86600  0.80600  1.0000
  O   O25       1.0  0.06910  0.85400  0.90200  1.0000
  O   O26       1.0  0.83200  0.35400  0.90200  1.0000
  P   P1        1.0  0.77300  0.60600  0.30900  1.0000
  P   P2        1.0  0.53600  0.10600  0.30900  1.0000
  P   P3        1.0  0.22700  0.39400  0.69100  1.0000
  P   P4        1.0  0.46400  0.89400  0.69100  1.0000
