data_image0
_chemical_formula_structural       Ba8Cd8Ge8S32
_chemical_formula_sum              "Ba8 Cd8 Ge8 S32"
_cell_length_a       12.5494
_cell_length_b       12.5494
_cell_length_c       12.7647
_cell_angle_alpha    105.067
_cell_angle_beta     105.067
_cell_angle_gamma    118.11

_space_group_name_H-M_alt    "P 1"
_space_group_IT_number       1

loop_
  _space_group_symop_operation_xyz
  'x, y, z'

loop_
  _atom_site_type_symbol
  _atom_site_label
  _atom_site_symmetry_multiplicity
  _atom_site_fract_x
  _atom_site_fract_y
  _atom_site_fract_z
  _atom_site_occupancy
  Ba  Ba1       1.0  0.00047  0.00047  0.00000  1.0000
  Ba  Ba2       1.0  0.48900  0.48900  0.00000  1.0000
  Ba  Ba3       1.0  0.50000  0.99300  0.00276  1.0000
  Ba  Ba4       1.0  0.24700  0.24000  0.49700  1.0000
  Ba  Ba5       1.0  0.75000  0.25000  0.50000  1.0000
  Ba  Ba6       1.0  0.23900  0.73900  0.50000  1.0000
  Ba  Ba7       1.0  0.74300  0.75000  0.50300  1.0000
  Ba  Ba8       1.0  0.99000  0.49700  0.99700  1.0000
  Cd  Cd1       1.0  0.26300  0.48500  0.24800  1.0000
  Cd  Cd2       1.0  0.32800  0.98000  0.24800  1.0000
  Cd  Cd3       1.0  0.83000  0.98200  0.25200  1.0000
  Cd  Cd4       1.0  0.76500  0.48700  0.25200  1.0000
  Cd  Cd5       1.0  0.23500  0.51300  0.74800  1.0000
  Cd  Cd6       1.0  0.73000  0.57800  0.74800  1.0000
  Cd  Cd7       1.0  0.73200  0.07970  0.75200  1.0000
  Cd  Cd8       1.0  0.23700  0.01450  0.75200  1.0000
  Ge  Ge1       1.0  0.48300  0.76300  0.24900  1.0000
  Ge  Ge2       1.0  0.89900  0.26500  0.24900  1.0000
  Ge  Ge3       1.0  0.40000  0.26600  0.25100  1.0000
  Ge  Ge4       1.0  0.98400  0.76400  0.25100  1.0000
  Ge  Ge5       1.0  0.51300  0.73300  0.74900  1.0000
  Ge  Ge6       1.0  0.01470  0.14900  0.74900  1.0000
  Ge  Ge7       1.0  0.01560  0.65000  0.75100  1.0000
  Ge  Ge8       1.0  0.51400  0.23400  0.75100  1.0000
  S   S1        1.0  0.30200  0.57200  0.08700  1.0000
  S   S2        1.0  0.30700  0.07210  0.08760  1.0000
  S   S3        1.0  0.80500  0.06920  0.08810  1.0000
  S   S4        1.0  0.80200  0.57200  0.08990  1.0000
  S   S5        1.0  0.04110  0.45600  0.24700  1.0000
  S   S6        1.0  0.02390  0.95500  0.24800  1.0000
  S   S7        1.0  0.66500  0.76600  0.24900  1.0000
  S   S8        1.0  0.72300  0.27200  0.25000  1.0000
  S   S9        1.0  0.22300  0.27200  0.25000  1.0000
  S   S10       1.0  0.16600  0.76800  0.25100  1.0000
  S   S11       1.0  0.52600  0.95700  0.25200  1.0000
  S   S12       1.0  0.54400  0.45900  0.25300  1.0000
  S   S13       1.0  0.46200  0.73200  0.41000  1.0000
  S   S14       1.0  0.46700  0.23100  0.41200  1.0000
  S   S15       1.0  0.97000  0.23500  0.41200  1.0000
  S   S16       1.0  0.96500  0.73500  0.41300  1.0000
  S   S17       1.0  0.32200  0.55200  0.58700  1.0000
  S   S18       1.0  0.82200  0.55700  0.58800  1.0000
  S   S19       1.0  0.81900  0.05550  0.58800  1.0000
  S   S20       1.0  0.32200  0.05160  0.59000  1.0000
  S   S21       1.0  0.20600  0.29100  0.74700  1.0000
  S   S22       1.0  0.70500  0.27400  0.74800  1.0000
  S   S23       1.0  0.51600  0.91500  0.74900  1.0000
  S   S24       1.0  0.02170  0.97300  0.75000  1.0000
  S   S25       1.0  0.02220  0.47300  0.75000  1.0000
  S   S26       1.0  0.51800  0.41600  0.75100  1.0000
  S   S27       1.0  0.70700  0.77600  0.75200  1.0000
  S   S28       1.0  0.20900  0.79400  0.75300  1.0000
  S   S29       1.0  0.48200  0.71200  0.91000  1.0000
  S   S30       1.0  0.98100  0.71700  0.91200  1.0000
  S   S31       1.0  0.98500  0.22000  0.91200  1.0000
  S   S32       1.0  0.48500  0.21500  0.91300  1.0000
