data_image0
_chemical_formula_structural       Ag4O4Sn4Te4
_chemical_formula_sum              "Ag4 O4 Sn4 Te4"
_cell_length_a       6.33304
_cell_length_b       4.14971
_cell_length_c       14.333
_cell_angle_alpha    90
_cell_angle_beta     90
_cell_angle_gamma    90

_space_group_name_H-M_alt    "P 1"
_space_group_IT_number       1

loop_
  _space_group_symop_operation_xyz
  'x, y, z'

loop_
  _atom_site_type_symbol
  _atom_site_label
  _atom_site_symmetry_multiplicity
  _atom_site_fract_x
  _atom_site_fract_y
  _atom_site_fract_z
  _atom_site_occupancy
  Ag  Ag1       1.0  0.19900  0.75000  0.09720  1.0000
  Ag  Ag2       1.0  0.69900  0.75000  0.40300  1.0000
  Ag  Ag3       1.0  0.30100  0.25000  0.59700  1.0000
  Ag  Ag4       1.0  0.80100  0.25000  0.90300  1.0000
  O   O1        1.0  0.25900  0.25000  0.20100  1.0000
  O   O2        1.0  0.75900  0.25000  0.29900  1.0000
  O   O3        1.0  0.24100  0.75000  0.70100  1.0000
  O   O4        1.0  0.74100  0.75000  0.79900  1.0000
  Sn  Sn1       1.0  0.58900  0.25000  0.17500  1.0000
  Sn  Sn2       1.0  0.08890  0.25000  0.32500  1.0000
  Sn  Sn3       1.0  0.91100  0.75000  0.67500  1.0000
  Sn  Sn4       1.0  0.41100  0.75000  0.82500  1.0000
  Te  Te1       1.0  0.76900  0.75000  0.05080  1.0000
  Te  Te2       1.0  0.26900  0.75000  0.44900  1.0000
  Te  Te3       1.0  0.73100  0.25000  0.55100  1.0000
  Te  Te4       1.0  0.23100  0.25000  0.94900  1.0000
