data_image0
_chemical_formula_structural       Ag4Ba4O36P12
_chemical_formula_sum              "Ag4 Ba4 O36 P12"
_cell_length_a       11.0486
_cell_length_b       12.2312
_cell_length_c       5.83925
_cell_angle_alpha    90
_cell_angle_beta     90
_cell_angle_gamma    90

_space_group_name_H-M_alt    "P 1"
_space_group_IT_number       1

loop_
  _space_group_symop_operation_xyz
  'x, y, z'

loop_
  _atom_site_type_symbol
  _atom_site_label
  _atom_site_symmetry_multiplicity
  _atom_site_fract_x
  _atom_site_fract_y
  _atom_site_fract_z
  _atom_site_occupancy
  Ag  Ag1       1.0  0.48400  0.13500  0.10500  1.0000
  Ag  Ag2       1.0  0.51600  0.63500  0.39500  1.0000
  Ag  Ag3       1.0  0.01640  0.86500  0.60500  1.0000
  Ag  Ag4       1.0  0.98400  0.36500  0.89500  1.0000
  Ba  Ba1       1.0  0.11000  0.08300  0.09630  1.0000
  Ba  Ba2       1.0  0.89000  0.58300  0.40400  1.0000
  Ba  Ba3       1.0  0.39000  0.91700  0.59600  1.0000
  Ba  Ba4       1.0  0.61000  0.41700  0.90400  1.0000
  O   O1        1.0  0.94000  0.93400  0.00796  1.0000
  O   O2        1.0  0.49300  0.94900  0.01850  1.0000
  O   O3        1.0  0.09630  0.72500  0.08170  1.0000
  O   O4        1.0  0.32100  0.73500  0.08990  1.0000
  O   O5        1.0  0.71800  0.92700  0.09710  1.0000
  O   O6        1.0  0.70300  0.61300  0.11400  1.0000
  O   O7        1.0  0.43500  0.32200  0.15600  1.0000
  O   O8        1.0  0.13800  0.30500  0.16900  1.0000
  O   O9        1.0  0.80100  0.37100  0.18000  1.0000
  O   O10       1.0  0.19900  0.87100  0.32000  1.0000
  O   O11       1.0  0.86200  0.80500  0.33100  1.0000
  O   O12       1.0  0.56500  0.82200  0.34400  1.0000
  O   O13       1.0  0.29700  0.11300  0.38600  1.0000
  O   O14       1.0  0.28200  0.42700  0.40300  1.0000
  O   O15       1.0  0.67900  0.23500  0.41000  1.0000
  O   O16       1.0  0.90400  0.22500  0.41800  1.0000
  O   O17       1.0  0.50700  0.44900  0.48100  1.0000
  O   O18       1.0  0.06000  0.43400  0.49200  1.0000
  O   O19       1.0  0.56000  0.06580  0.50800  1.0000
  O   O20       1.0  0.00696  0.05140  0.51900  1.0000
  O   O21       1.0  0.40400  0.27500  0.58200  1.0000
  O   O22       1.0  0.17900  0.26500  0.59000  1.0000
  O   O23       1.0  0.78200  0.07320  0.59700  1.0000
  O   O24       1.0  0.79700  0.38700  0.61400  1.0000
  O   O25       1.0  0.06480  0.67800  0.65600  1.0000
  O   O26       1.0  0.36200  0.69500  0.66900  1.0000
  O   O27       1.0  0.69900  0.62900  0.68000  1.0000
  O   O28       1.0  0.30100  0.12900  0.82000  1.0000
  O   O29       1.0  0.63800  0.19500  0.83100  1.0000
  O   O30       1.0  0.93500  0.17800  0.84400  1.0000
  O   O31       1.0  0.20300  0.88700  0.88600  1.0000
  O   O32       1.0  0.21800  0.57300  0.90300  1.0000
  O   O33       1.0  0.82100  0.76500  0.91000  1.0000
  O   O34       1.0  0.59600  0.77500  0.91800  1.0000
  O   O35       1.0  0.99300  0.55100  0.98100  1.0000
  O   O36       1.0  0.44000  0.56600  0.99200  1.0000
  P   P1        1.0  0.20400  0.81400  0.09440  1.0000
  P   P2        1.0  0.84600  0.86100  0.10500  1.0000
  P   P3        1.0  0.58600  0.87100  0.11200  1.0000
  P   P4        1.0  0.41400  0.37100  0.38800  1.0000
  P   P5        1.0  0.15400  0.36100  0.39500  1.0000
  P   P6        1.0  0.79600  0.31400  0.40600  1.0000
  P   P7        1.0  0.29600  0.18600  0.59400  1.0000
  P   P8        1.0  0.65400  0.13900  0.60500  1.0000
  P   P9        1.0  0.91400  0.12900  0.61200  1.0000
  P   P10       1.0  0.08590  0.62900  0.88800  1.0000
  P   P11       1.0  0.34600  0.63900  0.89500  1.0000
  P   P12       1.0  0.70400  0.68600  0.90600  1.0000
