data_image0
_chemical_formula_structural       Al8B8O28Rb8
_chemical_formula_sum              "Al8 B8 O28 Rb8"
_cell_length_a       8.81696
_cell_length_b       7.49731
_cell_length_c       11.7942
_cell_angle_alpha    90
_cell_angle_beta     103.707
_cell_angle_gamma    90

_space_group_name_H-M_alt    "P 1"
_space_group_IT_number       1

loop_
  _space_group_symop_operation_xyz
  'x, y, z'

loop_
  _atom_site_type_symbol
  _atom_site_label
  _atom_site_symmetry_multiplicity
  _atom_site_fract_x
  _atom_site_fract_y
  _atom_site_fract_z
  _atom_site_occupancy
  Al  Al1       1.0  0.65400  0.62800  0.12000  1.0000
  Al  Al2       1.0  0.18600  0.91800  0.13600  1.0000
  Al  Al3       1.0  0.81400  0.41800  0.36400  1.0000
  Al  Al4       1.0  0.34600  0.12800  0.38000  1.0000
  Al  Al5       1.0  0.65400  0.87200  0.62000  1.0000
  Al  Al6       1.0  0.18600  0.58200  0.63600  1.0000
  Al  Al7       1.0  0.81400  0.08210  0.86400  1.0000
  Al  Al8       1.0  0.34600  0.37200  0.88000  1.0000
  B   B1        1.0  0.31300  0.61300  0.06330  1.0000
  B   B2        1.0  0.84300  0.91700  0.09190  1.0000
  B   B3        1.0  0.15700  0.41700  0.40800  1.0000
  B   B4        1.0  0.68700  0.11300  0.43700  1.0000
  B   B5        1.0  0.31300  0.88700  0.56300  1.0000
  B   B6        1.0  0.84300  0.58300  0.59200  1.0000
  B   B7        1.0  0.15700  0.08350  0.90800  1.0000
  B   B8        1.0  0.68700  0.38700  0.93700  1.0000
  O   O1        1.0  0.71900  0.54100  0.00052  1.0000
  O   O2        1.0  0.23200  0.03910  0.02020  1.0000
  O   O3        1.0  0.45700  0.69500  0.08560  1.0000
  O   O4        1.0  0.19400  0.68700  0.10500  1.0000
  O   O5        1.0  0.99400  0.97000  0.14200  1.0000
  O   O6        1.0  0.76200  0.82500  0.16000  1.0000
  O   O7        1.0  0.68500  0.47600  0.23400  1.0000
  O   O8        1.0  0.31500  0.97600  0.26600  1.0000
  O   O9        1.0  0.23800  0.32500  0.34000  1.0000
  O   O10       1.0  0.00641  0.47000  0.35800  1.0000
  O   O11       1.0  0.80600  0.18700  0.39500  1.0000
  O   O12       1.0  0.54300  0.19500  0.41400  1.0000
  O   O13       1.0  0.76800  0.53900  0.48000  1.0000
  O   O14       1.0  0.28100  0.04140  0.49900  1.0000
  O   O15       1.0  0.71900  0.95900  0.50100  1.0000
  O   O16       1.0  0.23200  0.46100  0.52000  1.0000
  O   O17       1.0  0.45700  0.80500  0.58600  1.0000
  O   O18       1.0  0.19400  0.81300  0.60500  1.0000
  O   O19       1.0  0.99400  0.53000  0.64200  1.0000
  O   O20       1.0  0.76200  0.67500  0.66000  1.0000
  O   O21       1.0  0.68500  0.02440  0.73400  1.0000
  O   O22       1.0  0.31500  0.52400  0.76600  1.0000
  O   O23       1.0  0.23800  0.17500  0.84000  1.0000
  O   O24       1.0  0.00641  0.03020  0.85800  1.0000
  O   O25       1.0  0.80600  0.31300  0.89500  1.0000
  O   O26       1.0  0.54300  0.30500  0.91400  1.0000
  O   O27       1.0  0.76800  0.96100  0.98000  1.0000
  O   O28       1.0  0.28100  0.45900  0.99900  1.0000
  Rb  Rb1       1.0  0.02940  0.36000  0.12400  1.0000
  Rb  Rb2       1.0  0.54500  0.13300  0.14700  1.0000
  Rb  Rb3       1.0  0.45500  0.63300  0.35300  1.0000
  Rb  Rb4       1.0  0.97100  0.86000  0.37600  1.0000
  Rb  Rb5       1.0  0.02940  0.14000  0.62400  1.0000
  Rb  Rb6       1.0  0.54500  0.36700  0.64700  1.0000
  Rb  Rb7       1.0  0.45500  0.86700  0.85300  1.0000
  Rb  Rb8       1.0  0.97100  0.64000  0.87600  1.0000
