data_image0
_chemical_formula_structural       Ge4Mg4O4Te4
_chemical_formula_sum              "Ge4 Mg4 O4 Te4"
_cell_length_a       6.16891
_cell_length_b       8.33351
_cell_length_c       6.73033
_cell_angle_alpha    90
_cell_angle_beta     90
_cell_angle_gamma    90

_space_group_name_H-M_alt    "P 1"
_space_group_IT_number       1

loop_
  _space_group_symop_operation_xyz
  'x, y, z'

loop_
  _atom_site_type_symbol
  _atom_site_label
  _atom_site_symmetry_multiplicity
  _atom_site_fract_x
  _atom_site_fract_y
  _atom_site_fract_z
  _atom_site_occupancy
  Ge  Ge1       1.0  0.31100  0.74300  0.09760  1.0000
  Ge  Ge2       1.0  0.68900  0.24300  0.40200  1.0000
  Ge  Ge3       1.0  0.18900  0.25700  0.59800  1.0000
  Ge  Ge4       1.0  0.81100  0.75700  0.90200  1.0000
  Mg  Mg1       1.0  0.25300  0.22600  0.05260  1.0000
  Mg  Mg2       1.0  0.74700  0.72600  0.44700  1.0000
  Mg  Mg3       1.0  0.24700  0.77400  0.55300  1.0000
  Mg  Mg4       1.0  0.75300  0.27400  0.94700  1.0000
  O   O1        1.0  0.54000  0.24800  0.16900  1.0000
  O   O2        1.0  0.46000  0.74800  0.33100  1.0000
  O   O3        1.0  0.96000  0.75200  0.66900  1.0000
  O   O4        1.0  0.04020  0.25200  0.83100  1.0000
  Te  Te1       1.0  0.00437  0.49300  0.24600  1.0000
  Te  Te2       1.0  0.99600  0.99300  0.25400  1.0000
  Te  Te3       1.0  0.49600  0.50700  0.74600  1.0000
  Te  Te4       1.0  0.50400  0.00713  0.75400  1.0000
