data_image0
_chemical_formula_structural       Al16Ca8S32
_chemical_formula_sum              "Al16 Ca8 S32"
_cell_length_a       11.7279
_cell_length_b       11.7279
_cell_length_c       11.7867
_cell_angle_alpha    105.399
_cell_angle_beta     105.399
_cell_angle_gamma    117.792

_space_group_name_H-M_alt    "P 1"
_space_group_IT_number       1

loop_
  _space_group_symop_operation_xyz
  'x, y, z'

loop_
  _atom_site_type_symbol
  _atom_site_label
  _atom_site_symmetry_multiplicity
  _atom_site_fract_x
  _atom_site_fract_y
  _atom_site_fract_z
  _atom_site_occupancy
  Al  Al1       1.0  0.46900  0.36200  0.00037  1.0000
  Al  Al2       1.0  0.03100  0.63800  0.00037  1.0000
  Al  Al3       1.0  0.11200  0.13500  0.00088  1.0000
  Al  Al4       1.0  0.38900  0.86600  0.00088  1.0000
  Al  Al5       1.0  0.13400  0.61100  0.49900  1.0000
  Al  Al6       1.0  0.86500  0.88800  0.49900  1.0000
  Al  Al7       1.0  0.63800  0.53100  0.50000  1.0000
  Al  Al8       1.0  0.36200  0.96900  0.50000  1.0000
  Al  Al9       1.0  0.63800  0.03100  0.50000  1.0000
  Al  Al10      1.0  0.36200  0.46900  0.50000  1.0000
  Al  Al11      1.0  0.13500  0.11200  0.50100  1.0000
  Al  Al12      1.0  0.86600  0.38900  0.50100  1.0000
  Al  Al13      1.0  0.61100  0.13400  0.99900  1.0000
  Al  Al14      1.0  0.88800  0.86500  0.99900  1.0000
  Al  Al15      1.0  0.96900  0.36200  0.00000  1.0000
  Al  Al16      1.0  0.53100  0.63800  0.00000  1.0000
  Ca  Ca1       1.0  0.87300  0.62300  0.24600  1.0000
  Ca  Ca2       1.0  0.87500  0.12500  0.25000  1.0000
  Ca  Ca3       1.0  0.37500  0.62500  0.25000  1.0000
  Ca  Ca4       1.0  0.37700  0.12700  0.25400  1.0000
  Ca  Ca5       1.0  0.62300  0.87300  0.74600  1.0000
  Ca  Ca6       1.0  0.62500  0.37500  0.75000  1.0000
  Ca  Ca7       1.0  0.12500  0.87500  0.75000  1.0000
  Ca  Ca8       1.0  0.12700  0.37700  0.75400  1.0000
  S   S1        1.0  0.15400  0.34300  0.00159  1.0000
  S   S2        1.0  0.34800  0.65900  0.00159  1.0000
  S   S3        1.0  0.31600  0.15600  0.00223  1.0000
  S   S4        1.0  0.18600  0.84600  0.00223  1.0000
  S   S5        1.0  0.08340  0.08340  0.16900  1.0000
  S   S6        1.0  0.58600  0.08580  0.16900  1.0000
  S   S7        1.0  0.08430  0.58400  0.17000  1.0000
  S   S8        1.0  0.58600  0.58600  0.17000  1.0000
  S   S9        1.0  0.41400  0.41400  0.33000  1.0000
  S   S10       1.0  0.41600  0.91600  0.33000  1.0000
  S   S11       1.0  0.91400  0.41400  0.33100  1.0000
  S   S12       1.0  0.91700  0.91700  0.33100  1.0000
  S   S13       1.0  0.84400  0.68400  0.49800  1.0000
  S   S14       1.0  0.15400  0.81400  0.49800  1.0000
  S   S15       1.0  0.34100  0.65200  0.49800  1.0000
  S   S16       1.0  0.65700  0.84600  0.49800  1.0000
  S   S17       1.0  0.34300  0.15400  0.50200  1.0000
  S   S18       1.0  0.65900  0.34800  0.50200  1.0000
  S   S19       1.0  0.84600  0.18600  0.50200  1.0000
  S   S20       1.0  0.15600  0.31600  0.50200  1.0000
  S   S21       1.0  0.08340  0.08340  0.66900  1.0000
  S   S22       1.0  0.08580  0.58600  0.66900  1.0000
  S   S23       1.0  0.58400  0.08430  0.67000  1.0000
  S   S24       1.0  0.58600  0.58600  0.67000  1.0000
  S   S25       1.0  0.41400  0.41400  0.83000  1.0000
  S   S26       1.0  0.91600  0.41600  0.83000  1.0000
  S   S27       1.0  0.41400  0.91400  0.83100  1.0000
  S   S28       1.0  0.91700  0.91700  0.83100  1.0000
  S   S29       1.0  0.81400  0.15400  0.99800  1.0000
  S   S30       1.0  0.68400  0.84400  0.99800  1.0000
  S   S31       1.0  0.65200  0.34100  0.99800  1.0000
  S   S32       1.0  0.84600  0.65700  0.99800  1.0000
