data_image0
_chemical_formula_structural       Mo8O36Sb4Sm4
_chemical_formula_sum              "Mo8 O36 Sb4 Sm4"
_cell_length_a       9.60174
_cell_length_b       9.60174
_cell_length_c       10.7402
_cell_angle_alpha    112.297
_cell_angle_beta     112.297
_cell_angle_gamma    94.7968

_space_group_name_H-M_alt    "P 1"
_space_group_IT_number       1

loop_
  _space_group_symop_operation_xyz
  'x, y, z'

loop_
  _atom_site_type_symbol
  _atom_site_label
  _atom_site_symmetry_multiplicity
  _atom_site_fract_x
  _atom_site_fract_y
  _atom_site_fract_z
  _atom_site_occupancy
  Mo  Mo1       1.0  0.04910  0.26200  0.03380  1.0000
  Mo  Mo2       1.0  0.43500  0.06310  0.20000  1.0000
  Mo  Mo3       1.0  0.93700  0.56500  0.30000  1.0000
  Mo  Mo4       1.0  0.73800  0.95100  0.46600  1.0000
  Mo  Mo5       1.0  0.26200  0.04910  0.53400  1.0000
  Mo  Mo6       1.0  0.06310  0.43500  0.70000  1.0000
  Mo  Mo7       1.0  0.56500  0.93700  0.80000  1.0000
  Mo  Mo8       1.0  0.95100  0.73800  0.96600  1.0000
  O   O1        1.0  0.30800  0.97900  0.00651  1.0000
  O   O2        1.0  0.13200  0.70100  0.05620  1.0000
  O   O3        1.0  0.22400  0.39900  0.07470  1.0000
  O   O4        1.0  0.94300  0.91100  0.09730  1.0000
  O   O5        1.0  0.46200  0.57600  0.10300  1.0000
  O   O6        1.0  0.05840  0.23300  0.19100  1.0000
  O   O7        1.0  0.78900  0.64000  0.19900  1.0000
  O   O8        1.0  0.62000  0.15600  0.23300  1.0000
  O   O9        1.0  0.08760  0.54900  0.24100  1.0000
  O   O10       1.0  0.45100  0.91200  0.25900  1.0000
  O   O11       1.0  0.84400  0.38000  0.26700  1.0000
  O   O12       1.0  0.36000  0.21100  0.30100  1.0000
  O   O13       1.0  0.76700  0.94200  0.30900  1.0000
  O   O14       1.0  0.42400  0.53800  0.39700  1.0000
  O   O15       1.0  0.08920  0.05720  0.40300  1.0000
  O   O16       1.0  0.60100  0.77600  0.42500  1.0000
  O   O17       1.0  0.29900  0.86800  0.44400  1.0000
  O   O18       1.0  0.02090  0.69200  0.49300  1.0000
  O   O19       1.0  0.97900  0.30800  0.50700  1.0000
  O   O20       1.0  0.70100  0.13200  0.55600  1.0000
  O   O21       1.0  0.39900  0.22400  0.57500  1.0000
  O   O22       1.0  0.91100  0.94300  0.59700  1.0000
  O   O23       1.0  0.57600  0.46200  0.60300  1.0000
  O   O24       1.0  0.23300  0.05840  0.69100  1.0000
  O   O25       1.0  0.64000  0.78900  0.69900  1.0000
  O   O26       1.0  0.15600  0.62000  0.73300  1.0000
  O   O27       1.0  0.54900  0.08760  0.74100  1.0000
  O   O28       1.0  0.91200  0.45100  0.75900  1.0000
  O   O29       1.0  0.38000  0.84400  0.76700  1.0000
  O   O30       1.0  0.21100  0.36000  0.80100  1.0000
  O   O31       1.0  0.94200  0.76700  0.80900  1.0000
  O   O32       1.0  0.53800  0.42400  0.89700  1.0000
  O   O33       1.0  0.05720  0.08920  0.90300  1.0000
  O   O34       1.0  0.77600  0.60100  0.92500  1.0000
  O   O35       1.0  0.86800  0.29900  0.94400  1.0000
  O   O36       1.0  0.69200  0.02090  0.99300  1.0000
  Sb  Sb1       1.0  0.61100  0.65600  0.03170  1.0000
  Sb  Sb2       1.0  0.34400  0.38900  0.46800  1.0000
  Sb  Sb3       1.0  0.65600  0.61100  0.53200  1.0000
  Sb  Sb4       1.0  0.38900  0.34400  0.96800  1.0000
  Sm  Sm1       1.0  0.87400  0.12600  0.25000  1.0000
  Sm  Sm2       1.0  0.32700  0.67300  0.25000  1.0000
  Sm  Sm3       1.0  0.67300  0.32700  0.75000  1.0000
  Sm  Sm4       1.0  0.12600  0.87400  0.75000  1.0000
