data_image0
_chemical_formula_structural       Mn8O32P8Sr4
_chemical_formula_sum              "Mn8 O32 P8 Sr4"
_cell_length_a       8.83299
_cell_length_b       9.0504
_cell_length_c       10.273
_cell_angle_alpha    124.364
_cell_angle_beta     90.3624
_cell_angle_gamma    90.0849

_space_group_name_H-M_alt    "P 1"
_space_group_IT_number       1

loop_
  _space_group_symop_operation_xyz
  'x, y, z'

loop_
  _atom_site_type_symbol
  _atom_site_label
  _atom_site_symmetry_multiplicity
  _atom_site_fract_x
  _atom_site_fract_y
  _atom_site_fract_z
  _atom_site_occupancy
  Mn  Mn1       1.0  0.61300  0.27200  0.01760  1.0000
  Mn  Mn2       1.0  0.24200  0.49500  0.12500  1.0000
  Mn  Mn3       1.0  0.07010  0.25700  0.24800  1.0000
  Mn  Mn4       1.0  0.71500  0.49200  0.38800  1.0000
  Mn  Mn5       1.0  0.28500  0.50800  0.61200  1.0000
  Mn  Mn6       1.0  0.93000  0.74300  0.75200  1.0000
  Mn  Mn7       1.0  0.75800  0.50500  0.87500  1.0000
  Mn  Mn8       1.0  0.38700  0.72800  0.98200  1.0000
  O   O1        1.0  0.90700  0.71200  0.03220  1.0000
  O   O2        1.0  0.58800  0.66600  0.06000  1.0000
  O   O3        1.0  0.88400  0.20500  0.09000  1.0000
  O   O4        1.0  0.18800  0.71000  0.09600  1.0000
  O   O5        1.0  0.29700  0.21100  0.13800  1.0000
  O   O6        1.0  0.43100  0.99200  0.17900  1.0000
  O   O7        1.0  0.04920  0.99600  0.20000  1.0000
  O   O8        1.0  0.58000  0.24200  0.20600  1.0000
  O   O9        1.0  0.66000  0.53900  0.21500  1.0000
  O   O10       1.0  0.40600  0.69500  0.26700  1.0000
  O   O11       1.0  0.11100  0.51900  0.30900  1.0000
  O   O12       1.0  0.64800  0.87600  0.34800  1.0000
  O   O13       1.0  0.84700  0.30600  0.39400  1.0000
  O   O14       1.0  0.39100  0.30300  0.41200  1.0000
  O   O15       1.0  0.10500  0.86000  0.48000  1.0000
  O   O16       1.0  0.10300  0.31600  0.49700  1.0000
  O   O17       1.0  0.89700  0.68400  0.50300  1.0000
  O   O18       1.0  0.89500  0.14000  0.52000  1.0000
  O   O19       1.0  0.60900  0.69700  0.58800  1.0000
  O   O20       1.0  0.15300  0.69400  0.60600  1.0000
  O   O21       1.0  0.35200  0.12400  0.65200  1.0000
  O   O22       1.0  0.88900  0.48100  0.69100  1.0000
  O   O23       1.0  0.59400  0.30500  0.73300  1.0000
  O   O24       1.0  0.34000  0.46100  0.78500  1.0000
  O   O25       1.0  0.42000  0.75800  0.79400  1.0000
  O   O26       1.0  0.95100  0.00371  0.80000  1.0000
  O   O27       1.0  0.56900  0.00821  0.82100  1.0000
  O   O28       1.0  0.70300  0.78900  0.86200  1.0000
  O   O29       1.0  0.81200  0.29000  0.90400  1.0000
  O   O30       1.0  0.11600  0.79500  0.91000  1.0000
  O   O31       1.0  0.41200  0.33400  0.94000  1.0000
  O   O32       1.0  0.09270  0.28800  0.96800  1.0000
  P   P1        1.0  0.06290  0.79900  0.05530  1.0000
  P   P2        1.0  0.57400  0.69600  0.22700  1.0000
  P   P3        1.0  0.42000  0.19100  0.23400  1.0000
  P   P4        1.0  0.06790  0.69100  0.46900  1.0000
  P   P5        1.0  0.93200  0.30900  0.53100  1.0000
  P   P6        1.0  0.58000  0.80900  0.76600  1.0000
  P   P7        1.0  0.42600  0.30400  0.77300  1.0000
  P   P8        1.0  0.93700  0.20100  0.94500  1.0000
  Sr  Sr1       1.0  0.74400  0.99000  0.19200  1.0000
  Sr  Sr2       1.0  0.25100  0.00475  0.39100  1.0000
  Sr  Sr3       1.0  0.74900  0.99500  0.60900  1.0000
  Sr  Sr4       1.0  0.25600  0.00965  0.80800  1.0000
