data_image0
_chemical_formula_structural       Ca12K4O30Si8
_chemical_formula_sum              "Ca12 K4 O30 Si8"
_cell_length_a       7.36305
_cell_length_b       5.53281
_cell_length_c       17.1266
_cell_angle_alpha    90
_cell_angle_beta     90.1444
_cell_angle_gamma    90

_space_group_name_H-M_alt    "P 1"
_space_group_IT_number       1

loop_
  _space_group_symop_operation_xyz
  'x, y, z'

loop_
  _atom_site_type_symbol
  _atom_site_label
  _atom_site_symmetry_multiplicity
  _atom_site_fract_x
  _atom_site_fract_y
  _atom_site_fract_z
  _atom_site_occupancy
  Ca  Ca1       1.0  0.51000  0.73300  0.08040  1.0000
  Ca  Ca2       1.0  0.24600  0.23900  0.09110  1.0000
  Ca  Ca3       1.0  0.50000  0.15100  0.25000  1.0000
  Ca  Ca4       1.0  0.00000  0.20200  0.25000  1.0000
  Ca  Ca5       1.0  0.75400  0.23900  0.40900  1.0000
  Ca  Ca6       1.0  0.49000  0.73300  0.42000  1.0000
  Ca  Ca7       1.0  0.51000  0.26700  0.58000  1.0000
  Ca  Ca8       1.0  0.24600  0.76100  0.59100  1.0000
  Ca  Ca9       1.0  0.00000  0.79800  0.75000  1.0000
  Ca  Ca10      1.0  0.50000  0.84900  0.75000  1.0000
  Ca  Ca11      1.0  0.75400  0.76100  0.90900  1.0000
  Ca  Ca12      1.0  0.49000  0.26700  0.92000  1.0000
  K   K1        1.0  0.97500  0.74700  0.08300  1.0000
  K   K2        1.0  0.02550  0.74700  0.41700  1.0000
  K   K3        1.0  0.97500  0.25300  0.58300  1.0000
  K   K4        1.0  0.02550  0.25300  0.91700  1.0000
  O   O1        1.0  0.72700  0.47400  0.00111  1.0000
  O   O2        1.0  0.70600  0.00339  0.01360  1.0000
  O   O3        1.0  0.92900  0.24800  0.11300  1.0000
  O   O4        1.0  0.55200  0.29700  0.12000  1.0000
  O   O5        1.0  0.27500  0.89000  0.16400  1.0000
  O   O6        1.0  0.67700  0.81700  0.18600  1.0000
  O   O7        1.0  0.24700  0.42500  0.21600  1.0000
  O   O8        1.0  0.00000  0.76000  0.25000  1.0000
  O   O9        1.0  0.75300  0.42500  0.28400  1.0000
  O   O10       1.0  0.32300  0.81700  0.31400  1.0000
  O   O11       1.0  0.72500  0.89000  0.33600  1.0000
  O   O12       1.0  0.44800  0.29700  0.38000  1.0000
  O   O13       1.0  0.07060  0.24800  0.38700  1.0000
  O   O14       1.0  0.29400  0.00339  0.48600  1.0000
  O   O15       1.0  0.27300  0.47400  0.49900  1.0000
  O   O16       1.0  0.72700  0.52600  0.50100  1.0000
  O   O17       1.0  0.70600  0.99700  0.51400  1.0000
  O   O18       1.0  0.92900  0.75200  0.61300  1.0000
  O   O19       1.0  0.55200  0.70300  0.62000  1.0000
  O   O20       1.0  0.27500  0.11000  0.66400  1.0000
  O   O21       1.0  0.67700  0.18300  0.68600  1.0000
  O   O22       1.0  0.24700  0.57500  0.71600  1.0000
  O   O23       1.0  0.00000  0.24000  0.75000  1.0000
  O   O24       1.0  0.75300  0.57500  0.78400  1.0000
  O   O25       1.0  0.32300  0.18300  0.81400  1.0000
  O   O26       1.0  0.72500  0.11000  0.83600  1.0000
  O   O27       1.0  0.44800  0.70300  0.88000  1.0000
  O   O28       1.0  0.07060  0.75200  0.88700  1.0000
  O   O29       1.0  0.29400  0.99700  0.98600  1.0000
  O   O30       1.0  0.27300  0.52600  0.99900  1.0000
  Si  Si1       1.0  0.73300  0.25100  0.06620  1.0000
  Si  Si2       1.0  0.22600  0.71100  0.23700  1.0000
  Si  Si3       1.0  0.77400  0.71100  0.26300  1.0000
  Si  Si4       1.0  0.26700  0.25100  0.43400  1.0000
  Si  Si5       1.0  0.73300  0.74900  0.56600  1.0000
  Si  Si6       1.0  0.22600  0.28900  0.73700  1.0000
  Si  Si7       1.0  0.77400  0.28900  0.76300  1.0000
  Si  Si8       1.0  0.26700  0.74900  0.93400  1.0000
