data_image0
_chemical_formula_structural       As12C6Cl24H12
_chemical_formula_sum              "As12 C6 Cl24 H12"
_cell_length_a       11.4922
_cell_length_b       12.1375
_cell_length_c       12.2901
_cell_angle_alpha    116.144
_cell_angle_beta     114.292
_cell_angle_gamma    96.5286

_space_group_name_H-M_alt    "P 1"
_space_group_IT_number       1

loop_
  _space_group_symop_operation_xyz
  'x, y, z'

loop_
  _atom_site_type_symbol
  _atom_site_label
  _atom_site_symmetry_multiplicity
  _atom_site_fract_x
  _atom_site_fract_y
  _atom_site_fract_z
  _atom_site_occupancy
  As  As1       1.0  0.25700  0.48200  0.03160  1.0000
  As  As2       1.0  0.70600  0.23900  0.06900  1.0000
  As  As3       1.0  0.88500  0.99200  0.26300  1.0000
  As  As4       1.0  0.39500  0.12000  0.30400  1.0000
  As  As5       1.0  0.86000  0.77800  0.35800  1.0000
  As  As6       1.0  0.36600  0.91100  0.40300  1.0000
  As  As7       1.0  0.46300  0.50800  0.59700  1.0000
  As  As8       1.0  0.00128  0.42000  0.64200  1.0000
  As  As9       1.0  0.59200  0.81600  0.69600  1.0000
  As  As10      1.0  0.12200  0.72900  0.73700  1.0000
  As  As11      1.0  0.13700  0.17000  0.93100  1.0000
  As  As12      1.0  0.72600  0.45100  0.96800  1.0000
  C   C1        1.0  0.25400  0.35400  0.09160  1.0000
  C   C2        1.0  0.32400  0.93200  0.24100  1.0000
  C   C3        1.0  0.92800  0.96700  0.42300  1.0000
  C   C4        1.0  0.00546  0.54400  0.57700  1.0000
  C   C5        1.0  0.58300  0.69100  0.75900  1.0000
  C   C6        1.0  0.66200  0.26300  0.90800  1.0000
  Cl  Cl1       1.0  0.11700  0.56700  0.09300  1.0000
  Cl  Cl2       1.0  0.39800  0.07900  0.10800  1.0000
  Cl  Cl3       1.0  0.92500  0.81600  0.13700  1.0000
  Cl  Cl4       1.0  0.66000  0.89900  0.15600  1.0000
  Cl  Cl5       1.0  0.93200  0.33200  0.17800  1.0000
  Cl  Cl6       1.0  0.66600  0.41400  0.19500  1.0000
  Cl  Cl7       1.0  0.45300  0.64000  0.22700  1.0000
  Cl  Cl8       1.0  0.19800  0.15400  0.24600  1.0000
  Cl  Cl9       1.0  0.05920  0.75000  0.41900  1.0000
  Cl  Cl10      1.0  0.80300  0.26300  0.44800  1.0000
  Cl  Cl11      1.0  0.30000  0.56200  0.47500  1.0000
  Cl  Cl12      1.0  0.58000  0.49400  0.48800  1.0000
  Cl  Cl13      1.0  0.59200  0.00657  0.51200  1.0000
  Cl  Cl14      1.0  0.32400  0.08650  0.52500  1.0000
  Cl  Cl15      1.0  0.85500  0.81500  0.55200  1.0000
  Cl  Cl16      1.0  0.14000  0.33100  0.58100  1.0000
  Cl  Cl17      1.0  0.45200  0.90800  0.75400  1.0000
  Cl  Cl18      1.0  0.72600  0.41200  0.77300  1.0000
  Cl  Cl19      1.0  0.97100  0.21900  0.80500  1.0000
  Cl  Cl20      1.0  0.25500  0.15500  0.82200  1.0000
  Cl  Cl21      1.0  0.00363  0.74300  0.84400  1.0000
  Cl  Cl22      1.0  0.28800  0.67900  0.86300  1.0000
  Cl  Cl23      1.0  0.79000  0.97100  0.89200  1.0000
  Cl  Cl24      1.0  0.52400  0.47400  0.90700  1.0000
  H   H1        1.0  0.35900  0.35600  0.14300  1.0000
  H   H2        1.0  0.21700  0.38200  0.16600  1.0000
  H   H3        1.0  0.21200  0.88800  0.16800  1.0000
  H   H4        1.0  0.37500  0.87900  0.18900  1.0000
  H   H5        1.0  0.87700  0.01880  0.47600  1.0000
  H   H6        1.0  0.03990  0.01140  0.49600  1.0000
  H   H7        1.0  0.04340  0.51500  0.50400  1.0000
  H   H8        1.0  0.90100  0.54300  0.52400  1.0000
  H   H9        1.0  0.68600  0.69000  0.81100  1.0000
  H   H10       1.0  0.54500  0.72100  0.83200  1.0000
  H   H11       1.0  0.55100  0.21600  0.83400  1.0000
  H   H12       1.0  0.71600  0.21200  0.85700  1.0000
