data_image0
_chemical_formula_structural       Lu4Mo4Na8O32P4
_chemical_formula_sum              "Lu4 Mo4 Na8 O32 P4"
_cell_length_a       6.70787
_cell_length_b       11.2092
_cell_length_c       11.2092
_cell_angle_alpha    105.001
_cell_angle_beta     107.41
_cell_angle_gamma    107.41

_space_group_name_H-M_alt    "P 1"
_space_group_IT_number       1

loop_
  _space_group_symop_operation_xyz
  'x, y, z'

loop_
  _atom_site_type_symbol
  _atom_site_label
  _atom_site_symmetry_multiplicity
  _atom_site_fract_x
  _atom_site_fract_y
  _atom_site_fract_z
  _atom_site_occupancy
  Lu  Lu1       1.0  0.43000  0.68000  0.18000  1.0000
  Lu  Lu2       1.0  0.07010  0.82000  0.32000  1.0000
  Lu  Lu3       1.0  0.93000  0.18000  0.68000  1.0000
  Lu  Lu4       1.0  0.57000  0.32000  0.82000  1.0000
  Mo  Mo1       1.0  0.25000  0.92700  0.07260  1.0000
  Mo  Mo2       1.0  0.75000  0.57300  0.42700  1.0000
  Mo  Mo3       1.0  0.25000  0.42700  0.57300  1.0000
  Mo  Mo4       1.0  0.75000  0.07260  0.92700  1.0000
  Na  Na1       1.0  0.42800  0.28900  0.09580  1.0000
  Na  Na2       1.0  0.04290  0.40400  0.21100  1.0000
  Na  Na3       1.0  0.92800  0.09580  0.28900  1.0000
  Na  Na4       1.0  0.54300  0.21100  0.40400  1.0000
  Na  Na5       1.0  0.45700  0.78900  0.59600  1.0000
  Na  Na6       1.0  0.07230  0.90400  0.71100  1.0000
  Na  Na7       1.0  0.95700  0.59600  0.78900  1.0000
  Na  Na8       1.0  0.57200  0.71100  0.90400  1.0000
  O   O1        1.0  0.72800  0.42000  0.05920  1.0000
  O   O2        1.0  0.24900  0.44100  0.07960  1.0000
  O   O3        1.0  0.91600  0.14100  0.10400  1.0000
  O   O4        1.0  0.44600  0.84700  0.10600  1.0000
  O   O5        1.0  0.41600  0.10400  0.14100  1.0000
  O   O6        1.0  0.72000  0.65600  0.14200  1.0000
  O   O7        1.0  0.05440  0.89400  0.15300  1.0000
  O   O8        1.0  0.07770  0.64200  0.15600  1.0000
  O   O9        1.0  0.78000  0.85800  0.34400  1.0000
  O   O10       1.0  0.50800  0.60600  0.34700  1.0000
  O   O11       1.0  0.42200  0.84400  0.35800  1.0000
  O   O12       1.0  0.67100  0.39600  0.35900  1.0000
  O   O13       1.0  0.99200  0.65300  0.39400  1.0000
  O   O14       1.0  0.17100  0.35900  0.39600  1.0000
  O   O15       1.0  0.22800  0.05920  0.42000  1.0000
  O   O16       1.0  0.74900  0.07960  0.44100  1.0000
  O   O17       1.0  0.25100  0.92000  0.55900  1.0000
  O   O18       1.0  0.77200  0.94100  0.58000  1.0000
  O   O19       1.0  0.82900  0.64100  0.60400  1.0000
  O   O20       1.0  0.00814  0.34700  0.60600  1.0000
  O   O21       1.0  0.32900  0.60400  0.64100  1.0000
  O   O22       1.0  0.57800  0.15600  0.64200  1.0000
  O   O23       1.0  0.49200  0.39400  0.65300  1.0000
  O   O24       1.0  0.22000  0.14200  0.65600  1.0000
  O   O25       1.0  0.92200  0.35800  0.84400  1.0000
  O   O26       1.0  0.94600  0.10600  0.84700  1.0000
  O   O27       1.0  0.28000  0.34400  0.85800  1.0000
  O   O28       1.0  0.58400  0.89600  0.85900  1.0000
  O   O29       1.0  0.55400  0.15300  0.89400  1.0000
  O   O30       1.0  0.08350  0.85900  0.89600  1.0000
  O   O31       1.0  0.75100  0.55900  0.92000  1.0000
  O   O32       1.0  0.27200  0.58000  0.94100  1.0000
  P   P1        1.0  0.81700  0.56700  0.06700  1.0000
  P   P2        1.0  0.68300  0.93300  0.43300  1.0000
  P   P3        1.0  0.31700  0.06700  0.56700  1.0000
  P   P4        1.0  0.18300  0.43300  0.93300  1.0000
