data_image0
_chemical_formula_structural       Ba8S32Sb16
_chemical_formula_sum              "Ba8 S32 Sb16"
_cell_length_a       9.01698
_cell_length_b       8.34315
_cell_length_c       20.7832
_cell_angle_alpha    90
_cell_angle_beta     100.518
_cell_angle_gamma    90

_space_group_name_H-M_alt    "P 1"
_space_group_IT_number       1

loop_
  _space_group_symop_operation_xyz
  'x, y, z'

loop_
  _atom_site_type_symbol
  _atom_site_label
  _atom_site_symmetry_multiplicity
  _atom_site_fract_x
  _atom_site_fract_y
  _atom_site_fract_z
  _atom_site_occupancy
  Ba  Ba1       1.0  0.98100  0.95400  0.19400  1.0000
  Ba  Ba2       1.0  0.48300  0.94800  0.20200  1.0000
  Ba  Ba3       1.0  0.51700  0.44800  0.29800  1.0000
  Ba  Ba4       1.0  0.01890  0.45400  0.30600  1.0000
  Ba  Ba5       1.0  0.98100  0.54600  0.69400  1.0000
  Ba  Ba6       1.0  0.48300  0.55200  0.70200  1.0000
  Ba  Ba7       1.0  0.51700  0.05190  0.79800  1.0000
  Ba  Ba8       1.0  0.01890  0.04640  0.80600  1.0000
  S   S1        1.0  0.34500  0.65100  0.03610  1.0000
  S   S2        1.0  0.96400  0.71000  0.06370  1.0000
  S   S3        1.0  0.63200  0.00599  0.07320  1.0000
  S   S4        1.0  0.22200  0.05470  0.08460  1.0000
  S   S5        1.0  0.50100  0.33600  0.15000  1.0000
  S   S6        1.0  0.92500  0.34300  0.15200  1.0000
  S   S7        1.0  0.23400  0.65400  0.21700  1.0000
  S   S8        1.0  0.74200  0.67200  0.22700  1.0000
  S   S9        1.0  0.25800  0.17200  0.27300  1.0000
  S   S10       1.0  0.76600  0.15400  0.28300  1.0000
  S   S11       1.0  0.07480  0.84300  0.34800  1.0000
  S   S12       1.0  0.49900  0.83600  0.35000  1.0000
  S   S13       1.0  0.77800  0.55500  0.41500  1.0000
  S   S14       1.0  0.36800  0.50600  0.42700  1.0000
  S   S15       1.0  0.03590  0.21000  0.43600  1.0000
  S   S16       1.0  0.65500  0.15100  0.46400  1.0000
  S   S17       1.0  0.34500  0.84900  0.53600  1.0000
  S   S18       1.0  0.96400  0.79000  0.56400  1.0000
  S   S19       1.0  0.63200  0.49400  0.57300  1.0000
  S   S20       1.0  0.22200  0.44500  0.58500  1.0000
  S   S21       1.0  0.50100  0.16400  0.65000  1.0000
  S   S22       1.0  0.92500  0.15700  0.65200  1.0000
  S   S23       1.0  0.23400  0.84600  0.71700  1.0000
  S   S24       1.0  0.74200  0.82800  0.72700  1.0000
  S   S25       1.0  0.25800  0.32800  0.77300  1.0000
  S   S26       1.0  0.76600  0.34600  0.78300  1.0000
  S   S27       1.0  0.07480  0.65700  0.84800  1.0000
  S   S28       1.0  0.49900  0.66400  0.85000  1.0000
  S   S29       1.0  0.77800  0.94500  0.91500  1.0000
  S   S30       1.0  0.36800  0.99400  0.92700  1.0000
  S   S31       1.0  0.03590  0.29000  0.93600  1.0000
  S   S32       1.0  0.65500  0.34900  0.96400  1.0000
  Sb  Sb1       1.0  0.85400  0.15700  0.00343  1.0000
  Sb  Sb2       1.0  0.42500  0.20100  0.03050  1.0000
  Sb  Sb3       1.0  0.15800  0.50600  0.11500  1.0000
  Sb  Sb4       1.0  0.70100  0.52000  0.12300  1.0000
  Sb  Sb5       1.0  0.29900  0.01980  0.37700  1.0000
  Sb  Sb6       1.0  0.84200  0.00628  0.38500  1.0000
  Sb  Sb7       1.0  0.57500  0.70100  0.46900  1.0000
  Sb  Sb8       1.0  0.14600  0.65700  0.49700  1.0000
  Sb  Sb9       1.0  0.85400  0.34300  0.50300  1.0000
  Sb  Sb10      1.0  0.42500  0.29900  0.53100  1.0000
  Sb  Sb11      1.0  0.15800  0.99400  0.61500  1.0000
  Sb  Sb12      1.0  0.70100  0.98000  0.62300  1.0000
  Sb  Sb13      1.0  0.29900  0.48000  0.87700  1.0000
  Sb  Sb14      1.0  0.84200  0.49400  0.88500  1.0000
  Sb  Sb15      1.0  0.57500  0.79900  0.96900  1.0000
  Sb  Sb16      1.0  0.14600  0.84300  0.99700  1.0000
