data_image0
_chemical_formula_structural       Ag8O32Se8U4
_chemical_formula_sum              "Ag8 O32 Se8 U4"
_cell_length_a       5.74793
_cell_length_b       6.51687
_cell_length_c       21.3642
_cell_angle_alpha    90
_cell_angle_beta     97.5576
_cell_angle_gamma    90

_space_group_name_H-M_alt    "P 1"
_space_group_IT_number       1

loop_
  _space_group_symop_operation_xyz
  'x, y, z'

loop_
  _atom_site_type_symbol
  _atom_site_label
  _atom_site_symmetry_multiplicity
  _atom_site_fract_x
  _atom_site_fract_y
  _atom_site_fract_z
  _atom_site_occupancy
  Ag  Ag1       1.0  0.28500  0.89300  0.03730  1.0000
  Ag  Ag2       1.0  0.87800  0.90800  0.16000  1.0000
  Ag  Ag3       1.0  0.62200  0.40800  0.34000  1.0000
  Ag  Ag4       1.0  0.21500  0.39300  0.46300  1.0000
  Ag  Ag5       1.0  0.78500  0.60700  0.53700  1.0000
  Ag  Ag6       1.0  0.37800  0.59200  0.66000  1.0000
  Ag  Ag7       1.0  0.12200  0.09220  0.84000  1.0000
  Ag  Ag8       1.0  0.71500  0.10700  0.96300  1.0000
  O   O1        1.0  0.38500  0.24700  0.04460  1.0000
  O   O2        1.0  0.89100  0.88300  0.05250  1.0000
  O   O3        1.0  0.53900  0.63800  0.06840  1.0000
  O   O4        1.0  0.13100  0.50700  0.12700  1.0000
  O   O5        1.0  0.30300  0.05190  0.15600  1.0000
  O   O6        1.0  0.71700  0.30700  0.16500  1.0000
  O   O7        1.0  0.55300  0.71900  0.19900  1.0000
  O   O8        1.0  0.16500  0.85300  0.24900  1.0000
  O   O9        1.0  0.33500  0.35300  0.25100  1.0000
  O   O10       1.0  0.94700  0.21900  0.30100  1.0000
  O   O11       1.0  0.78300  0.80700  0.33500  1.0000
  O   O12       1.0  0.19700  0.55200  0.34400  1.0000
  O   O13       1.0  0.36900  0.00700  0.37300  1.0000
  O   O14       1.0  0.96100  0.13800  0.43200  1.0000
  O   O15       1.0  0.60900  0.38300  0.44800  1.0000
  O   O16       1.0  0.11500  0.74700  0.45500  1.0000
  O   O17       1.0  0.88500  0.25300  0.54500  1.0000
  O   O18       1.0  0.39100  0.61700  0.55200  1.0000
  O   O19       1.0  0.03910  0.86200  0.56800  1.0000
  O   O20       1.0  0.63100  0.99300  0.62700  1.0000
  O   O21       1.0  0.80300  0.44800  0.65600  1.0000
  O   O22       1.0  0.21700  0.19300  0.66500  1.0000
  O   O23       1.0  0.05290  0.78100  0.69900  1.0000
  O   O24       1.0  0.66500  0.64700  0.74900  1.0000
  O   O25       1.0  0.83500  0.14700  0.75100  1.0000
  O   O26       1.0  0.44700  0.28100  0.80100  1.0000
  O   O27       1.0  0.28300  0.69300  0.83500  1.0000
  O   O28       1.0  0.69700  0.94800  0.84400  1.0000
  O   O29       1.0  0.86900  0.49300  0.87300  1.0000
  O   O30       1.0  0.46100  0.36200  0.93200  1.0000
  O   O31       1.0  0.10900  0.11700  0.94800  1.0000
  O   O32       1.0  0.61500  0.75300  0.95500  1.0000
  Se  Se1       1.0  0.77000  0.65400  0.02380  1.0000
  Se  Se2       1.0  0.42900  0.94000  0.22600  1.0000
  Se  Se3       1.0  0.07110  0.44000  0.27400  1.0000
  Se  Se4       1.0  0.73000  0.15400  0.47600  1.0000
  Se  Se5       1.0  0.27000  0.84600  0.52400  1.0000
  Se  Se6       1.0  0.92900  0.56000  0.72600  1.0000
  Se  Se7       1.0  0.57100  0.06040  0.77400  1.0000
  Se  Se8       1.0  0.23000  0.34600  0.97600  1.0000
  U   U1        1.0  0.42400  0.40800  0.14600  1.0000
  U   U2        1.0  0.07560  0.90800  0.35400  1.0000
  U   U3        1.0  0.92400  0.09210  0.64600  1.0000
  U   U4        1.0  0.57600  0.59200  0.85400  1.0000
