data_image0
_chemical_formula_structural       Ba4Cr8F36Na4
_chemical_formula_sum              "Ba4 Cr8 F36 Na4"
_cell_length_a       7.12332
_cell_length_b       16.9723
_cell_length_c       5.24457
_cell_angle_alpha    90
_cell_angle_beta     91.5412
_cell_angle_gamma    90

_space_group_name_H-M_alt    "P 1"
_space_group_IT_number       1

loop_
  _space_group_symop_operation_xyz
  'x, y, z'

loop_
  _atom_site_type_symbol
  _atom_site_label
  _atom_site_symmetry_multiplicity
  _atom_site_fract_x
  _atom_site_fract_y
  _atom_site_fract_z
  _atom_site_occupancy
  Ba  Ba1       1.0  0.56800  0.21500  0.23300  1.0000
  Ba  Ba2       1.0  0.93200  0.71500  0.26700  1.0000
  Ba  Ba3       1.0  0.06830  0.28500  0.73300  1.0000
  Ba  Ba4       1.0  0.43200  0.78500  0.76700  1.0000
  Cr  Cr1       1.0  0.40500  0.62200  0.21900  1.0000
  Cr  Cr2       1.0  0.23300  0.92100  0.23200  1.0000
  Cr  Cr3       1.0  0.26700  0.42100  0.26800  1.0000
  Cr  Cr4       1.0  0.09510  0.12200  0.28100  1.0000
  Cr  Cr5       1.0  0.90500  0.87800  0.71900  1.0000
  Cr  Cr6       1.0  0.73300  0.57900  0.73200  1.0000
  Cr  Cr7       1.0  0.76700  0.07900  0.76800  1.0000
  Cr  Cr8       1.0  0.59500  0.37800  0.78100  1.0000
  F   F1        1.0  0.78000  0.33400  0.00146  1.0000
  F   F2        1.0  0.79100  0.83800  0.00783  1.0000
  F   F3        1.0  0.87600  0.57900  0.03550  1.0000
  F   F4        1.0  0.44900  0.91900  0.03770  1.0000
  F   F5        1.0  0.90300  0.06480  0.09190  1.0000
  F   F6        1.0  0.50300  0.42600  0.09370  1.0000
  F   F7        1.0  0.55800  0.71200  0.19700  1.0000
  F   F8        1.0  0.22700  0.81100  0.21800  1.0000
  F   F9        1.0  0.26200  0.03390  0.24800  1.0000
  F   F10       1.0  0.23800  0.53400  0.25200  1.0000
  F   F11       1.0  0.27300  0.31100  0.28200  1.0000
  F   F12       1.0  0.94200  0.21200  0.30300  1.0000
  F   F13       1.0  0.99700  0.92600  0.40600  1.0000
  F   F14       1.0  0.59700  0.56500  0.40800  1.0000
  F   F15       1.0  0.05140  0.41900  0.46200  1.0000
  F   F16       1.0  0.62400  0.07860  0.46500  1.0000
  F   F17       1.0  0.70900  0.33800  0.49200  1.0000
  F   F18       1.0  0.72000  0.83400  0.49900  1.0000
  F   F19       1.0  0.28000  0.16600  0.50100  1.0000
  F   F20       1.0  0.29100  0.66200  0.50800  1.0000
  F   F21       1.0  0.37600  0.92100  0.53500  1.0000
  F   F22       1.0  0.94900  0.58100  0.53800  1.0000
  F   F23       1.0  0.40300  0.43500  0.59200  1.0000
  F   F24       1.0  0.00296  0.07430  0.59400  1.0000
  F   F25       1.0  0.05820  0.78800  0.69700  1.0000
  F   F26       1.0  0.72700  0.68900  0.71800  1.0000
  F   F27       1.0  0.76200  0.46600  0.74800  1.0000
  F   F28       1.0  0.73800  0.96600  0.75200  1.0000
  F   F29       1.0  0.77300  0.18900  0.78200  1.0000
  F   F30       1.0  0.44200  0.28800  0.80300  1.0000
  F   F31       1.0  0.49700  0.57400  0.90600  1.0000
  F   F32       1.0  0.09690  0.93500  0.90800  1.0000
  F   F33       1.0  0.55100  0.08140  0.96200  1.0000
  F   F34       1.0  0.12400  0.42100  0.96500  1.0000
  F   F35       1.0  0.20900  0.16200  0.99200  1.0000
  F   F36       1.0  0.22000  0.66600  0.99900  1.0000
  Na  Na1       1.0  0.81000  0.46000  0.24100  1.0000
  Na  Na2       1.0  0.69000  0.96000  0.25900  1.0000
  Na  Na3       1.0  0.31000  0.03980  0.74100  1.0000
  Na  Na4       1.0  0.19000  0.54000  0.75900  1.0000
