data_image0
_chemical_formula_structural       Ba8C8Co4F8O24
_chemical_formula_sum              "Ba8 C8 Co4 F8 O24"
_cell_length_a       6.54233
_cell_length_b       11.4219
_cell_length_c       9.00469
_cell_angle_alpha    90
_cell_angle_beta     90
_cell_angle_gamma    90

_space_group_name_H-M_alt    "P 1"
_space_group_IT_number       1

loop_
  _space_group_symop_operation_xyz
  'x, y, z'

loop_
  _atom_site_type_symbol
  _atom_site_label
  _atom_site_symmetry_multiplicity
  _atom_site_fract_x
  _atom_site_fract_y
  _atom_site_fract_z
  _atom_site_occupancy
  Ba  Ba1       1.0  0.01190  0.32800  0.10800  1.0000
  Ba  Ba2       1.0  0.48800  0.82800  0.10800  1.0000
  Ba  Ba3       1.0  0.51200  0.32800  0.39200  1.0000
  Ba  Ba4       1.0  0.98800  0.82800  0.39200  1.0000
  Ba  Ba5       1.0  0.01190  0.17200  0.60800  1.0000
  Ba  Ba6       1.0  0.48800  0.67200  0.60800  1.0000
  Ba  Ba7       1.0  0.51200  0.17200  0.89200  1.0000
  Ba  Ba8       1.0  0.98800  0.67200  0.89200  1.0000
  C   C1        1.0  0.25100  0.08890  0.24200  1.0000
  C   C2        1.0  0.24900  0.58900  0.24200  1.0000
  C   C3        1.0  0.75100  0.08890  0.25800  1.0000
  C   C4        1.0  0.74900  0.58900  0.25800  1.0000
  C   C5        1.0  0.25100  0.41100  0.74200  1.0000
  C   C6        1.0  0.24900  0.91100  0.74200  1.0000
  C   C7        1.0  0.75100  0.41100  0.75800  1.0000
  C   C8        1.0  0.74900  0.91100  0.75800  1.0000
  Co  Co1       1.0  0.00000  0.00000  0.00000  1.0000
  Co  Co2       1.0  0.50000  0.50000  0.00000  1.0000
  Co  Co3       1.0  0.50000  0.00000  0.50000  1.0000
  Co  Co4       1.0  0.00000  0.50000  0.50000  1.0000
  F   F1        1.0  0.40700  0.34300  0.09080  1.0000
  F   F2        1.0  0.09260  0.84300  0.09080  1.0000
  F   F3        1.0  0.90700  0.34300  0.40900  1.0000
  F   F4        1.0  0.59300  0.84300  0.40900  1.0000
  F   F5        1.0  0.40700  0.15700  0.59100  1.0000
  F   F6        1.0  0.09260  0.65700  0.59100  1.0000
  F   F7        1.0  0.90700  0.15700  0.90900  1.0000
  F   F8        1.0  0.59300  0.65700  0.90900  1.0000
  O   O1        1.0  0.23800  0.08830  0.09630  1.0000
  O   O2        1.0  0.26200  0.58800  0.09630  1.0000
  O   O3        1.0  0.69300  0.17900  0.18600  1.0000
  O   O4        1.0  0.80700  0.67900  0.18600  1.0000
  O   O5        1.0  0.67900  0.49600  0.19300  1.0000
  O   O6        1.0  0.82100  0.99600  0.19300  1.0000
  O   O7        1.0  0.17900  0.49600  0.30700  1.0000
  O   O8        1.0  0.32100  0.99600  0.30700  1.0000
  O   O9        1.0  0.19300  0.17900  0.31400  1.0000
  O   O10       1.0  0.30700  0.67900  0.31400  1.0000
  O   O11       1.0  0.73800  0.08830  0.40400  1.0000
  O   O12       1.0  0.76200  0.58800  0.40400  1.0000
  O   O13       1.0  0.23800  0.41200  0.59600  1.0000
  O   O14       1.0  0.26200  0.91200  0.59600  1.0000
  O   O15       1.0  0.69300  0.32100  0.68600  1.0000
  O   O16       1.0  0.80700  0.82100  0.68600  1.0000
  O   O17       1.0  0.67900  0.00372  0.69300  1.0000
  O   O18       1.0  0.82100  0.50400  0.69300  1.0000
  O   O19       1.0  0.17900  0.00372  0.80700  1.0000
  O   O20       1.0  0.32100  0.50400  0.80700  1.0000
  O   O21       1.0  0.19300  0.32100  0.81400  1.0000
  O   O22       1.0  0.30700  0.82100  0.81400  1.0000
  O   O23       1.0  0.73800  0.41200  0.90400  1.0000
  O   O24       1.0  0.76200  0.91200  0.90400  1.0000
