data_image0
_chemical_formula_structural       Ce2Cl6H28O14
_chemical_formula_sum              "Ce2 Cl6 H28 O14"
_cell_length_a       8.11659
_cell_length_b       8.99592
_cell_length_c       7.72942
_cell_angle_alpha    106.428
_cell_angle_beta     99.2119
_cell_angle_gamma    69.3144

_space_group_name_H-M_alt    "P 1"
_space_group_IT_number       1

loop_
  _space_group_symop_operation_xyz
  'x, y, z'

loop_
  _atom_site_type_symbol
  _atom_site_label
  _atom_site_symmetry_multiplicity
  _atom_site_fract_x
  _atom_site_fract_y
  _atom_site_fract_z
  _atom_site_occupancy
  Ce  Ce1       1.0  0.30700  0.18600  0.21800  1.0000
  Ce  Ce2       1.0  0.68600  0.82800  0.78500  1.0000
  Cl  Cl1       1.0  0.67700  0.02410  0.15500  1.0000
  Cl  Cl2       1.0  0.71900  0.46400  0.21000  1.0000
  Cl  Cl3       1.0  0.11600  0.80300  0.35400  1.0000
  Cl  Cl4       1.0  0.88500  0.20900  0.65900  1.0000
  Cl  Cl5       1.0  0.27000  0.55000  0.78700  1.0000
  Cl  Cl6       1.0  0.31000  0.99300  0.84600  1.0000
  H   H1        1.0  0.64900  0.58700  0.00535  1.0000
  H   H2        1.0  0.95200  0.40600  0.08920  1.0000
  H   H3        1.0  0.45300  0.80500  0.10700  1.0000
  H   H4        1.0  0.96900  0.73800  0.10800  1.0000
  H   H5        1.0  0.51200  0.39000  0.12500  1.0000
  H   H6        1.0  0.90800  0.21300  0.21800  1.0000
  H   H7        1.0  0.31500  0.84600  0.25500  1.0000
  H   H8        1.0  0.01190  0.04420  0.27000  1.0000
  H   H9        1.0  0.12400  0.57200  0.36100  1.0000
  H   H10       1.0  0.65700  0.86300  0.37600  1.0000
  H   H11       1.0  0.56300  0.62000  0.43500  1.0000
  H   H12       1.0  0.84900  0.86400  0.45600  1.0000
  H   H13       1.0  0.63800  0.26700  0.47400  1.0000
  H   H14       1.0  0.37400  0.73800  0.50300  1.0000
  H   H15       1.0  0.92600  0.52100  0.52000  1.0000
  H   H16       1.0  0.18200  0.49100  0.52600  1.0000
  H   H17       1.0  0.46700  0.40100  0.56000  1.0000
  H   H18       1.0  0.19100  0.14600  0.57600  1.0000
  H   H19       1.0  0.38600  0.15600  0.62100  1.0000
  H   H20       1.0  0.86400  0.44000  0.64200  1.0000
  H   H21       1.0  0.67500  0.16700  0.74100  1.0000
  H   H22       1.0  0.99300  0.97400  0.76800  1.0000
  H   H23       1.0  0.08170  0.80000  0.81200  1.0000
  H   H24       1.0  0.48000  0.61800  0.86500  1.0000
  H   H25       1.0  0.53100  0.20900  0.88500  1.0000
  H   H26       1.0  0.02280  0.28600  0.90700  1.0000
  H   H27       1.0  0.01030  0.58900  0.93900  1.0000
  H   H28       1.0  0.33800  0.42500  0.99100  1.0000
  O   O1        1.0  0.06290  0.34600  0.02560  1.0000
  O   O2        1.0  0.41400  0.34700  0.06300  1.0000
  O   O3        1.0  0.40400  0.88400  0.22100  1.0000
  O   O4        1.0  0.02620  0.13200  0.22800  1.0000
  O   O5        1.0  0.13100  0.47200  0.39800  1.0000
  O   O6        1.0  0.51000  0.31800  0.44900  1.0000
  O   O7        1.0  0.74100  0.85000  0.48200  1.0000
  O   O8        1.0  0.28400  0.16600  0.52900  1.0000
  O   O9        1.0  0.49900  0.69300  0.54300  1.0000
  O   O10       1.0  0.86600  0.54600  0.63100  1.0000
  O   O11       1.0  0.58200  0.13200  0.77000  1.0000
  O   O12       1.0  0.96800  0.88700  0.80100  1.0000
  O   O13       1.0  0.57600  0.66300  0.92900  1.0000
  O   O14       1.0  0.91400  0.68200  0.99800  1.0000
