data_image0
_chemical_formula_structural       Au2Cl10O36
_chemical_formula_sum              "Au2 Cl10 O36"
_cell_length_a       5.1336
_cell_length_b       7.6285
_cell_length_c       16.8487
_cell_angle_alpha    93.6818
_cell_angle_beta     90
_cell_angle_gamma    109.662

_space_group_name_H-M_alt    "P 1"
_space_group_IT_number       1

loop_
  _space_group_symop_operation_xyz
  'x, y, z'

loop_
  _atom_site_type_symbol
  _atom_site_label
  _atom_site_symmetry_multiplicity
  _atom_site_fract_x
  _atom_site_fract_y
  _atom_site_fract_z
  _atom_site_occupancy
  Au  Au1       1.0  0.00000  0.00000  0.00000  1.0000
  Au  Au2       1.0  0.50000  0.00000  0.50000  1.0000
  Cl  Cl1       1.0  0.27200  0.71600  0.05450  1.0000
  Cl  Cl2       1.0  0.02440  0.14300  0.17900  1.0000
  Cl  Cl3       1.0  0.82300  0.50000  0.25000  1.0000
  Cl  Cl4       1.0  0.38100  0.85700  0.32100  1.0000
  Cl  Cl5       1.0  0.05660  0.28400  0.44600  1.0000
  Cl  Cl6       1.0  0.94300  0.71600  0.55400  1.0000
  Cl  Cl7       1.0  0.61900  0.14300  0.67900  1.0000
  Cl  Cl8       1.0  0.17700  0.50000  0.75000  1.0000
  Cl  Cl9       1.0  0.97600  0.85700  0.82100  1.0000
  Cl  Cl10      1.0  0.72800  0.28400  0.94600  1.0000
  O   O1        1.0  0.67400  0.35500  0.02190  1.0000
  O   O2        1.0  0.98800  0.75900  0.04820  1.0000
  O   O3        1.0  0.48000  0.89000  0.08090  1.0000
  O   O4        1.0  0.18300  0.16700  0.09780  1.0000
  O   O5        1.0  0.20900  0.58000  0.11300  1.0000
  O   O6        1.0  0.78700  0.20500  0.16900  1.0000
  O   O7        1.0  0.70900  0.55700  0.18300  1.0000
  O   O8        1.0  0.94500  0.95300  0.19600  1.0000
  O   O9        1.0  0.22500  0.27000  0.23200  1.0000
  O   O10       1.0  0.45500  0.73000  0.26800  1.0000
  O   O11       1.0  0.49200  0.04690  0.30400  1.0000
  O   O12       1.0  0.65200  0.44300  0.31700  1.0000
  O   O13       1.0  0.08150  0.79500  0.33100  1.0000
  O   O14       1.0  0.12900  0.42000  0.38700  1.0000
  O   O15       1.0  0.51500  0.83300  0.40200  1.0000
  O   O16       1.0  0.09070  0.11000  0.41900  1.0000
  O   O17       1.0  0.72900  0.24100  0.45200  1.0000
  O   O18       1.0  0.82000  0.64500  0.47800  1.0000
  O   O19       1.0  0.18000  0.35500  0.52200  1.0000
  O   O20       1.0  0.27100  0.75900  0.54800  1.0000
  O   O21       1.0  0.90900  0.89000  0.58100  1.0000
  O   O22       1.0  0.48500  0.16700  0.59800  1.0000
  O   O23       1.0  0.87100  0.58000  0.61300  1.0000
  O   O24       1.0  0.91800  0.20500  0.66900  1.0000
  O   O25       1.0  0.34800  0.55700  0.68300  1.0000
  O   O26       1.0  0.50800  0.95300  0.69600  1.0000
  O   O27       1.0  0.54500  0.27000  0.73200  1.0000
  O   O28       1.0  0.77500  0.73000  0.76800  1.0000
  O   O29       1.0  0.05540  0.04690  0.80400  1.0000
  O   O30       1.0  0.29100  0.44300  0.81700  1.0000
  O   O31       1.0  0.21300  0.79500  0.83100  1.0000
  O   O32       1.0  0.79100  0.42000  0.88700  1.0000
  O   O33       1.0  0.81700  0.83300  0.90200  1.0000
  O   O34       1.0  0.52000  0.11000  0.91900  1.0000
  O   O35       1.0  0.01180  0.24100  0.95200  1.0000
  O   O36       1.0  0.32600  0.64500  0.97800  1.0000
