data_image0
_chemical_formula_structural       As44K12
_chemical_formula_sum              "As44 K12"
_cell_length_a       11.0142
_cell_length_b       14.7629
_cell_length_c       11.2571
_cell_angle_alpha    90
_cell_angle_beta     90
_cell_angle_gamma    90

_space_group_name_H-M_alt    "P 1"
_space_group_IT_number       1

loop_
  _space_group_symop_operation_xyz
  'x, y, z'

loop_
  _atom_site_type_symbol
  _atom_site_label
  _atom_site_symmetry_multiplicity
  _atom_site_fract_x
  _atom_site_fract_y
  _atom_site_fract_z
  _atom_site_occupancy
  As  As1       1.0  0.75000  0.47800  0.00000  1.0000
  As  As2       1.0  0.25000  0.52200  0.00000  1.0000
  As  As3       1.0  0.49200  0.14100  0.02790  1.0000
  As  As4       1.0  0.99200  0.85900  0.02790  1.0000
  As  As5       1.0  0.89600  0.37000  0.07810  1.0000
  As  As6       1.0  0.39600  0.63000  0.07810  1.0000
  As  As7       1.0  0.82400  0.11100  0.08370  1.0000
  As  As8       1.0  0.32400  0.88900  0.08370  1.0000
  As  As9       1.0  0.56000  0.28500  0.10800  1.0000
  As  As10      1.0  0.05990  0.71500  0.10800  1.0000
  As  As11      1.0  0.76900  0.25600  0.18700  1.0000
  As  As12      1.0  0.26900  0.74400  0.18700  1.0000
  As  As13      1.0  0.26900  0.24400  0.31300  1.0000
  As  As14      1.0  0.76900  0.75600  0.31300  1.0000
  As  As15      1.0  0.05990  0.21500  0.39200  1.0000
  As  As16      1.0  0.56000  0.78500  0.39200  1.0000
  As  As17      1.0  0.32400  0.38900  0.41600  1.0000
  As  As18      1.0  0.82400  0.61100  0.41600  1.0000
  As  As19      1.0  0.39600  0.13000  0.42200  1.0000
  As  As20      1.0  0.89600  0.87000  0.42200  1.0000
  As  As21      1.0  0.99200  0.35900  0.47200  1.0000
  As  As22      1.0  0.49200  0.64100  0.47200  1.0000
  As  As23      1.0  0.25000  0.02230  0.50000  1.0000
  As  As24      1.0  0.75000  0.97800  0.50000  1.0000
  As  As25      1.0  0.50800  0.35900  0.52800  1.0000
  As  As26      1.0  0.00756  0.64100  0.52800  1.0000
  As  As27      1.0  0.10400  0.13000  0.57800  1.0000
  As  As28      1.0  0.60400  0.87000  0.57800  1.0000
  As  As29      1.0  0.17600  0.38900  0.58400  1.0000
  As  As30      1.0  0.67600  0.61100  0.58400  1.0000
  As  As31      1.0  0.44000  0.21500  0.60800  1.0000
  As  As32      1.0  0.94000  0.78500  0.60800  1.0000
  As  As33      1.0  0.23100  0.24400  0.68700  1.0000
  As  As34      1.0  0.73100  0.75600  0.68700  1.0000
  As  As35      1.0  0.73100  0.25600  0.81300  1.0000
  As  As36      1.0  0.23100  0.74400  0.81300  1.0000
  As  As37      1.0  0.94000  0.28500  0.89200  1.0000
  As  As38      1.0  0.44000  0.71500  0.89200  1.0000
  As  As39      1.0  0.67600  0.11100  0.91600  1.0000
  As  As40      1.0  0.17600  0.88900  0.91600  1.0000
  As  As41      1.0  0.60400  0.37000  0.92200  1.0000
  As  As42      1.0  0.10400  0.63000  0.92200  1.0000
  As  As43      1.0  0.00756  0.14100  0.97200  1.0000
  As  As44      1.0  0.50800  0.85900  0.97200  1.0000
  K   K1        1.0  0.25000  0.28900  0.00000  1.0000
  K   K2        1.0  0.75000  0.71100  0.00000  1.0000
  K   K3        1.0  0.08790  0.01180  0.23500  1.0000
  K   K4        1.0  0.58800  0.98800  0.23500  1.0000
  K   K5        1.0  0.58800  0.48800  0.26500  1.0000
  K   K6        1.0  0.08790  0.51200  0.26500  1.0000
  K   K7        1.0  0.75000  0.21100  0.50000  1.0000
  K   K8        1.0  0.25000  0.78900  0.50000  1.0000
  K   K9        1.0  0.91200  0.48800  0.73500  1.0000
  K   K10       1.0  0.41200  0.51200  0.73500  1.0000
  K   K11       1.0  0.41200  0.01180  0.76500  1.0000
  K   K12       1.0  0.91200  0.98800  0.76500  1.0000
