data_image0
_chemical_formula_structural       Na12P44
_chemical_formula_sum              "Na12 P44"
_cell_length_a       10.4244
_cell_length_b       12.475
_cell_length_c       9.81941
_cell_angle_alpha    90
_cell_angle_beta     90
_cell_angle_gamma    90

_space_group_name_H-M_alt    "P 1"
_space_group_IT_number       1

loop_
  _space_group_symop_operation_xyz
  'x, y, z'

loop_
  _atom_site_type_symbol
  _atom_site_label
  _atom_site_symmetry_multiplicity
  _atom_site_fract_x
  _atom_site_fract_y
  _atom_site_fract_z
  _atom_site_occupancy
  Na  Na1       1.0  0.25000  0.25500  0.00000  1.0000
  Na  Na2       1.0  0.75000  0.74500  0.00000  1.0000
  Na  Na3       1.0  0.57900  0.00374  0.24300  1.0000
  Na  Na4       1.0  0.07860  0.99600  0.24300  1.0000
  Na  Na5       1.0  0.07860  0.49600  0.25700  1.0000
  Na  Na6       1.0  0.57900  0.50400  0.25700  1.0000
  Na  Na7       1.0  0.75000  0.24500  0.50000  1.0000
  Na  Na8       1.0  0.25000  0.75500  0.50000  1.0000
  Na  Na9       1.0  0.42100  0.49600  0.74300  1.0000
  Na  Na10      1.0  0.92100  0.50400  0.74300  1.0000
  Na  Na11      1.0  0.92100  0.00374  0.75700  1.0000
  Na  Na12      1.0  0.42100  0.99600  0.75700  1.0000
  P   P1        1.0  0.25000  0.49600  0.00000  1.0000
  P   P2        1.0  0.75000  0.50400  0.00000  1.0000
  P   P3        1.0  0.50500  0.14400  0.02090  1.0000
  P   P4        1.0  0.00460  0.85600  0.02090  1.0000
  P   P5        1.0  0.88400  0.38700  0.08520  1.0000
  P   P6        1.0  0.38400  0.61300  0.08520  1.0000
  P   P7        1.0  0.81700  0.11200  0.08830  1.0000
  P   P8        1.0  0.31700  0.88800  0.08830  1.0000
  P   P9        1.0  0.56600  0.29800  0.10200  1.0000
  P   P10       1.0  0.06560  0.70200  0.10200  1.0000
  P   P11       1.0  0.76100  0.26600  0.19300  1.0000
  P   P12       1.0  0.26100  0.73400  0.19300  1.0000
  P   P13       1.0  0.26100  0.23400  0.30700  1.0000
  P   P14       1.0  0.76100  0.76600  0.30700  1.0000
  P   P15       1.0  0.06560  0.20200  0.39800  1.0000
  P   P16       1.0  0.56600  0.79800  0.39800  1.0000
  P   P17       1.0  0.31700  0.38800  0.41200  1.0000
  P   P18       1.0  0.81700  0.61200  0.41200  1.0000
  P   P19       1.0  0.38400  0.11300  0.41500  1.0000
  P   P20       1.0  0.88400  0.88700  0.41500  1.0000
  P   P21       1.0  0.00460  0.35600  0.47900  1.0000
  P   P22       1.0  0.50500  0.64400  0.47900  1.0000
  P   P23       1.0  0.75000  0.00371  0.50000  1.0000
  P   P24       1.0  0.25000  0.99600  0.50000  1.0000
  P   P25       1.0  0.49500  0.35600  0.52100  1.0000
  P   P26       1.0  0.99500  0.64400  0.52100  1.0000
  P   P27       1.0  0.11600  0.11300  0.58500  1.0000
  P   P28       1.0  0.61600  0.88700  0.58500  1.0000
  P   P29       1.0  0.18300  0.38800  0.58800  1.0000
  P   P30       1.0  0.68300  0.61200  0.58800  1.0000
  P   P31       1.0  0.43400  0.20200  0.60200  1.0000
  P   P32       1.0  0.93400  0.79800  0.60200  1.0000
  P   P33       1.0  0.23900  0.23400  0.69300  1.0000
  P   P34       1.0  0.73900  0.76600  0.69300  1.0000
  P   P35       1.0  0.73900  0.26600  0.80700  1.0000
  P   P36       1.0  0.23900  0.73400  0.80700  1.0000
  P   P37       1.0  0.93400  0.29800  0.89800  1.0000
  P   P38       1.0  0.43400  0.70200  0.89800  1.0000
  P   P39       1.0  0.68300  0.11200  0.91200  1.0000
  P   P40       1.0  0.18300  0.88800  0.91200  1.0000
  P   P41       1.0  0.61600  0.38700  0.91500  1.0000
  P   P42       1.0  0.11600  0.61300  0.91500  1.0000
  P   P43       1.0  0.99500  0.14400  0.97900  1.0000
  P   P44       1.0  0.49500  0.85600  0.97900  1.0000
