data_image0
_chemical_formula_structural       Cu4K4O16P4
_chemical_formula_sum              "Cu4 K4 O16 P4"
_cell_length_a       8.07398
_cell_length_b       9.6668
_cell_length_c       4.94625
_cell_angle_alpha    90
_cell_angle_beta     92.2616
_cell_angle_gamma    90

_space_group_name_H-M_alt    "P 1"
_space_group_IT_number       1

loop_
  _space_group_symop_operation_xyz
  'x, y, z'

loop_
  _atom_site_type_symbol
  _atom_site_label
  _atom_site_symmetry_multiplicity
  _atom_site_fract_x
  _atom_site_fract_y
  _atom_site_fract_z
  _atom_site_occupancy
  Cu  Cu1       1.0  0.08600  0.99400  0.14200  1.0000
  Cu  Cu2       1.0  0.57700  0.59600  0.27300  1.0000
  Cu  Cu3       1.0  0.42300  0.09570  0.72700  1.0000
  Cu  Cu4       1.0  0.91400  0.49400  0.85800  1.0000
  K   K1        1.0  0.74300  0.23300  0.27300  1.0000
  K   K2        1.0  0.23400  0.37700  0.29700  1.0000
  K   K3        1.0  0.76600  0.87700  0.70300  1.0000
  K   K4        1.0  0.25700  0.73300  0.72700  1.0000
  O   O1        1.0  0.77900  0.61700  0.07510  1.0000
  O   O2        1.0  0.52300  0.42600  0.07720  1.0000
  O   O3        1.0  0.07460  0.60300  0.08470  1.0000
  O   O4        1.0  0.93100  0.84100  0.17800  1.0000
  O   O5        1.0  0.26800  0.89200  0.29200  1.0000
  O   O6        1.0  0.54600  0.78500  0.34500  1.0000
  O   O7        1.0  0.52800  0.04220  0.38100  1.0000
  O   O8        1.0  0.05770  0.15400  0.46500  1.0000
  O   O9        1.0  0.94200  0.65400  0.53500  1.0000
  O   O10       1.0  0.47200  0.54200  0.61900  1.0000
  O   O11       1.0  0.45400  0.28500  0.65500  1.0000
  O   O12       1.0  0.73200  0.39200  0.70800  1.0000
  O   O13       1.0  0.06860  0.34100  0.82200  1.0000
  O   O14       1.0  0.92500  0.10300  0.91500  1.0000
  O   O15       1.0  0.47700  0.92600  0.92300  1.0000
  O   O16       1.0  0.22100  0.11700  0.92500  1.0000
  P   P1        1.0  0.45500  0.91400  0.23200  1.0000
  P   P2        1.0  0.93800  0.68400  0.23500  1.0000
  P   P3        1.0  0.06190  0.18400  0.76500  1.0000
  P   P4        1.0  0.54500  0.41400  0.76800  1.0000
