data_image0
_chemical_formula_structural       O32Pb8Si8Zn8
_chemical_formula_sum              "O32 Pb8 Si8 Zn8"
_cell_length_a       8.15383
_cell_length_b       18.9141
_cell_length_c       5.04695
_cell_angle_alpha    90
_cell_angle_beta     90
_cell_angle_gamma    90

_space_group_name_H-M_alt    "P 1"
_space_group_IT_number       1

loop_
  _space_group_symop_operation_xyz
  'x, y, z'

loop_
  _atom_site_type_symbol
  _atom_site_label
  _atom_site_symmetry_multiplicity
  _atom_site_fract_x
  _atom_site_fract_y
  _atom_site_fract_z
  _atom_site_occupancy
  O   O1        1.0  0.17900  0.17900  0.03880  1.0000
  O   O2        1.0  0.67900  0.32100  0.03880  1.0000
  O   O3        1.0  0.78900  0.57500  0.04380  1.0000
  O   O4        1.0  0.28900  0.92500  0.04380  1.0000
  O   O5        1.0  0.46100  0.64600  0.06770  1.0000
  O   O6        1.0  0.96100  0.85400  0.06770  1.0000
  O   O7        1.0  0.56300  0.03740  0.09610  1.0000
  O   O8        1.0  0.06320  0.46300  0.09610  1.0000
  O   O9        1.0  0.78300  0.74100  0.09610  1.0000
  O   O10       1.0  0.28300  0.75900  0.09610  1.0000
  O   O11       1.0  0.75100  0.15300  0.09980  1.0000
  O   O12       1.0  0.25100  0.34700  0.09980  1.0000
  O   O13       1.0  0.13800  0.63400  0.12000  1.0000
  O   O14       1.0  0.63800  0.86600  0.12000  1.0000
  O   O15       1.0  0.89000  0.02380  0.14000  1.0000
  O   O16       1.0  0.39000  0.47600  0.14000  1.0000
  O   O17       1.0  0.32100  0.67900  0.53900  1.0000
  O   O18       1.0  0.82100  0.82100  0.53900  1.0000
  O   O19       1.0  0.71100  0.07500  0.54400  1.0000
  O   O20       1.0  0.21100  0.42500  0.54400  1.0000
  O   O21       1.0  0.03880  0.14600  0.56800  1.0000
  O   O22       1.0  0.53900  0.35400  0.56800  1.0000
  O   O23       1.0  0.93700  0.53700  0.59600  1.0000
  O   O24       1.0  0.43700  0.96300  0.59600  1.0000
  O   O25       1.0  0.71700  0.24100  0.59600  1.0000
  O   O26       1.0  0.21700  0.25900  0.59600  1.0000
  O   O27       1.0  0.74900  0.65300  0.60000  1.0000
  O   O28       1.0  0.24900  0.84700  0.60000  1.0000
  O   O29       1.0  0.36200  0.13400  0.62000  1.0000
  O   O30       1.0  0.86200  0.36600  0.62000  1.0000
  O   O31       1.0  0.61000  0.52400  0.64000  1.0000
  O   O32       1.0  0.11000  0.97600  0.64000  1.0000
  Pb  Pb1       1.0  0.52300  0.23300  0.25100  1.0000
  Pb  Pb2       1.0  0.02260  0.26700  0.25100  1.0000
  Pb  Pb3       1.0  0.15600  0.05760  0.26300  1.0000
  Pb  Pb4       1.0  0.65600  0.44200  0.26300  1.0000
  Pb  Pb5       1.0  0.97700  0.73300  0.75100  1.0000
  Pb  Pb6       1.0  0.47700  0.76700  0.75100  1.0000
  Pb  Pb7       1.0  0.34400  0.55800  0.76300  1.0000
  Pb  Pb8       1.0  0.84400  0.94200  0.76300  1.0000
  Si  Si1       1.0  0.29700  0.67900  0.21900  1.0000
  Si  Si2       1.0  0.79700  0.82100  0.21900  1.0000
  Si  Si3       1.0  0.73300  0.07270  0.21900  1.0000
  Si  Si4       1.0  0.23300  0.42700  0.21900  1.0000
  Si  Si5       1.0  0.20300  0.17900  0.71900  1.0000
  Si  Si6       1.0  0.70300  0.32100  0.71900  1.0000
  Si  Si7       1.0  0.76700  0.57300  0.71900  1.0000
  Si  Si8       1.0  0.26700  0.92700  0.71900  1.0000
  Zn  Zn1       1.0  0.00057  0.55800  0.22700  1.0000
  Zn  Zn2       1.0  0.50100  0.94200  0.22700  1.0000
  Zn  Zn3       1.0  0.67700  0.65500  0.23000  1.0000
  Zn  Zn4       1.0  0.17700  0.84500  0.23000  1.0000
  Zn  Zn5       1.0  0.49900  0.05800  0.72700  1.0000
  Zn  Zn6       1.0  0.99900  0.44200  0.72700  1.0000
  Zn  Zn7       1.0  0.82300  0.15500  0.73000  1.0000
  Zn  Zn8       1.0  0.32300  0.34500  0.73000  1.0000
