data_image0
_chemical_formula_structural       Mo20O32Sn4
_chemical_formula_sum              "Mo20 O32 Sn4"
_cell_length_a       7.53827
_cell_length_b       9.29178
_cell_length_c       9.99159
_cell_angle_alpha    90
_cell_angle_beta     109.747
_cell_angle_gamma    90

_space_group_name_H-M_alt    "P 1"
_space_group_IT_number       1

loop_
  _space_group_symop_operation_xyz
  'x, y, z'

loop_
  _atom_site_type_symbol
  _atom_site_label
  _atom_site_symmetry_multiplicity
  _atom_site_fract_x
  _atom_site_fract_y
  _atom_site_fract_z
  _atom_site_occupancy
  Mo  Mo1       1.0  0.39100  0.38600  0.01700  1.0000
  Mo  Mo2       1.0  0.99900  0.62200  0.08520  1.0000
  Mo  Mo3       1.0  0.82400  0.37800  0.11600  1.0000
  Mo  Mo4       1.0  0.38300  0.61700  0.18000  1.0000
  Mo  Mo5       1.0  0.19100  0.37000  0.20200  1.0000
  Mo  Mo6       1.0  0.80900  0.87000  0.29800  1.0000
  Mo  Mo7       1.0  0.61700  0.11700  0.32000  1.0000
  Mo  Mo8       1.0  0.17600  0.87800  0.38400  1.0000
  Mo  Mo9       1.0  0.00143  0.12200  0.41500  1.0000
  Mo  Mo10      1.0  0.60900  0.88600  0.48300  1.0000
  Mo  Mo11      1.0  0.39100  0.11400  0.51700  1.0000
  Mo  Mo12      1.0  0.99900  0.87800  0.58500  1.0000
  Mo  Mo13      1.0  0.82400  0.12200  0.61600  1.0000
  Mo  Mo14      1.0  0.38300  0.88300  0.68000  1.0000
  Mo  Mo15      1.0  0.19100  0.13000  0.70200  1.0000
  Mo  Mo16      1.0  0.80900  0.63000  0.79800  1.0000
  Mo  Mo17      1.0  0.61700  0.38300  0.82000  1.0000
  Mo  Mo18      1.0  0.17600  0.62200  0.88400  1.0000
  Mo  Mo19      1.0  0.00143  0.37800  0.91500  1.0000
  Mo  Mo20      1.0  0.60900  0.61400  0.98300  1.0000
  O   O1        1.0  0.39600  0.74700  0.01850  1.0000
  O   O2        1.0  0.99500  0.23100  0.06750  1.0000
  O   O3        1.0  0.79800  0.75000  0.11900  1.0000
  O   O4        1.0  0.59800  0.99500  0.15000  1.0000
  O   O5        1.0  0.61700  0.50000  0.17100  1.0000
  O   O6        1.0  0.40000  0.24400  0.17500  1.0000
  O   O7        1.0  0.20300  0.74900  0.21900  1.0000
  O   O8        1.0  0.98500  0.00324  0.23500  1.0000
  O   O9        1.0  0.01500  0.50300  0.26500  1.0000
  O   O10       1.0  0.79700  0.24900  0.28100  1.0000
  O   O11       1.0  0.60000  0.74400  0.32500  1.0000
  O   O12       1.0  0.38300  0.00000  0.32900  1.0000
  O   O13       1.0  0.40200  0.49500  0.35000  1.0000
  O   O14       1.0  0.20200  0.25000  0.38100  1.0000
  O   O15       1.0  0.00522  0.73100  0.43300  1.0000
  O   O16       1.0  0.60400  0.24700  0.48200  1.0000
  O   O17       1.0  0.39600  0.75300  0.51800  1.0000
  O   O18       1.0  0.99500  0.26900  0.56700  1.0000
  O   O19       1.0  0.79800  0.75000  0.61900  1.0000
  O   O20       1.0  0.59800  0.50500  0.65000  1.0000
  O   O21       1.0  0.61700  0.00049  0.67100  1.0000
  O   O22       1.0  0.40000  0.25600  0.67500  1.0000
  O   O23       1.0  0.20300  0.75100  0.71900  1.0000
  O   O24       1.0  0.98500  0.49700  0.73500  1.0000
  O   O25       1.0  0.01500  0.99700  0.76500  1.0000
  O   O26       1.0  0.79700  0.25100  0.78100  1.0000
  O   O27       1.0  0.60000  0.75600  0.82500  1.0000
  O   O28       1.0  0.38300  0.50000  0.82900  1.0000
  O   O29       1.0  0.40200  0.00499  0.85000  1.0000
  O   O30       1.0  0.20200  0.25000  0.88100  1.0000
  O   O31       1.0  0.00522  0.76900  0.93300  1.0000
  O   O32       1.0  0.60400  0.25300  0.98200  1.0000
  Sn  Sn1       1.0  0.26600  0.98100  0.02220  1.0000
  Sn  Sn2       1.0  0.73400  0.48100  0.47800  1.0000
  Sn  Sn3       1.0  0.26600  0.51900  0.52200  1.0000
  Sn  Sn4       1.0  0.73400  0.01860  0.97800  1.0000
