data_image0
_chemical_formula_structural       H16N4O26P8Sn2
_chemical_formula_sum              "H16 N4 O26 P8 Sn2"
_cell_length_a       14.5135
_cell_length_b       7.89354
_cell_length_c       5.04721
_cell_angle_alpha    99.5563
_cell_angle_beta     96.4037
_cell_angle_gamma    82.352

_space_group_name_H-M_alt    "P 1"
_space_group_IT_number       1

loop_
  _space_group_symop_operation_xyz
  'x, y, z'

loop_
  _atom_site_type_symbol
  _atom_site_label
  _atom_site_symmetry_multiplicity
  _atom_site_fract_x
  _atom_site_fract_y
  _atom_site_fract_z
  _atom_site_occupancy
  H   H1        1.0  0.51900  0.77900  0.02110  1.0000
  H   H2        1.0  0.04430  0.26500  0.06830  1.0000
  H   H3        1.0  0.57500  0.27900  0.18800  1.0000
  H   H4        1.0  0.96100  0.40000  0.22800  1.0000
  H   H5        1.0  0.47000  0.39200  0.24000  1.0000
  H   H6        1.0  0.07380  0.42900  0.31300  1.0000
  H   H7        1.0  0.49400  0.19400  0.31500  1.0000
  H   H8        1.0  0.03010  0.26100  0.40100  1.0000
  H   H9        1.0  0.97000  0.73900  0.59900  1.0000
  H   H10       1.0  0.50600  0.80600  0.68500  1.0000
  H   H11       1.0  0.92600  0.57100  0.68700  1.0000
  H   H12       1.0  0.53000  0.60800  0.76000  1.0000
  H   H13       1.0  0.03870  0.60000  0.77200  1.0000
  H   H14       1.0  0.42500  0.72100  0.81200  1.0000
  H   H15       1.0  0.95600  0.73500  0.93200  1.0000
  H   H16       1.0  0.48100  0.22100  0.97900  1.0000
  N   N1        1.0  0.50500  0.26900  0.17600  1.0000
  N   N2        1.0  0.02900  0.33600  0.25200  1.0000
  N   N3        1.0  0.97100  0.66400  0.74800  1.0000
  N   N4        1.0  0.49500  0.73100  0.82400  1.0000
  O   O1        1.0  0.69500  0.29200  0.02770  1.0000
  O   O2        1.0  0.29400  0.40400  0.03340  1.0000
  O   O3        1.0  0.82600  0.80100  0.07960  1.0000
  O   O4        1.0  0.34400  0.04810  0.21100  1.0000
  O   O5        1.0  0.15100  0.94700  0.24600  1.0000
  O   O6        1.0  0.85800  0.51400  0.25400  1.0000
  O   O7        1.0  0.04390  0.71700  0.27800  1.0000
  O   O8        1.0  0.86800  0.13900  0.31000  1.0000
  O   O9        1.0  0.68000  0.04570  0.35100  1.0000
  O   O10       1.0  0.22000  0.64800  0.35500  1.0000
  O   O11       1.0  0.55900  0.83900  0.36400  1.0000
  O   O12       1.0  0.39800  0.57400  0.36800  1.0000
  O   O13       1.0  0.73400  0.73800  0.44400  1.0000
  O   O14       1.0  0.26600  0.26200  0.55600  1.0000
  O   O15       1.0  0.60200  0.42600  0.63200  1.0000
  O   O16       1.0  0.44100  0.16100  0.63600  1.0000
  O   O17       1.0  0.78000  0.35200  0.64500  1.0000
  O   O18       1.0  0.32000  0.95400  0.64900  1.0000
  O   O19       1.0  0.13200  0.86100  0.69000  1.0000
  O   O20       1.0  0.95600  0.28300  0.72200  1.0000
  O   O21       1.0  0.14200  0.48600  0.74600  1.0000
  O   O22       1.0  0.84900  0.05290  0.75400  1.0000
  O   O23       1.0  0.65600  0.95200  0.78900  1.0000
  O   O24       1.0  0.17400  0.19900  0.92000  1.0000
  O   O25       1.0  0.70600  0.59600  0.96700  1.0000
  O   O26       1.0  0.30500  0.70800  0.97200  1.0000
  P   P1        1.0  0.78800  0.65600  0.18800  1.0000
  P   P2        1.0  0.31000  0.59400  0.19300  1.0000
  P   P3        1.0  0.13000  0.79700  0.38400  1.0000
  P   P4        1.0  0.65000  0.90000  0.48000  1.0000
  P   P5        1.0  0.35000  0.09990  0.52000  1.0000
  P   P6        1.0  0.87000  0.20300  0.61600  1.0000
  P   P7        1.0  0.69000  0.40600  0.80700  1.0000
  P   P8        1.0  0.21200  0.34400  0.81200  1.0000
  Sn  Sn1       1.0  0.76300  0.04750  0.04750  1.0000
  Sn  Sn2       1.0  0.23700  0.95200  0.95200  1.0000
