data_image0
_chemical_formula_structural       Ba8S16Sn4
_chemical_formula_sum              "Ba8 S16 Sn4"
_cell_length_a       8.59882
_cell_length_b       8.67669
_cell_length_c       12.1189
_cell_angle_alpha    90
_cell_angle_beta     112.736
_cell_angle_gamma    90

_space_group_name_H-M_alt    "P 1"
_space_group_IT_number       1

loop_
  _space_group_symop_operation_xyz
  'x, y, z'

loop_
  _atom_site_type_symbol
  _atom_site_label
  _atom_site_symmetry_multiplicity
  _atom_site_fract_x
  _atom_site_fract_y
  _atom_site_fract_z
  _atom_site_occupancy
  Ba  Ba1       1.0  0.95900  0.31000  0.15000  1.0000
  Ba  Ba2       1.0  0.42800  0.87700  0.16600  1.0000
  Ba  Ba3       1.0  0.57200  0.37700  0.33400  1.0000
  Ba  Ba4       1.0  0.04110  0.81000  0.35000  1.0000
  Ba  Ba5       1.0  0.95900  0.19000  0.65000  1.0000
  Ba  Ba6       1.0  0.42800  0.62300  0.66600  1.0000
  Ba  Ba7       1.0  0.57200  0.12300  0.83400  1.0000
  Ba  Ba8       1.0  0.04110  0.69000  0.85000  1.0000
  S   S1        1.0  0.91300  0.88300  0.05330  1.0000
  S   S2        1.0  0.57300  0.19300  0.09770  1.0000
  S   S3        1.0  0.24700  0.51600  0.10900  1.0000
  S   S4        1.0  0.73200  0.60200  0.20600  1.0000
  S   S5        1.0  0.26800  0.10200  0.29400  1.0000
  S   S6        1.0  0.75300  0.01570  0.39100  1.0000
  S   S7        1.0  0.42700  0.69300  0.40200  1.0000
  S   S8        1.0  0.08660  0.38300  0.44700  1.0000
  S   S9        1.0  0.91300  0.61700  0.55300  1.0000
  S   S10       1.0  0.57300  0.30700  0.59800  1.0000
  S   S11       1.0  0.24700  0.98400  0.60900  1.0000
  S   S12       1.0  0.73200  0.89800  0.70600  1.0000
  S   S13       1.0  0.26800  0.39800  0.79400  1.0000
  S   S14       1.0  0.75300  0.48400  0.89100  1.0000
  S   S15       1.0  0.42700  0.80700  0.90200  1.0000
  S   S16       1.0  0.08660  0.11700  0.94700  1.0000
  Sn  Sn1       1.0  0.70100  0.68900  0.00925  1.0000
  Sn  Sn2       1.0  0.29900  0.18900  0.49100  1.0000
  Sn  Sn3       1.0  0.70100  0.81100  0.50900  1.0000
  Sn  Sn4       1.0  0.29900  0.31100  0.99100  1.0000
