data_image0
_chemical_formula_structural       F8Na16O24P8
_chemical_formula_sum              "F8 Na16 O24 P8"
_cell_length_a       5.31229
_cell_length_b       6.82923
_cell_length_c       18.851
_cell_angle_alpha    90
_cell_angle_beta     90
_cell_angle_gamma    90

_space_group_name_H-M_alt    "P 1"
_space_group_IT_number       1

loop_
  _space_group_symop_operation_xyz
  'x, y, z'

loop_
  _atom_site_type_symbol
  _atom_site_label
  _atom_site_symmetry_multiplicity
  _atom_site_fract_x
  _atom_site_fract_y
  _atom_site_fract_z
  _atom_site_occupancy
  F   F1        1.0  0.21500  0.74300  0.04570  1.0000
  F   F2        1.0  0.32000  0.73400  0.18400  1.0000
  F   F3        1.0  0.68000  0.23400  0.31600  1.0000
  F   F4        1.0  0.78500  0.24300  0.45400  1.0000
  F   F5        1.0  0.28500  0.25700  0.54600  1.0000
  F   F6        1.0  0.18000  0.26600  0.68400  1.0000
  F   F7        1.0  0.82000  0.76600  0.81600  1.0000
  F   F8        1.0  0.71500  0.75700  0.95400  1.0000
  Na  Na1       1.0  0.25200  0.41100  0.03950  1.0000
  Na  Na2       1.0  0.74500  0.78800  0.12100  1.0000
  Na  Na3       1.0  0.73800  0.27900  0.13500  1.0000
  Na  Na4       1.0  0.28100  0.05980  0.19100  1.0000
  Na  Na5       1.0  0.71900  0.56000  0.30900  1.0000
  Na  Na6       1.0  0.26200  0.77900  0.36500  1.0000
  Na  Na7       1.0  0.25500  0.28800  0.37900  1.0000
  Na  Na8       1.0  0.74800  0.91100  0.46100  1.0000
  Na  Na9       1.0  0.24800  0.58900  0.53900  1.0000
  Na  Na10      1.0  0.75500  0.21200  0.62100  1.0000
  Na  Na11      1.0  0.76200  0.72100  0.63500  1.0000
  Na  Na12      1.0  0.21900  0.94000  0.69100  1.0000
  Na  Na13      1.0  0.78100  0.44000  0.80900  1.0000
  Na  Na14      1.0  0.23800  0.22100  0.86500  1.0000
  Na  Na15      1.0  0.24500  0.71200  0.87900  1.0000
  Na  Na16      1.0  0.75200  0.08900  0.96100  1.0000
  O   O1        1.0  0.72700  0.50600  0.04850  1.0000
  O   O2        1.0  0.49000  0.03560  0.06430  1.0000
  O   O3        1.0  0.01590  0.06470  0.07040  1.0000
  O   O4        1.0  0.31500  0.37800  0.16200  1.0000
  O   O5        1.0  0.91400  0.55400  0.20000  1.0000
  O   O6        1.0  0.72400  0.01850  0.21200  1.0000
  O   O7        1.0  0.27600  0.51900  0.28800  1.0000
  O   O8        1.0  0.08630  0.05420  0.30000  1.0000
  O   O9        1.0  0.68500  0.87800  0.33800  1.0000
  O   O10       1.0  0.98400  0.56500  0.43000  1.0000
  O   O11       1.0  0.51000  0.53600  0.43600  1.0000
  O   O12       1.0  0.27300  0.00641  0.45200  1.0000
  O   O13       1.0  0.77300  0.49400  0.54800  1.0000
  O   O14       1.0  0.00956  0.96400  0.56400  1.0000
  O   O15       1.0  0.48400  0.93500  0.57000  1.0000
  O   O16       1.0  0.18500  0.62200  0.66200  1.0000
  O   O17       1.0  0.58600  0.44600  0.70000  1.0000
  O   O18       1.0  0.77600  0.98100  0.71200  1.0000
  O   O19       1.0  0.22400  0.48100  0.78800  1.0000
  O   O20       1.0  0.41400  0.94600  0.80000  1.0000
  O   O21       1.0  0.81500  0.12200  0.83800  1.0000
  O   O22       1.0  0.51600  0.43500  0.93000  1.0000
  O   O23       1.0  0.99000  0.46400  0.93600  1.0000
  O   O24       1.0  0.22700  0.99400  0.95200  1.0000
  P   P1        1.0  0.24000  0.97800  0.03160  1.0000
  P   P2        1.0  0.19500  0.52600  0.21100  1.0000
  P   P3        1.0  0.80500  0.02600  0.28900  1.0000
  P   P4        1.0  0.76000  0.47800  0.46800  1.0000
  P   P5        1.0  0.26000  0.02200  0.53200  1.0000
  P   P6        1.0  0.30500  0.47400  0.71100  1.0000
  P   P7        1.0  0.69500  0.97400  0.78900  1.0000
  P   P8        1.0  0.74000  0.52200  0.96800  1.0000
