data_image0
_chemical_formula_structural       Ge24Pt16Sm12
_chemical_formula_sum              "Ge24 Pt16 Sm12"
_cell_length_a       26.2809
_cell_length_b       4.41677
_cell_length_c       8.87349
_cell_angle_alpha    90
_cell_angle_beta     90
_cell_angle_gamma    90

_space_group_name_H-M_alt    "P 1"
_space_group_IT_number       1

loop_
  _space_group_symop_operation_xyz
  'x, y, z'

loop_
  _atom_site_type_symbol
  _atom_site_label
  _atom_site_symmetry_multiplicity
  _atom_site_fract_x
  _atom_site_fract_y
  _atom_site_fract_z
  _atom_site_occupancy
  Ge  Ge1       1.0  0.78500  0.75000  0.02250  1.0000
  Ge  Ge2       1.0  0.00148  0.25000  0.12100  1.0000
  Ge  Ge3       1.0  0.36200  0.25000  0.12600  1.0000
  Ge  Ge4       1.0  0.14200  0.75000  0.12700  1.0000
  Ge  Ge5       1.0  0.50300  0.75000  0.12700  1.0000
  Ge  Ge6       1.0  0.71500  0.25000  0.22700  1.0000
  Ge  Ge7       1.0  0.21500  0.25000  0.27300  1.0000
  Ge  Ge8       1.0  0.00258  0.75000  0.37300  1.0000
  Ge  Ge9       1.0  0.64200  0.75000  0.37300  1.0000
  Ge  Ge10      1.0  0.86200  0.25000  0.37400  1.0000
  Ge  Ge11      1.0  0.50100  0.25000  0.37900  1.0000
  Ge  Ge12      1.0  0.28500  0.75000  0.47700  1.0000
  Ge  Ge13      1.0  0.71500  0.25000  0.52300  1.0000
  Ge  Ge14      1.0  0.49900  0.75000  0.62100  1.0000
  Ge  Ge15      1.0  0.13800  0.75000  0.62600  1.0000
  Ge  Ge16      1.0  0.35800  0.25000  0.62700  1.0000
  Ge  Ge17      1.0  0.99700  0.25000  0.62700  1.0000
  Ge  Ge18      1.0  0.78500  0.75000  0.72700  1.0000
  Ge  Ge19      1.0  0.28500  0.75000  0.77300  1.0000
  Ge  Ge20      1.0  0.49700  0.25000  0.87300  1.0000
  Ge  Ge21      1.0  0.85800  0.25000  0.87300  1.0000
  Ge  Ge22      1.0  0.63800  0.75000  0.87400  1.0000
  Ge  Ge23      1.0  0.99900  0.75000  0.87900  1.0000
  Ge  Ge24      1.0  0.21500  0.25000  0.97700  1.0000
  Pt  Pt1       1.0  0.68700  0.75000  0.12200  1.0000
  Pt  Pt2       1.0  0.04910  0.75000  0.12200  1.0000
  Pt  Pt3       1.0  0.81300  0.25000  0.12400  1.0000
  Pt  Pt4       1.0  0.45600  0.25000  0.12800  1.0000
  Pt  Pt5       1.0  0.95600  0.25000  0.37200  1.0000
  Pt  Pt6       1.0  0.31300  0.25000  0.37600  1.0000
  Pt  Pt7       1.0  0.54900  0.75000  0.37800  1.0000
  Pt  Pt8       1.0  0.18700  0.75000  0.37800  1.0000
  Pt  Pt9       1.0  0.81300  0.25000  0.62200  1.0000
  Pt  Pt10      1.0  0.45100  0.25000  0.62200  1.0000
  Pt  Pt11      1.0  0.68700  0.75000  0.62400  1.0000
  Pt  Pt12      1.0  0.04410  0.75000  0.62800  1.0000
  Pt  Pt13      1.0  0.54400  0.75000  0.87200  1.0000
  Pt  Pt14      1.0  0.18700  0.75000  0.87600  1.0000
  Pt  Pt15      1.0  0.95100  0.25000  0.87800  1.0000
  Pt  Pt16      1.0  0.31300  0.25000  0.87800  1.0000
  Sm  Sm1       1.0  0.59300  0.25000  0.11600  1.0000
  Sm  Sm2       1.0  0.28000  0.75000  0.12500  1.0000
  Sm  Sm3       1.0  0.90700  0.75000  0.13400  1.0000
  Sm  Sm4       1.0  0.40700  0.75000  0.36600  1.0000
  Sm  Sm5       1.0  0.78000  0.75000  0.37500  1.0000
  Sm  Sm6       1.0  0.09260  0.25000  0.38400  1.0000
  Sm  Sm7       1.0  0.90700  0.75000  0.61600  1.0000
  Sm  Sm8       1.0  0.22000  0.25000  0.62500  1.0000
  Sm  Sm9       1.0  0.59300  0.25000  0.63400  1.0000
  Sm  Sm10      1.0  0.09280  0.25000  0.86600  1.0000
  Sm  Sm11      1.0  0.72000  0.25000  0.87500  1.0000
  Sm  Sm12      1.0  0.40700  0.75000  0.88400  1.0000
