data_image0
_chemical_formula_structural       C2Cd4Cl4H20O22P4
_chemical_formula_sum              "C2 Cd4 Cl4 H20 O22 P4"
_cell_length_a       5.60663
_cell_length_b       9.45228
_cell_length_c       12.068
_cell_angle_alpha    77.4257
_cell_angle_beta     82.5507
_cell_angle_gamma    74.18

_space_group_name_H-M_alt    "P 1"
_space_group_IT_number       1

loop_
  _space_group_symop_operation_xyz
  'x, y, z'

loop_
  _atom_site_type_symbol
  _atom_site_label
  _atom_site_symmetry_multiplicity
  _atom_site_fract_x
  _atom_site_fract_y
  _atom_site_fract_z
  _atom_site_occupancy
  C   C1        1.0  0.33600  0.44800  0.23000  1.0000
  C   C2        1.0  0.66400  0.55200  0.77000  1.0000
  Cd  Cd1       1.0  0.36400  0.92500  0.24700  1.0000
  Cd  Cd2       1.0  0.75800  0.39900  0.42200  1.0000
  Cd  Cd3       1.0  0.24200  0.60100  0.57800  1.0000
  Cd  Cd4       1.0  0.63600  0.07470  0.75300  1.0000
  Cl  Cl1       1.0  0.17400  0.47300  0.10700  1.0000
  Cl  Cl2       1.0  0.64500  0.46400  0.18200  1.0000
  Cl  Cl3       1.0  0.35500  0.53600  0.81800  1.0000
  Cl  Cl4       1.0  0.82600  0.52700  0.89300  1.0000
  H   H1        1.0  0.71700  0.27800  0.00022  1.0000
  H   H2        1.0  0.23500  0.95000  0.03190  1.0000
  H   H3        1.0  0.71800  0.85800  0.06250  1.0000
  H   H4        1.0  0.04020  0.09370  0.07140  1.0000
  H   H5        1.0  0.62900  0.17600  0.11600  1.0000
  H   H6        1.0  0.87700  0.79700  0.17100  1.0000
  H   H7        1.0  0.74600  0.75000  0.37700  1.0000
  H   H8        1.0  0.87700  0.94400  0.37800  1.0000
  H   H9        1.0  0.00782  0.07350  0.38700  1.0000
  H   H10       1.0  0.55900  0.83100  0.46700  1.0000
  H   H11       1.0  0.44100  0.16900  0.53300  1.0000
  H   H12       1.0  0.99200  0.92600  0.61300  1.0000
  H   H13       1.0  0.12300  0.05580  0.62200  1.0000
  H   H14       1.0  0.25400  0.25000  0.62300  1.0000
  H   H15       1.0  0.12300  0.20300  0.82900  1.0000
  H   H16       1.0  0.37100  0.82400  0.88400  1.0000
  H   H17       1.0  0.96000  0.90600  0.92900  1.0000
  H   H18       1.0  0.28200  0.14200  0.93800  1.0000
  H   H19       1.0  0.76500  0.04960  0.96800  1.0000
  H   H20       1.0  0.28300  0.72200  0.00000  1.0000
  O   O1        1.0  0.74800  0.17700  0.04500  1.0000
  O   O2        1.0  0.22100  0.03890  0.06820  1.0000
  O   O3        1.0  0.70900  0.81300  0.14500  1.0000
  O   O4        1.0  0.17100  0.74900  0.21900  1.0000
  O   O5        1.0  0.46200  0.15100  0.22900  1.0000
  O   O6        1.0  0.94000  0.58700  0.36400  1.0000
  O   O7        1.0  0.10200  0.24400  0.36600  1.0000
  O   O8        1.0  0.03850  0.96800  0.37900  1.0000
  O   O9        1.0  0.64000  0.85200  0.38800  1.0000
  O   O10       1.0  0.38000  0.58700  0.39700  1.0000
  O   O11       1.0  0.54100  0.23700  0.40500  1.0000
  O   O12       1.0  0.45900  0.76300  0.59500  1.0000
  O   O13       1.0  0.62000  0.41300  0.60300  1.0000
  O   O14       1.0  0.36000  0.14800  0.61200  1.0000
  O   O15       1.0  0.96100  0.03190  0.62100  1.0000
  O   O16       1.0  0.89800  0.75600  0.63300  1.0000
  O   O17       1.0  0.05960  0.41300  0.63600  1.0000
  O   O18       1.0  0.53800  0.84900  0.77100  1.0000
  O   O19       1.0  0.82900  0.25100  0.78100  1.0000
  O   O20       1.0  0.29100  0.18700  0.85500  1.0000
  O   O21       1.0  0.77900  0.96100  0.93200  1.0000
  O   O22       1.0  0.25200  0.82300  0.95500  1.0000
  P   P1        1.0  0.19400  0.60500  0.30800  1.0000
  P   P2        1.0  0.36100  0.25500  0.31400  1.0000
  P   P3        1.0  0.63900  0.74500  0.68600  1.0000
  P   P4        1.0  0.80600  0.39500  0.69200  1.0000
