data_image0
_chemical_formula_structural       Br6La18Sb32
_chemical_formula_sum              "Br6 La18 Sb32"
_cell_length_a       21.4419
_cell_length_b       21.442
_cell_length_c       4.35047
_cell_angle_alpha    90
_cell_angle_beta     90
_cell_angle_gamma    119.999

_space_group_name_H-M_alt    "P 1"
_space_group_IT_number       1

loop_
  _space_group_symop_operation_xyz
  'x, y, z'

loop_
  _atom_site_type_symbol
  _atom_site_label
  _atom_site_symmetry_multiplicity
  _atom_site_fract_x
  _atom_site_fract_y
  _atom_site_fract_z
  _atom_site_occupancy
  Br  Br1       1.0  0.90100  0.05060  0.25000  1.0000
  Br  Br2       1.0  0.14900  0.09870  0.25000  1.0000
  Br  Br3       1.0  0.94900  0.85100  0.25000  1.0000
  Br  Br4       1.0  0.05060  0.14900  0.75000  1.0000
  Br  Br5       1.0  0.85100  0.90100  0.75000  1.0000
  Br  Br6       1.0  0.09870  0.94900  0.75000  1.0000
  La  La1       1.0  0.69100  0.23300  0.25000  1.0000
  La  La2       1.0  0.15100  0.24600  0.25000  1.0000
  La  La3       1.0  0.54200  0.30900  0.25000  1.0000
  La  La4       1.0  0.39400  0.40200  0.25000  1.0000
  La  La5       1.0  0.76700  0.45800  0.25000  1.0000
  La  La6       1.0  0.00715  0.60600  0.25000  1.0000
  La  La7       1.0  0.09450  0.84900  0.25000  1.0000
  La  La8       1.0  0.75400  0.90500  0.25000  1.0000
  La  La9       1.0  0.59800  0.99300  0.25000  1.0000
  La  La10      1.0  0.40200  0.00715  0.75000  1.0000
  La  La11      1.0  0.24600  0.09450  0.75000  1.0000
  La  La12      1.0  0.90500  0.15100  0.75000  1.0000
  La  La13      1.0  0.99300  0.39400  0.75000  1.0000
  La  La14      1.0  0.23300  0.54200  0.75000  1.0000
  La  La15      1.0  0.60600  0.59800  0.75000  1.0000
  La  La16      1.0  0.45800  0.69100  0.75000  1.0000
  La  La17      1.0  0.84900  0.75400  0.75000  1.0000
  La  La18      1.0  0.30900  0.76700  0.75000  1.0000
  Sb  Sb1       1.0  0.77400  0.13100  0.25000  1.0000
  Sb  Sb2       1.0  0.50900  0.13700  0.25000  1.0000
  Sb  Sb3       1.0  0.35700  0.22600  0.25000  1.0000
  Sb  Sb4       1.0  0.01000  0.28600  0.25000  1.0000
  Sb  Sb5       1.0  0.86300  0.37200  0.25000  1.0000
  Sb  Sb6       1.0  0.25000  0.42800  0.25000  1.0000
  Sb  Sb7       1.0  0.62800  0.49100  0.25000  1.0000
  Sb  Sb8       1.0  0.10400  0.51500  0.25000  1.0000
  Sb  Sb9       1.0  0.48500  0.58800  0.25000  1.0000
  Sb  Sb10      1.0  0.86900  0.64300  0.25000  1.0000
  Sb  Sb11      1.0  0.33300  0.66700  0.25000  1.0000
  Sb  Sb12      1.0  0.71400  0.72400  0.25000  1.0000
  Sb  Sb13      1.0  0.17800  0.75000  0.25000  1.0000
  Sb  Sb14      1.0  0.57200  0.82200  0.25000  1.0000
  Sb  Sb15      1.0  0.41200  0.89600  0.25000  1.0000
  Sb  Sb16      1.0  0.27600  0.99000  0.25000  1.0000
  Sb  Sb17      1.0  0.72400  0.01000  0.75000  1.0000
  Sb  Sb18      1.0  0.58800  0.10400  0.75000  1.0000
  Sb  Sb19      1.0  0.42800  0.17800  0.75000  1.0000
  Sb  Sb20      1.0  0.82200  0.25000  0.75000  1.0000
  Sb  Sb21      1.0  0.28600  0.27600  0.75000  1.0000
  Sb  Sb22      1.0  0.66700  0.33300  0.75000  1.0000
  Sb  Sb23      1.0  0.13100  0.35700  0.75000  1.0000
  Sb  Sb24      1.0  0.51500  0.41200  0.75000  1.0000
  Sb  Sb25      1.0  0.89600  0.48500  0.75000  1.0000
  Sb  Sb26      1.0  0.37200  0.50900  0.75000  1.0000
  Sb  Sb27      1.0  0.75000  0.57200  0.75000  1.0000
  Sb  Sb28      1.0  0.13700  0.62800  0.75000  1.0000
  Sb  Sb29      1.0  0.99000  0.71400  0.75000  1.0000
  Sb  Sb30      1.0  0.64300  0.77400  0.75000  1.0000
  Sb  Sb31      1.0  0.49100  0.86300  0.75000  1.0000
  Sb  Sb32      1.0  0.22600  0.86900  0.75000  1.0000
