data_image0
_chemical_formula_structural       F16O24S8Xe8
_chemical_formula_sum              "F16 O24 S8 Xe8"
_cell_length_a       9.35317
_cell_length_b       9.65251
_cell_length_c       9.63834
_cell_angle_alpha    90
_cell_angle_beta     90
_cell_angle_gamma    90

_space_group_name_H-M_alt    "P 1"
_space_group_IT_number       1

loop_
  _space_group_symop_operation_xyz
  'x, y, z'

loop_
  _atom_site_type_symbol
  _atom_site_label
  _atom_site_symmetry_multiplicity
  _atom_site_fract_x
  _atom_site_fract_y
  _atom_site_fract_z
  _atom_site_occupancy
  F   F1        1.0  0.44800  0.37700  0.08060  1.0000
  F   F2        1.0  0.05160  0.87700  0.08060  1.0000
  F   F3        1.0  0.16800  0.44300  0.21000  1.0000
  F   F4        1.0  0.33200  0.94300  0.21000  1.0000
  F   F5        1.0  0.66800  0.44300  0.29000  1.0000
  F   F6        1.0  0.83200  0.94300  0.29000  1.0000
  F   F7        1.0  0.94800  0.37700  0.41900  1.0000
  F   F8        1.0  0.55200  0.87700  0.41900  1.0000
  F   F9        1.0  0.44800  0.12300  0.58100  1.0000
  F   F10       1.0  0.05160  0.62300  0.58100  1.0000
  F   F11       1.0  0.16800  0.05690  0.71000  1.0000
  F   F12       1.0  0.33200  0.55700  0.71000  1.0000
  F   F13       1.0  0.66800  0.05690  0.79000  1.0000
  F   F14       1.0  0.83200  0.55700  0.79000  1.0000
  F   F15       1.0  0.94800  0.12300  0.91900  1.0000
  F   F16       1.0  0.55200  0.62300  0.91900  1.0000
  O   O1        1.0  0.17900  0.18000  0.01640  1.0000
  O   O2        1.0  0.32100  0.68000  0.01640  1.0000
  O   O3        1.0  0.50600  0.13700  0.04760  1.0000
  O   O4        1.0  0.99400  0.63700  0.04760  1.0000
  O   O5        1.0  0.95400  0.21700  0.14900  1.0000
  O   O6        1.0  0.54600  0.71700  0.14900  1.0000
  O   O7        1.0  0.45400  0.21700  0.35100  1.0000
  O   O8        1.0  0.04570  0.71700  0.35100  1.0000
  O   O9        1.0  0.00567  0.13700  0.45200  1.0000
  O   O10       1.0  0.49400  0.63700  0.45200  1.0000
  O   O11       1.0  0.67900  0.18000  0.48400  1.0000
  O   O12       1.0  0.82100  0.68000  0.48400  1.0000
  O   O13       1.0  0.17900  0.32000  0.51600  1.0000
  O   O14       1.0  0.32100  0.82000  0.51600  1.0000
  O   O15       1.0  0.50600  0.36300  0.54800  1.0000
  O   O16       1.0  0.99400  0.86300  0.54800  1.0000
  O   O17       1.0  0.95400  0.28300  0.64900  1.0000
  O   O18       1.0  0.54600  0.78300  0.64900  1.0000
  O   O19       1.0  0.45400  0.28300  0.85100  1.0000
  O   O20       1.0  0.04570  0.78300  0.85100  1.0000
  O   O21       1.0  0.00567  0.36300  0.95200  1.0000
  O   O22       1.0  0.49400  0.86300  0.95200  1.0000
  O   O23       1.0  0.67900  0.32000  0.98400  1.0000
  O   O24       1.0  0.82100  0.82000  0.98400  1.0000
  S   S1        1.0  0.03280  0.22400  0.02180  1.0000
  S   S2        1.0  0.46700  0.72400  0.02180  1.0000
  S   S3        1.0  0.53300  0.22400  0.47800  1.0000
  S   S4        1.0  0.96700  0.72400  0.47800  1.0000
  S   S5        1.0  0.03280  0.27600  0.52200  1.0000
  S   S6        1.0  0.46700  0.77600  0.52200  1.0000
  S   S7        1.0  0.53300  0.27600  0.97800  1.0000
  S   S8        1.0  0.96700  0.77600  0.97800  1.0000
  Xe  Xe1       1.0  0.67800  0.04090  0.17400  1.0000
  Xe  Xe2       1.0  0.82200  0.54100  0.17400  1.0000
  Xe  Xe3       1.0  0.17800  0.04090  0.32600  1.0000
  Xe  Xe4       1.0  0.32200  0.54100  0.32600  1.0000
  Xe  Xe5       1.0  0.67800  0.45900  0.67400  1.0000
  Xe  Xe6       1.0  0.82200  0.95900  0.67400  1.0000
  Xe  Xe7       1.0  0.17800  0.45900  0.82600  1.0000
  Xe  Xe8       1.0  0.32200  0.95900  0.82600  1.0000
