data_image0
_chemical_formula_structural       H32N16Te4Zn4
_chemical_formula_sum              "H32 N16 Te4 Zn4"
_cell_length_a       7.09958
_cell_length_b       11.256
_cell_length_c       7.20538
_cell_angle_alpha    90
_cell_angle_beta     101.307
_cell_angle_gamma    90

_space_group_name_H-M_alt    "P 1"
_space_group_IT_number       1

loop_
  _space_group_symop_operation_xyz
  'x, y, z'

loop_
  _atom_site_type_symbol
  _atom_site_label
  _atom_site_symmetry_multiplicity
  _atom_site_fract_x
  _atom_site_fract_y
  _atom_site_fract_z
  _atom_site_occupancy
  H   H1        1.0  0.74000  0.02480  0.02060  1.0000
  H   H2        1.0  0.84200  0.42700  0.06420  1.0000
  H   H3        1.0  0.03450  0.96800  0.10400  1.0000
  H   H4        1.0  0.70700  0.21900  0.13200  1.0000
  H   H5        1.0  0.36100  0.03260  0.14500  1.0000
  H   H6        1.0  0.42500  0.89200  0.18700  1.0000
  H   H7        1.0  0.57400  0.42800  0.24800  1.0000
  H   H8        1.0  0.75500  0.03230  0.25400  1.0000
  H   H9        1.0  0.93500  0.21100  0.25400  1.0000
  H   H10       1.0  0.34700  0.26400  0.33200  1.0000
  H   H11       1.0  0.08220  0.39500  0.37100  1.0000
  H   H12       1.0  0.72800  0.34700  0.39900  1.0000
  H   H13       1.0  0.26400  0.00378  0.42800  1.0000
  H   H14       1.0  0.90000  0.54800  0.44300  1.0000
  H   H15       1.0  0.92800  0.80900  0.44300  1.0000
  H   H16       1.0  0.38400  0.37500  0.48600  1.0000
  H   H17       1.0  0.61600  0.87500  0.51400  1.0000
  H   H18       1.0  0.07200  0.30900  0.55700  1.0000
  H   H19       1.0  0.09970  0.04750  0.55700  1.0000
  H   H20       1.0  0.73600  0.50400  0.57200  1.0000
  H   H21       1.0  0.27200  0.84700  0.60100  1.0000
  H   H22       1.0  0.91800  0.89500  0.62900  1.0000
  H   H23       1.0  0.65300  0.76400  0.66800  1.0000
  H   H24       1.0  0.06550  0.71100  0.74600  1.0000
  H   H25       1.0  0.24500  0.53200  0.74600  1.0000
  H   H26       1.0  0.42600  0.92800  0.75200  1.0000
  H   H27       1.0  0.57500  0.39200  0.81300  1.0000
  H   H28       1.0  0.63900  0.53300  0.85500  1.0000
  H   H29       1.0  0.29300  0.71900  0.86800  1.0000
  H   H30       1.0  0.96500  0.46800  0.89600  1.0000
  H   H31       1.0  0.15800  0.92700  0.93600  1.0000
  H   H32       1.0  0.26000  0.52500  0.97900  1.0000
  N   N1        1.0  0.14600  0.91400  0.07550  1.0000
  N   N2        1.0  0.84000  0.18000  0.13500  1.0000
  N   N3        1.0  0.82500  0.05320  0.14500  1.0000
  N   N4        1.0  0.32000  0.95300  0.20000  1.0000
  N   N5        1.0  0.71600  0.42200  0.31500  1.0000
  N   N6        1.0  0.11000  0.31100  0.42600  1.0000
  N   N7        1.0  0.75800  0.52500  0.43600  1.0000
  N   N8        1.0  0.31500  0.29400  0.45900  1.0000
  N   N9        1.0  0.68500  0.79400  0.54100  1.0000
  N   N10       1.0  0.24200  0.02540  0.56400  1.0000
  N   N11       1.0  0.89000  0.81100  0.57400  1.0000
  N   N12       1.0  0.28400  0.92200  0.68500  1.0000
  N   N13       1.0  0.68000  0.45300  0.80000  1.0000
  N   N14       1.0  0.17500  0.55300  0.85500  1.0000
  N   N15       1.0  0.16000  0.68000  0.86500  1.0000
  N   N16       1.0  0.85400  0.41400  0.92400  1.0000
  Te  Te1       1.0  0.67700  0.74900  0.02420  1.0000
  Te  Te2       1.0  0.24500  0.61800  0.38000  1.0000
  Te  Te3       1.0  0.75500  0.11800  0.62000  1.0000
  Te  Te4       1.0  0.32300  0.24900  0.97600  1.0000
  Zn  Zn1       1.0  0.05290  0.73900  0.09980  1.0000
  Zn  Zn2       1.0  0.58500  0.66900  0.32800  1.0000
  Zn  Zn3       1.0  0.41500  0.16900  0.67200  1.0000
  Zn  Zn4       1.0  0.94700  0.23900  0.90000  1.0000
