data_image0
_chemical_formula_structural       Al8Cl32Te16
_chemical_formula_sum              "Al8 Cl32 Te16"
_cell_length_a       10.9409
_cell_length_b       14.1434
_cell_length_c       12.0476
_cell_angle_alpha    90
_cell_angle_beta     90
_cell_angle_gamma    90

_space_group_name_H-M_alt    "P 1"
_space_group_IT_number       1

loop_
  _space_group_symop_operation_xyz
  'x, y, z'

loop_
  _atom_site_type_symbol
  _atom_site_label
  _atom_site_symmetry_multiplicity
  _atom_site_fract_x
  _atom_site_fract_y
  _atom_site_fract_z
  _atom_site_occupancy
  Al  Al1       1.0  0.39600  0.35600  0.08750  1.0000
  Al  Al2       1.0  0.10400  0.85600  0.08750  1.0000
  Al  Al3       1.0  0.89600  0.35600  0.41200  1.0000
  Al  Al4       1.0  0.60400  0.85600  0.41200  1.0000
  Al  Al5       1.0  0.39600  0.14400  0.58800  1.0000
  Al  Al6       1.0  0.10400  0.64400  0.58800  1.0000
  Al  Al7       1.0  0.89600  0.14400  0.91200  1.0000
  Al  Al8       1.0  0.60400  0.64400  0.91200  1.0000
  Cl  Cl1       1.0  0.88600  0.11800  0.08670  1.0000
  Cl  Cl2       1.0  0.61400  0.61800  0.08670  1.0000
  Cl  Cl3       1.0  0.28200  0.23300  0.12500  1.0000
  Cl  Cl4       1.0  0.21800  0.73300  0.12500  1.0000
  Cl  Cl5       1.0  0.57700  0.32600  0.14600  1.0000
  Cl  Cl6       1.0  0.92300  0.82600  0.14600  1.0000
  Cl  Cl7       1.0  0.31900  0.47400  0.18000  1.0000
  Cl  Cl8       1.0  0.18100  0.97400  0.18000  1.0000
  Cl  Cl9       1.0  0.81900  0.47400  0.32000  1.0000
  Cl  Cl10      1.0  0.68100  0.97400  0.32000  1.0000
  Cl  Cl11      1.0  0.07700  0.32600  0.35400  1.0000
  Cl  Cl12      1.0  0.42300  0.82600  0.35400  1.0000
  Cl  Cl13      1.0  0.78200  0.23300  0.37500  1.0000
  Cl  Cl14      1.0  0.71800  0.73300  0.37500  1.0000
  Cl  Cl15      1.0  0.38600  0.11800  0.41300  1.0000
  Cl  Cl16      1.0  0.11400  0.61800  0.41300  1.0000
  Cl  Cl17      1.0  0.88600  0.38200  0.58700  1.0000
  Cl  Cl18      1.0  0.61400  0.88200  0.58700  1.0000
  Cl  Cl19      1.0  0.28200  0.26700  0.62500  1.0000
  Cl  Cl20      1.0  0.21800  0.76700  0.62500  1.0000
  Cl  Cl21      1.0  0.57700  0.17400  0.64600  1.0000
  Cl  Cl22      1.0  0.92300  0.67400  0.64600  1.0000
  Cl  Cl23      1.0  0.31900  0.02600  0.68000  1.0000
  Cl  Cl24      1.0  0.18100  0.52600  0.68000  1.0000
  Cl  Cl25      1.0  0.81900  0.02600  0.82000  1.0000
  Cl  Cl26      1.0  0.68100  0.52600  0.82000  1.0000
  Cl  Cl27      1.0  0.07700  0.17400  0.85400  1.0000
  Cl  Cl28      1.0  0.42300  0.67400  0.85400  1.0000
  Cl  Cl29      1.0  0.78200  0.26700  0.87500  1.0000
  Cl  Cl30      1.0  0.71800  0.76700  0.87500  1.0000
  Cl  Cl31      1.0  0.38600  0.38200  0.91300  1.0000
  Cl  Cl32      1.0  0.11400  0.88200  0.91300  1.0000
  Te  Te1       1.0  0.88400  0.41300  0.06380  1.0000
  Te  Te2       1.0  0.61600  0.91300  0.06380  1.0000
  Te  Te3       1.0  0.49900  0.07100  0.13500  1.0000
  Te  Te4       1.0  0.00104  0.57100  0.13500  1.0000
  Te  Te5       1.0  0.99900  0.07100  0.36500  1.0000
  Te  Te6       1.0  0.50100  0.57100  0.36500  1.0000
  Te  Te7       1.0  0.38400  0.41300  0.43600  1.0000
  Te  Te8       1.0  0.11600  0.91300  0.43600  1.0000
  Te  Te9       1.0  0.88400  0.08660  0.56400  1.0000
  Te  Te10      1.0  0.61600  0.58700  0.56400  1.0000
  Te  Te11      1.0  0.49900  0.42900  0.63500  1.0000
  Te  Te12      1.0  0.00104  0.92900  0.63500  1.0000
  Te  Te13      1.0  0.99900  0.42900  0.86500  1.0000
  Te  Te14      1.0  0.50100  0.92900  0.86500  1.0000
  Te  Te15      1.0  0.38400  0.08660  0.93600  1.0000
  Te  Te16      1.0  0.11600  0.58700  0.93600  1.0000
