data_image0
_chemical_formula_structural       Al2H6O6
_chemical_formula_sum              "Al2 H6 O6"
_cell_length_a       5.02104
_cell_length_b       5.06217
_cell_length_c       4.8075
_cell_angle_alpha    99.0222
_cell_angle_beta     117.77
_cell_angle_gamma    103.702

_space_group_name_H-M_alt    "P 1"
_space_group_IT_number       1

loop_
  _space_group_symop_operation_xyz
  'x, y, z'

loop_
  _atom_site_type_symbol
  _atom_site_label
  _atom_site_symmetry_multiplicity
  _atom_site_fract_x
  _atom_site_fract_y
  _atom_site_fract_z
  _atom_site_occupancy
  Al  Al1       1.0  0.33100  0.00003  0.17100  1.0000
  Al  Al2       1.0  0.69100  0.00232  0.85000  1.0000
  H   H1        1.0  0.55100  0.60000  0.07420  1.0000
  H   H2        1.0  0.18300  0.43200  0.30100  1.0000
  H   H3        1.0  0.10700  0.77500  0.47600  1.0000
  H   H4        1.0  0.88800  0.21700  0.51600  1.0000
  H   H5        1.0  0.84200  0.58100  0.71600  1.0000
  H   H6        1.0  0.31400  0.23700  0.73900  1.0000
  O   O1        1.0  0.55400  0.79500  0.07140  1.0000
  O   O2        1.0  0.09880  0.21800  0.24900  1.0000
  O   O3        1.0  0.28300  0.77800  0.43600  1.0000
  O   O4        1.0  0.73400  0.23400  0.58300  1.0000
  O   O5        1.0  0.92800  0.79500  0.78400  1.0000
  O   O6        1.0  0.47700  0.23800  0.95700  1.0000
