data_image0
_chemical_formula_structural       Cl32O12P8Ti4
_chemical_formula_sum              "Cl32 O12 P8 Ti4"
_cell_length_a       8.70946
_cell_length_b       15.4689
_cell_length_c       10.2733
_cell_angle_alpha    90
_cell_angle_beta     98.6032
_cell_angle_gamma    90

_space_group_name_H-M_alt    "P 1"
_space_group_IT_number       1

loop_
  _space_group_symop_operation_xyz
  'x, y, z'

loop_
  _atom_site_type_symbol
  _atom_site_label
  _atom_site_symmetry_multiplicity
  _atom_site_fract_x
  _atom_site_fract_y
  _atom_site_fract_z
  _atom_site_occupancy
  Cl  Cl1       1.0  0.21700  0.53200  0.03280  1.0000
  Cl  Cl2       1.0  0.68800  0.18400  0.04730  1.0000
  Cl  Cl3       1.0  0.69700  0.84900  0.08270  1.0000
  Cl  Cl4       1.0  0.62100  0.62900  0.15100  1.0000
  Cl  Cl5       1.0  0.04270  0.26500  0.16000  1.0000
  Cl  Cl6       1.0  0.52500  0.38500  0.18700  1.0000
  Cl  Cl7       1.0  0.07830  0.67900  0.19600  1.0000
  Cl  Cl8       1.0  0.43600  0.98300  0.21500  1.0000
  Cl  Cl9       1.0  0.06420  0.48300  0.28500  1.0000
  Cl  Cl10      1.0  0.42200  0.17900  0.30400  1.0000
  Cl  Cl11      1.0  0.97500  0.88500  0.31300  1.0000
  Cl  Cl12      1.0  0.45700  0.76500  0.34000  1.0000
  Cl  Cl13      1.0  0.87900  0.12900  0.34900  1.0000
  Cl  Cl14      1.0  0.80300  0.34900  0.41700  1.0000
  Cl  Cl15      1.0  0.81200  0.68400  0.45300  1.0000
  Cl  Cl16      1.0  0.28300  0.03250  0.46700  1.0000
  Cl  Cl17      1.0  0.71700  0.96800  0.53300  1.0000
  Cl  Cl18      1.0  0.18800  0.31600  0.54700  1.0000
  Cl  Cl19      1.0  0.19700  0.65100  0.58300  1.0000
  Cl  Cl20      1.0  0.12100  0.87100  0.65100  1.0000
  Cl  Cl21      1.0  0.54300  0.23500  0.66000  1.0000
  Cl  Cl22      1.0  0.02470  0.11500  0.68700  1.0000
  Cl  Cl23      1.0  0.57800  0.82100  0.69600  1.0000
  Cl  Cl24      1.0  0.93600  0.51700  0.71500  1.0000
  Cl  Cl25      1.0  0.56400  0.01670  0.78500  1.0000
  Cl  Cl26      1.0  0.92200  0.32100  0.80400  1.0000
  Cl  Cl27      1.0  0.47500  0.61500  0.81300  1.0000
  Cl  Cl28      1.0  0.95700  0.73500  0.84000  1.0000
  Cl  Cl29      1.0  0.37900  0.37100  0.84900  1.0000
  Cl  Cl30      1.0  0.30300  0.15100  0.91700  1.0000
  Cl  Cl31      1.0  0.31200  0.81600  0.95300  1.0000
  Cl  Cl32      1.0  0.78300  0.46800  0.96700  1.0000
  O   O1        1.0  0.01300  0.87900  0.04360  1.0000
  O   O2        1.0  0.85600  0.00957  0.11300  1.0000
  O   O3        1.0  0.14900  0.07670  0.19900  1.0000
  O   O4        1.0  0.35100  0.57700  0.30100  1.0000
  O   O5        1.0  0.64400  0.51000  0.38700  1.0000
  O   O6        1.0  0.48700  0.37900  0.45600  1.0000
  O   O7        1.0  0.51300  0.62100  0.54400  1.0000
  O   O8        1.0  0.35600  0.49000  0.61300  1.0000
  O   O9        1.0  0.64900  0.42300  0.69900  1.0000
  O   O10       1.0  0.85100  0.92300  0.80100  1.0000
  O   O11       1.0  0.14400  0.99000  0.88700  1.0000
  O   O12       1.0  0.98700  0.12100  0.95600  1.0000
  P   P1        1.0  0.89600  0.91500  0.12400  1.0000
  P   P2        1.0  0.19900  0.57000  0.21500  1.0000
  P   P3        1.0  0.30100  0.07010  0.28500  1.0000
  P   P4        1.0  0.60400  0.41500  0.37600  1.0000
  P   P5        1.0  0.39600  0.58500  0.62400  1.0000
  P   P6        1.0  0.69900  0.93000  0.71500  1.0000
  P   P7        1.0  0.80100  0.43000  0.78500  1.0000
  P   P8        1.0  0.10400  0.08500  0.87600  1.0000
  Ti  Ti1       1.0  0.92000  0.13700  0.13600  1.0000
  Ti  Ti2       1.0  0.58000  0.63700  0.36400  1.0000
  Ti  Ti3       1.0  0.42000  0.36300  0.63600  1.0000
  Ti  Ti4       1.0  0.08010  0.86300  0.86400  1.0000
