data_image0
_chemical_formula_structural       Ag12As8S24Tl12
_chemical_formula_sum              "Ag12 As8 S24 Tl12"
_cell_length_a       11.6894
_cell_length_b       12.0356
_cell_length_c       12.0765
_cell_angle_alpha    90
_cell_angle_beta     123.212
_cell_angle_gamma    90

_space_group_name_H-M_alt    "P 1"
_space_group_IT_number       1

loop_
  _space_group_symop_operation_xyz
  'x, y, z'

loop_
  _atom_site_type_symbol
  _atom_site_label
  _atom_site_symmetry_multiplicity
  _atom_site_fract_x
  _atom_site_fract_y
  _atom_site_fract_z
  _atom_site_occupancy
  Ag  Ag1       1.0  0.46900  0.85800  0.04310  1.0000
  Ag  Ag2       1.0  0.53400  0.37300  0.08010  1.0000
  Ag  Ag3       1.0  0.11600  0.15300  0.18900  1.0000
  Ag  Ag4       1.0  0.88400  0.65300  0.31100  1.0000
  Ag  Ag5       1.0  0.46600  0.87300  0.42000  1.0000
  Ag  Ag6       1.0  0.53100  0.35800  0.45700  1.0000
  Ag  Ag7       1.0  0.46900  0.64200  0.54300  1.0000
  Ag  Ag8       1.0  0.53400  0.12700  0.58000  1.0000
  Ag  Ag9       1.0  0.11600  0.34700  0.68900  1.0000
  Ag  Ag10      1.0  0.88400  0.84700  0.81100  1.0000
  Ag  Ag11      1.0  0.46600  0.62700  0.92000  1.0000
  Ag  Ag12      1.0  0.53100  0.14200  0.95700  1.0000
  As  As1       1.0  0.84100  0.40100  0.09650  1.0000
  As  As2       1.0  0.50500  0.64300  0.25000  1.0000
  As  As3       1.0  0.49500  0.14300  0.25000  1.0000
  As  As4       1.0  0.15900  0.90100  0.40400  1.0000
  As  As5       1.0  0.84100  0.09910  0.59600  1.0000
  As  As6       1.0  0.50500  0.85700  0.75000  1.0000
  As  As7       1.0  0.49500  0.35700  0.75000  1.0000
  As  As8       1.0  0.15900  0.59900  0.90300  1.0000
  S   S1        1.0  0.38000  0.07450  0.03900  1.0000
  S   S2        1.0  0.99500  0.32100  0.05640  1.0000
  S   S3        1.0  0.74600  0.25400  0.13800  1.0000
  S   S4        1.0  0.63500  0.58300  0.17300  1.0000
  S   S5        1.0  0.00739  0.96800  0.19600  1.0000
  S   S6        1.0  0.42500  0.32300  0.20900  1.0000
  S   S7        1.0  0.57500  0.82300  0.29100  1.0000
  S   S8        1.0  0.99300  0.46800  0.30400  1.0000
  S   S9        1.0  0.36500  0.08270  0.32700  1.0000
  S   S10       1.0  0.25400  0.75400  0.36200  1.0000
  S   S11       1.0  0.00514  0.82100  0.44400  1.0000
  S   S12       1.0  0.62000  0.57400  0.46100  1.0000
  S   S13       1.0  0.38000  0.42600  0.53900  1.0000
  S   S14       1.0  0.99500  0.17900  0.55600  1.0000
  S   S15       1.0  0.74600  0.24600  0.63800  1.0000
  S   S16       1.0  0.63500  0.91700  0.67300  1.0000
  S   S17       1.0  0.00739  0.53200  0.69600  1.0000
  S   S18       1.0  0.42500  0.17700  0.70900  1.0000
  S   S19       1.0  0.57500  0.67700  0.79100  1.0000
  S   S20       1.0  0.99300  0.03230  0.80400  1.0000
  S   S21       1.0  0.36500  0.41700  0.82700  1.0000
  S   S22       1.0  0.25400  0.74600  0.86200  1.0000
  S   S23       1.0  0.00514  0.67900  0.94400  1.0000
  S   S24       1.0  0.62000  0.92600  0.96100  1.0000
  Tl  Tl1       1.0  0.83700  0.75000  0.06320  1.0000
  Tl  Tl2       1.0  0.21500  0.88500  0.10200  1.0000
  Tl  Tl3       1.0  0.19800  0.51400  0.22200  1.0000
  Tl  Tl4       1.0  0.80200  0.01400  0.27800  1.0000
  Tl  Tl5       1.0  0.78500  0.38500  0.39800  1.0000
  Tl  Tl6       1.0  0.16300  0.25000  0.43700  1.0000
  Tl  Tl7       1.0  0.83700  0.75000  0.56300  1.0000
  Tl  Tl8       1.0  0.21500  0.61500  0.60200  1.0000
  Tl  Tl9       1.0  0.19800  0.98600  0.72200  1.0000
  Tl  Tl10      1.0  0.80200  0.48600  0.77800  1.0000
  Tl  Tl11      1.0  0.78500  0.11500  0.89800  1.0000
  Tl  Tl12      1.0  0.16300  0.25000  0.93700  1.0000
