data_image0
_chemical_formula_structural       In8O36Te12
_chemical_formula_sum              "In8 O36 Te12"
_cell_length_a       5.4449
_cell_length_b       8.01244
_cell_length_c       18.2661
_cell_angle_alpha    90
_cell_angle_beta     90
_cell_angle_gamma    90

_space_group_name_H-M_alt    "P 1"
_space_group_IT_number       1

loop_
  _space_group_symop_operation_xyz
  'x, y, z'

loop_
  _atom_site_type_symbol
  _atom_site_label
  _atom_site_symmetry_multiplicity
  _atom_site_fract_x
  _atom_site_fract_y
  _atom_site_fract_z
  _atom_site_occupancy
  In  In1       1.0  0.78700  0.18400  0.06220  1.0000
  In  In2       1.0  0.71300  0.68400  0.06220  1.0000
  In  In3       1.0  0.78700  0.18400  0.43800  1.0000
  In  In4       1.0  0.71300  0.68400  0.43800  1.0000
  In  In5       1.0  0.28700  0.31600  0.56200  1.0000
  In  In6       1.0  0.21300  0.81600  0.56200  1.0000
  In  In7       1.0  0.28700  0.31600  0.93800  1.0000
  In  In8       1.0  0.21300  0.81600  0.93800  1.0000
  O   O1        1.0  0.11700  0.32600  0.04280  1.0000
  O   O2        1.0  0.38300  0.82600  0.04280  1.0000
  O   O3        1.0  0.58700  0.43100  0.07200  1.0000
  O   O4        1.0  0.91300  0.93100  0.07200  1.0000
  O   O5        1.0  0.45500  0.14600  0.12800  1.0000
  O   O6        1.0  0.04540  0.64600  0.12800  1.0000
  O   O7        1.0  0.95300  0.20700  0.17400  1.0000
  O   O8        1.0  0.54700  0.70700  0.17400  1.0000
  O   O9        1.0  0.55600  0.36200  0.25000  1.0000
  O   O10       1.0  0.94400  0.86200  0.25000  1.0000
  O   O11       1.0  0.95300  0.20700  0.32600  1.0000
  O   O12       1.0  0.54700  0.70700  0.32600  1.0000
  O   O13       1.0  0.45500  0.14600  0.37200  1.0000
  O   O14       1.0  0.04540  0.64600  0.37200  1.0000
  O   O15       1.0  0.58700  0.43100  0.42800  1.0000
  O   O16       1.0  0.91300  0.93100  0.42800  1.0000
  O   O17       1.0  0.11700  0.32600  0.45700  1.0000
  O   O18       1.0  0.38300  0.82600  0.45700  1.0000
  O   O19       1.0  0.61700  0.17400  0.54300  1.0000
  O   O20       1.0  0.88300  0.67400  0.54300  1.0000
  O   O21       1.0  0.08660  0.06900  0.57200  1.0000
  O   O22       1.0  0.41300  0.56900  0.57200  1.0000
  O   O23       1.0  0.95500  0.35400  0.62800  1.0000
  O   O24       1.0  0.54500  0.85400  0.62800  1.0000
  O   O25       1.0  0.45300  0.29300  0.67400  1.0000
  O   O26       1.0  0.04680  0.79300  0.67400  1.0000
  O   O27       1.0  0.05580  0.13800  0.75000  1.0000
  O   O28       1.0  0.44400  0.63800  0.75000  1.0000
  O   O29       1.0  0.45300  0.29300  0.82600  1.0000
  O   O30       1.0  0.04680  0.79300  0.82600  1.0000
  O   O31       1.0  0.95500  0.35400  0.87200  1.0000
  O   O32       1.0  0.54500  0.85400  0.87200  1.0000
  O   O33       1.0  0.08660  0.06900  0.92800  1.0000
  O   O34       1.0  0.41300  0.56900  0.92800  1.0000
  O   O35       1.0  0.61700  0.17400  0.95700  1.0000
  O   O36       1.0  0.88300  0.67400  0.95700  1.0000
  Te  Te1       1.0  0.30600  0.36600  0.13400  1.0000
  Te  Te2       1.0  0.19400  0.86600  0.13400  1.0000
  Te  Te3       1.0  0.72500  0.14800  0.25000  1.0000
  Te  Te4       1.0  0.77500  0.64800  0.25000  1.0000
  Te  Te5       1.0  0.30600  0.36600  0.36600  1.0000
  Te  Te6       1.0  0.19400  0.86600  0.36600  1.0000
  Te  Te7       1.0  0.80600  0.13400  0.63400  1.0000
  Te  Te8       1.0  0.69400  0.63400  0.63400  1.0000
  Te  Te9       1.0  0.22500  0.35200  0.75000  1.0000
  Te  Te10      1.0  0.27500  0.85200  0.75000  1.0000
  Te  Te11      1.0  0.80600  0.13400  0.86600  1.0000
  Te  Te12      1.0  0.69400  0.63400  0.86600  1.0000
