data_image0
_chemical_formula_structural       Ag12S24Sb8Tl12
_chemical_formula_sum              "Ag12 S24 Sb8 Tl12"
_cell_length_a       11.8955
_cell_length_b       12.13
_cell_length_c       12.2193
_cell_angle_alpha    90
_cell_angle_beta     122.999
_cell_angle_gamma    90

_space_group_name_H-M_alt    "P 1"
_space_group_IT_number       1

loop_
  _space_group_symop_operation_xyz
  'x, y, z'

loop_
  _atom_site_type_symbol
  _atom_site_label
  _atom_site_symmetry_multiplicity
  _atom_site_fract_x
  _atom_site_fract_y
  _atom_site_fract_z
  _atom_site_occupancy
  Ag  Ag1       1.0  0.47200  0.86400  0.04810  1.0000
  Ag  Ag2       1.0  0.52700  0.37400  0.07780  1.0000
  Ag  Ag3       1.0  0.11100  0.15300  0.18500  1.0000
  Ag  Ag4       1.0  0.88900  0.65300  0.31500  1.0000
  Ag  Ag5       1.0  0.47300  0.87400  0.42200  1.0000
  Ag  Ag6       1.0  0.52800  0.36400  0.45200  1.0000
  Ag  Ag7       1.0  0.47200  0.63600  0.54800  1.0000
  Ag  Ag8       1.0  0.52700  0.12600  0.57800  1.0000
  Ag  Ag9       1.0  0.11100  0.34700  0.68500  1.0000
  Ag  Ag10      1.0  0.88900  0.84700  0.81500  1.0000
  Ag  Ag11      1.0  0.47300  0.62600  0.92200  1.0000
  Ag  Ag12      1.0  0.52800  0.13600  0.95200  1.0000
  S   S1        1.0  0.37200  0.07330  0.02810  1.0000
  S   S2        1.0  0.99600  0.31900  0.05190  1.0000
  S   S3        1.0  0.73000  0.25000  0.13200  1.0000
  S   S4        1.0  0.64500  0.58100  0.17000  1.0000
  S   S5        1.0  0.00552  0.96700  0.18400  1.0000
  S   S6        1.0  0.41600  0.33600  0.20400  1.0000
  S   S7        1.0  0.58400  0.83600  0.29600  1.0000
  S   S8        1.0  0.99400  0.46700  0.31600  1.0000
  S   S9        1.0  0.35500  0.08120  0.33000  1.0000
  S   S10       1.0  0.27000  0.75000  0.36800  1.0000
  S   S11       1.0  0.00419  0.81900  0.44800  1.0000
  S   S12       1.0  0.62800  0.57300  0.47200  1.0000
  S   S13       1.0  0.37200  0.42700  0.52800  1.0000
  S   S14       1.0  0.99600  0.18100  0.55200  1.0000
  S   S15       1.0  0.73000  0.25000  0.63200  1.0000
  S   S16       1.0  0.64500  0.91900  0.67000  1.0000
  S   S17       1.0  0.00552  0.53300  0.68400  1.0000
  S   S18       1.0  0.41600  0.16400  0.70400  1.0000
  S   S19       1.0  0.58400  0.66400  0.79600  1.0000
  S   S20       1.0  0.99400  0.03260  0.81600  1.0000
  S   S21       1.0  0.35500  0.41900  0.83000  1.0000
  S   S22       1.0  0.27000  0.75000  0.86800  1.0000
  S   S23       1.0  0.00419  0.68100  0.94800  1.0000
  S   S24       1.0  0.62800  0.92700  0.97200  1.0000
  Sb  Sb1       1.0  0.83000  0.40800  0.08930  1.0000
  Sb  Sb2       1.0  0.50100  0.64600  0.24700  1.0000
  Sb  Sb3       1.0  0.49900  0.14600  0.25300  1.0000
  Sb  Sb4       1.0  0.17000  0.90800  0.41100  1.0000
  Sb  Sb5       1.0  0.83000  0.09170  0.58900  1.0000
  Sb  Sb6       1.0  0.50100  0.85400  0.74700  1.0000
  Sb  Sb7       1.0  0.49900  0.35400  0.75300  1.0000
  Sb  Sb8       1.0  0.17000  0.59200  0.91100  1.0000
  Tl  Tl1       1.0  0.83700  0.74800  0.06500  1.0000
  Tl  Tl2       1.0  0.21400  0.88500  0.10300  1.0000
  Tl  Tl3       1.0  0.19300  0.51000  0.22800  1.0000
  Tl  Tl4       1.0  0.80700  0.00968  0.27200  1.0000
  Tl  Tl5       1.0  0.78600  0.38500  0.39700  1.0000
  Tl  Tl6       1.0  0.16300  0.24800  0.43500  1.0000
  Tl  Tl7       1.0  0.83700  0.75200  0.56500  1.0000
  Tl  Tl8       1.0  0.21400  0.61500  0.60300  1.0000
  Tl  Tl9       1.0  0.19300  0.99000  0.72800  1.0000
  Tl  Tl10      1.0  0.80700  0.49000  0.77200  1.0000
  Tl  Tl11      1.0  0.78600  0.11500  0.89700  1.0000
  Tl  Tl12      1.0  0.16300  0.25200  0.93500  1.0000
