data_image0
_chemical_formula_structural       B8Ca4H40O4
_chemical_formula_sum              "B8 Ca4 H40 O4"
_cell_length_a       7.95099
_cell_length_b       5.71354
_cell_length_c       11.351
_cell_angle_alpha    90
_cell_angle_beta     90
_cell_angle_gamma    90

_space_group_name_H-M_alt    "P 1"
_space_group_IT_number       1

loop_
  _space_group_symop_operation_xyz
  'x, y, z'

loop_
  _atom_site_type_symbol
  _atom_site_label
  _atom_site_symmetry_multiplicity
  _atom_site_fract_x
  _atom_site_fract_y
  _atom_site_fract_z
  _atom_site_occupancy
  B   B1        1.0  0.86100  0.75000  0.05670  1.0000
  B   B2        1.0  0.51300  0.25000  0.21300  1.0000
  B   B3        1.0  0.01290  0.25000  0.28700  1.0000
  B   B4        1.0  0.36100  0.75000  0.44300  1.0000
  B   B5        1.0  0.63900  0.25000  0.55700  1.0000
  B   B6        1.0  0.98700  0.75000  0.71300  1.0000
  B   B7        1.0  0.48700  0.75000  0.78700  1.0000
  B   B8        1.0  0.13900  0.25000  0.94300  1.0000
  Ca  Ca1       1.0  0.81500  0.25000  0.08430  1.0000
  Ca  Ca2       1.0  0.31500  0.25000  0.41600  1.0000
  Ca  Ca3       1.0  0.68500  0.75000  0.58400  1.0000
  Ca  Ca4       1.0  0.18500  0.75000  0.91600  1.0000
  H   H1        1.0  0.17200  0.08730  0.00882  1.0000
  H   H2        1.0  0.17200  0.41300  0.00882  1.0000
  H   H3        1.0  0.00997  0.75000  0.08480  1.0000
  H   H4        1.0  0.41600  0.61200  0.11700  1.0000
  H   H5        1.0  0.41600  0.88800  0.11700  1.0000
  H   H6        1.0  0.77700  0.75000  0.14700  1.0000
  H   H7        1.0  0.57000  0.07360  0.16600  1.0000
  H   H8        1.0  0.57000  0.42600  0.16600  1.0000
  H   H9        1.0  0.06280  0.25000  0.18500  1.0000
  H   H10       1.0  0.36000  0.25000  0.20300  1.0000
  H   H11       1.0  0.86000  0.25000  0.29700  1.0000
  H   H12       1.0  0.56300  0.25000  0.31500  1.0000
  H   H13       1.0  0.07000  0.07360  0.33400  1.0000
  H   H14       1.0  0.07000  0.42600  0.33400  1.0000
  H   H15       1.0  0.27700  0.75000  0.35300  1.0000
  H   H16       1.0  0.91600  0.61200  0.38300  1.0000
  H   H17       1.0  0.91600  0.88800  0.38300  1.0000
  H   H18       1.0  0.51000  0.75000  0.41500  1.0000
  H   H19       1.0  0.67200  0.08730  0.49100  1.0000
  H   H20       1.0  0.67200  0.41300  0.49100  1.0000
  H   H21       1.0  0.32800  0.58700  0.50900  1.0000
  H   H22       1.0  0.32800  0.91300  0.50900  1.0000
  H   H23       1.0  0.49000  0.25000  0.58500  1.0000
  H   H24       1.0  0.08360  0.11200  0.61700  1.0000
  H   H25       1.0  0.08360  0.38800  0.61700  1.0000
  H   H26       1.0  0.72300  0.25000  0.64700  1.0000
  H   H27       1.0  0.93000  0.57400  0.66600  1.0000
  H   H28       1.0  0.93000  0.92600  0.66600  1.0000
  H   H29       1.0  0.43700  0.75000  0.68500  1.0000
  H   H30       1.0  0.14000  0.75000  0.70300  1.0000
  H   H31       1.0  0.64000  0.75000  0.79700  1.0000
  H   H32       1.0  0.93700  0.75000  0.81500  1.0000
  H   H33       1.0  0.43000  0.57400  0.83400  1.0000
  H   H34       1.0  0.43000  0.92600  0.83400  1.0000
  H   H35       1.0  0.22300  0.25000  0.85300  1.0000
  H   H36       1.0  0.58400  0.11200  0.88300  1.0000
  H   H37       1.0  0.58400  0.38800  0.88300  1.0000
  H   H38       1.0  0.99000  0.25000  0.91500  1.0000
  H   H39       1.0  0.82800  0.58700  0.99100  1.0000
  H   H40       1.0  0.82800  0.91300  0.99100  1.0000
  O   O1        1.0  0.36400  0.75000  0.07990  1.0000
  O   O2        1.0  0.86400  0.75000  0.42000  1.0000
  O   O3        1.0  0.13600  0.25000  0.58000  1.0000
  O   O4        1.0  0.63600  0.25000  0.92000  1.0000
