data_image0
_chemical_formula_structural       C24S32
_chemical_formula_sum              "C24 S32"
_cell_length_a       8.33028
_cell_length_b       9.92468
_cell_length_c       14.0539
_cell_angle_alpha    90
_cell_angle_beta     105.592
_cell_angle_gamma    90

_space_group_name_H-M_alt    "P 1"
_space_group_IT_number       1

loop_
  _space_group_symop_operation_xyz
  'x, y, z'

loop_
  _atom_site_type_symbol
  _atom_site_label
  _atom_site_symmetry_multiplicity
  _atom_site_fract_x
  _atom_site_fract_y
  _atom_site_fract_z
  _atom_site_occupancy
  C   C1        1.0  0.56900  0.35600  0.00910  1.0000
  C   C2        1.0  0.06390  0.35700  0.02910  1.0000
  C   C3        1.0  0.12400  0.22300  0.05400  1.0000
  C   C4        1.0  0.44500  0.57900  0.07950  1.0000
  C   C5        1.0  0.00684  0.43000  0.09690  1.0000
  C   C6        1.0  0.39300  0.64900  0.15500  1.0000
  C   C7        1.0  0.60700  0.14900  0.34500  1.0000
  C   C8        1.0  0.99300  0.93000  0.40300  1.0000
  C   C9        1.0  0.55500  0.07850  0.42100  1.0000
  C   C10       1.0  0.87600  0.72300  0.44600  1.0000
  C   C11       1.0  0.93600  0.85700  0.47100  1.0000
  C   C12       1.0  0.43100  0.85600  0.49100  1.0000
  C   C13       1.0  0.56900  0.14400  0.50900  1.0000
  C   C14       1.0  0.06390  0.14300  0.52900  1.0000
  C   C15       1.0  0.12400  0.27700  0.55400  1.0000
  C   C16       1.0  0.44500  0.92100  0.57900  1.0000
  C   C17       1.0  0.00684  0.07020  0.59700  1.0000
  C   C18       1.0  0.39300  0.85100  0.65500  1.0000
  C   C19       1.0  0.60700  0.35100  0.84500  1.0000
  C   C20       1.0  0.99300  0.57000  0.90300  1.0000
  C   C21       1.0  0.55500  0.42100  0.92100  1.0000
  C   C22       1.0  0.87600  0.77700  0.94600  1.0000
  C   C23       1.0  0.93600  0.64300  0.97100  1.0000
  C   C24       1.0  0.43100  0.64400  0.99100  1.0000
  S   S1        1.0  0.80700  0.88000  0.01920  1.0000
  S   S2        1.0  0.64800  0.19300  0.01980  1.0000
  S   S3        1.0  0.92300  0.59200  0.08890  1.0000
  S   S4        1.0  0.51900  0.41400  0.11500  1.0000
  S   S5        1.0  0.31900  0.81000  0.12100  1.0000
  S   S6        1.0  0.11800  0.17500  0.17200  1.0000
  S   S7        1.0  0.01710  0.35200  0.20900  1.0000
  S   S8        1.0  0.60000  0.08760  0.23300  1.0000
  S   S9        1.0  0.40000  0.58800  0.26700  1.0000
  S   S10       1.0  0.98300  0.85200  0.29100  1.0000
  S   S11       1.0  0.88200  0.67500  0.32800  1.0000
  S   S12       1.0  0.68100  0.31000  0.37900  1.0000
  S   S13       1.0  0.48100  0.91400  0.38500  1.0000
  S   S14       1.0  0.07660  0.09220  0.41100  1.0000
  S   S15       1.0  0.35200  0.69300  0.48000  1.0000
  S   S16       1.0  0.19300  0.38000  0.48100  1.0000
  S   S17       1.0  0.80700  0.62000  0.51900  1.0000
  S   S18       1.0  0.64800  0.30700  0.52000  1.0000
  S   S19       1.0  0.92300  0.90800  0.58900  1.0000
  S   S20       1.0  0.51900  0.08620  0.61500  1.0000
  S   S21       1.0  0.31900  0.69000  0.62100  1.0000
  S   S22       1.0  0.11800  0.32500  0.67200  1.0000
  S   S23       1.0  0.01710  0.14800  0.70900  1.0000
  S   S24       1.0  0.60000  0.41200  0.73300  1.0000
  S   S25       1.0  0.40000  0.91200  0.76700  1.0000
  S   S26       1.0  0.98300  0.64800  0.79100  1.0000
  S   S27       1.0  0.88200  0.82500  0.82800  1.0000
  S   S28       1.0  0.68100  0.19000  0.87900  1.0000
  S   S29       1.0  0.48100  0.58600  0.88500  1.0000
  S   S30       1.0  0.07660  0.40800  0.91100  1.0000
  S   S31       1.0  0.35200  0.80700  0.98000  1.0000
  S   S32       1.0  0.19300  0.12000  0.98100  1.0000
