data_image0
_chemical_formula_structural       B2Br34Cs8Zr12
_chemical_formula_sum              "B2 Br34 Cs8 Zr12"
_cell_length_a       12.8955
_cell_length_b       12.8955
_cell_length_c       11.9097
_cell_angle_alpha    90
_cell_angle_beta     90
_cell_angle_gamma    90

_space_group_name_H-M_alt    "P 1"
_space_group_IT_number       1

loop_
  _space_group_symop_operation_xyz
  'x, y, z'

loop_
  _atom_site_type_symbol
  _atom_site_label
  _atom_site_symmetry_multiplicity
  _atom_site_fract_x
  _atom_site_fract_y
  _atom_site_fract_z
  _atom_site_occupancy
  B   B1        1.0  0.00000  0.50000  0.15800  1.0000
  B   B2        1.0  0.50000  0.00000  0.84200  1.0000
  Br  Br1       1.0  0.24600  0.04080  0.00203  1.0000
  Br  Br2       1.0  0.45900  0.25400  0.00203  1.0000
  Br  Br3       1.0  0.54100  0.74600  0.00203  1.0000
  Br  Br4       1.0  0.75400  0.95900  0.00203  1.0000
  Br  Br5       1.0  0.70700  0.20700  0.15800  1.0000
  Br  Br6       1.0  0.29300  0.79300  0.15800  1.0000
  Br  Br7       1.0  0.20800  0.29200  0.15900  1.0000
  Br  Br8       1.0  0.79200  0.70800  0.15900  1.0000
  Br  Br9       1.0  0.50000  0.00000  0.16600  1.0000
  Br  Br10      1.0  0.95600  0.24800  0.31600  1.0000
  Br  Br11      1.0  0.74800  0.45600  0.31600  1.0000
  Br  Br12      1.0  0.25200  0.54400  0.31600  1.0000
  Br  Br13      1.0  0.04440  0.75200  0.31600  1.0000
  Br  Br14      1.0  0.20500  0.29500  0.46500  1.0000
  Br  Br15      1.0  0.79500  0.70500  0.46500  1.0000
  Br  Br16      1.0  0.00000  0.50000  0.48200  1.0000
  Br  Br17      1.0  0.00000  0.00000  0.50000  1.0000
  Br  Br18      1.0  0.50000  0.50000  0.50000  1.0000
  Br  Br19      1.0  0.50000  0.00000  0.51800  1.0000
  Br  Br20      1.0  0.70500  0.20500  0.53500  1.0000
  Br  Br21      1.0  0.29500  0.79500  0.53500  1.0000
  Br  Br22      1.0  0.24800  0.04440  0.68400  1.0000
  Br  Br23      1.0  0.45600  0.25200  0.68400  1.0000
  Br  Br24      1.0  0.54400  0.74800  0.68400  1.0000
  Br  Br25      1.0  0.75200  0.95600  0.68400  1.0000
  Br  Br26      1.0  0.00000  0.50000  0.83400  1.0000
  Br  Br27      1.0  0.70800  0.20800  0.84100  1.0000
  Br  Br28      1.0  0.29200  0.79200  0.84100  1.0000
  Br  Br29      1.0  0.20700  0.29300  0.84200  1.0000
  Br  Br30      1.0  0.79300  0.70700  0.84200  1.0000
  Br  Br31      1.0  0.95900  0.24600  0.99800  1.0000
  Br  Br32      1.0  0.74600  0.45900  0.99800  1.0000
  Br  Br33      1.0  0.25400  0.54100  0.99800  1.0000
  Br  Br34      1.0  0.04080  0.75400  0.99800  1.0000
  Cs  Cs1       1.0  0.22100  0.01400  0.34400  1.0000
  Cs  Cs2       1.0  0.48600  0.27900  0.34400  1.0000
  Cs  Cs3       1.0  0.51400  0.72100  0.34400  1.0000
  Cs  Cs4       1.0  0.77900  0.98600  0.34400  1.0000
  Cs  Cs5       1.0  0.98600  0.22100  0.65600  1.0000
  Cs  Cs6       1.0  0.72100  0.48600  0.65600  1.0000
  Cs  Cs7       1.0  0.27900  0.51400  0.65600  1.0000
  Cs  Cs8       1.0  0.01400  0.77900  0.65600  1.0000
  Zr  Zr1       1.0  0.09200  0.40800  0.01820  1.0000
  Zr  Zr2       1.0  0.90800  0.59200  0.01820  1.0000
  Zr  Zr3       1.0  0.87100  0.37100  0.15500  1.0000
  Zr  Zr4       1.0  0.12900  0.62900  0.15500  1.0000
  Zr  Zr5       1.0  0.09180  0.40800  0.29700  1.0000
  Zr  Zr6       1.0  0.90800  0.59200  0.29700  1.0000
  Zr  Zr7       1.0  0.59200  0.09180  0.70300  1.0000
  Zr  Zr8       1.0  0.40800  0.90800  0.70300  1.0000
  Zr  Zr9       1.0  0.37100  0.12900  0.84500  1.0000
  Zr  Zr10      1.0  0.62900  0.87100  0.84500  1.0000
  Zr  Zr11      1.0  0.59200  0.09200  0.98200  1.0000
  Zr  Zr12      1.0  0.40800  0.90800  0.98200  1.0000
