data_image0
_chemical_formula_structural       Cd2F10Ga2H28O14
_chemical_formula_sum              "Cd2 F10 Ga2 H28 O14"
_cell_length_a       5.72411
_cell_length_b       9.09639
_cell_length_c       9.65564
_cell_angle_alpha    106.43
_cell_angle_beta     101.846
_cell_angle_gamma    94.8355

_space_group_name_H-M_alt    "P 1"
_space_group_IT_number       1

loop_
  _space_group_symop_operation_xyz
  'x, y, z'

loop_
  _atom_site_type_symbol
  _atom_site_label
  _atom_site_symmetry_multiplicity
  _atom_site_fract_x
  _atom_site_fract_y
  _atom_site_fract_z
  _atom_site_occupancy
  Cd  Cd1       1.0  0.58400  0.32400  0.25500  1.0000
  Cd  Cd2       1.0  0.41600  0.67600  0.74500  1.0000
  F   F1        1.0  0.91000  0.64600  0.07890  1.0000
  F   F2        1.0  0.94400  0.95300  0.13700  1.0000
  F   F3        1.0  0.34500  0.82700  0.17800  1.0000
  F   F4        1.0  0.14400  0.67500  0.35100  1.0000
  F   F5        1.0  0.22600  0.98100  0.42000  1.0000
  F   F6        1.0  0.77400  0.01850  0.58000  1.0000
  F   F7        1.0  0.85600  0.32500  0.64900  1.0000
  F   F8        1.0  0.65500  0.17300  0.82200  1.0000
  F   F9        1.0  0.05570  0.04740  0.86300  1.0000
  F   F10       1.0  0.09040  0.35400  0.92100  1.0000
  Ga  Ga1       1.0  0.04830  0.81900  0.24700  1.0000
  Ga  Ga2       1.0  0.95200  0.18100  0.75300  1.0000
  H   H1        1.0  0.25200  0.08090  0.01100  1.0000
  H   H2        1.0  0.33500  0.68600  0.02740  1.0000
  H   H3        1.0  0.73400  0.49300  0.06900  1.0000
  H   H4        1.0  0.15600  0.38400  0.09580  1.0000
  H   H5        1.0  0.36300  0.99700  0.12700  1.0000
  H   H6        1.0  0.92700  0.12100  0.23600  1.0000
  H   H7        1.0  0.19100  0.51300  0.25500  1.0000
  H   H8        1.0  0.60200  0.83000  0.26400  1.0000
  H   H9        1.0  0.04560  0.29300  0.26800  1.0000
  H   H10       1.0  0.38700  0.13700  0.41900  1.0000
  H   H11       1.0  0.78600  0.91400  0.42500  1.0000
  H   H12       1.0  0.91400  0.59200  0.42500  1.0000
  H   H13       1.0  0.67700  0.62700  0.47900  1.0000
  H   H14       1.0  0.37200  0.74400  0.48300  1.0000
  H   H15       1.0  0.62800  0.25600  0.51700  1.0000
  H   H16       1.0  0.32300  0.37300  0.52100  1.0000
  H   H17       1.0  0.08590  0.40800  0.57500  1.0000
  H   H18       1.0  0.21400  0.08560  0.57500  1.0000
  H   H19       1.0  0.61300  0.86300  0.58100  1.0000
  H   H20       1.0  0.95400  0.70700  0.73200  1.0000
  H   H21       1.0  0.39800  0.17000  0.73600  1.0000
  H   H22       1.0  0.80900  0.48700  0.74500  1.0000
  H   H23       1.0  0.07290  0.87900  0.76400  1.0000
  H   H24       1.0  0.63700  0.00265  0.87300  1.0000
  H   H25       1.0  0.84400  0.61600  0.90400  1.0000
  H   H26       1.0  0.26600  0.50700  0.93100  1.0000
  H   H27       1.0  0.66500  0.31400  0.97300  1.0000
  H   H28       1.0  0.74800  0.91900  0.98900  1.0000
  O   O1        1.0  0.63700  0.39400  0.05820  1.0000
  O   O2        1.0  0.38300  0.09370  0.10100  1.0000
  O   O3        1.0  0.21000  0.40500  0.20500  1.0000
  O   O4        1.0  0.93300  0.22800  0.30100  1.0000
  O   O5        1.0  0.76400  0.83100  0.32800  1.0000
  O   O6        1.0  0.76600  0.54100  0.43900  1.0000
  O   O7        1.0  0.47500  0.24200  0.44100  1.0000
  O   O8        1.0  0.52500  0.75800  0.55900  1.0000
  O   O9        1.0  0.23400  0.45900  0.56100  1.0000
  O   O10       1.0  0.23600  0.16900  0.67200  1.0000
  O   O11       1.0  0.06660  0.77200  0.69900  1.0000
  O   O12       1.0  0.79000  0.59500  0.79500  1.0000
  O   O13       1.0  0.61700  0.90600  0.89900  1.0000
  O   O14       1.0  0.36300  0.60600  0.94200  1.0000
