data_image0
_chemical_formula_structural       Cl4Cr2H34N8O6
_chemical_formula_sum              "Cl4 Cr2 H34 N8 O6"
_cell_length_a       6.44672
_cell_length_b       7.69804
_cell_length_c       10.0503
_cell_angle_alpha    92.3309
_cell_angle_beta     106.64
_cell_angle_gamma    105.74

_space_group_name_H-M_alt    "P 1"
_space_group_IT_number       1

loop_
  _space_group_symop_operation_xyz
  'x, y, z'

loop_
  _atom_site_type_symbol
  _atom_site_label
  _atom_site_symmetry_multiplicity
  _atom_site_fract_x
  _atom_site_fract_y
  _atom_site_fract_z
  _atom_site_occupancy
  Cl  Cl1       1.0  0.35900  0.65900  0.05060  1.0000
  Cl  Cl2       1.0  0.82900  0.67300  0.45900  1.0000
  Cl  Cl3       1.0  0.17100  0.32700  0.54100  1.0000
  Cl  Cl4       1.0  0.64100  0.34100  0.94900  1.0000
  Cr  Cr1       1.0  0.01190  0.00864  0.15400  1.0000
  Cr  Cr2       1.0  0.98800  0.99100  0.84600  1.0000
  H   H1        1.0  0.28300  0.91300  0.04310  1.0000
  H   H2        1.0  0.77500  0.65800  0.07920  1.0000
  H   H3        1.0  0.98000  0.34300  0.11700  1.0000
  H   H4        1.0  0.05170  0.67600  0.12900  1.0000
  H   H5        1.0  0.60300  0.33000  0.15500  1.0000
  H   H6        1.0  0.25400  0.35400  0.17100  1.0000
  H   H7        1.0  0.62100  0.90400  0.19100  1.0000
  H   H8        1.0  0.92300  0.69300  0.24700  1.0000
  H   H9        1.0  0.73500  0.11900  0.27200  1.0000
  H   H10       1.0  0.11200  0.34200  0.28400  1.0000
  H   H11       1.0  0.68300  0.43700  0.30900  1.0000
  H   H12       1.0  0.41600  0.12000  0.32300  1.0000
  H   H13       1.0  0.80700  0.94300  0.34800  1.0000
  H   H14       1.0  0.30200  0.91400  0.36800  1.0000
  H   H15       1.0  0.46700  0.66500  0.40800  1.0000
  H   H16       1.0  0.24600  0.10200  0.42000  1.0000
  H   H17       1.0  0.24900  0.60700  0.45400  1.0000
  H   H18       1.0  0.75100  0.39300  0.54600  1.0000
  H   H19       1.0  0.75400  0.89800  0.58000  1.0000
  H   H20       1.0  0.53300  0.33500  0.59200  1.0000
  H   H21       1.0  0.69800  0.08630  0.63200  1.0000
  H   H22       1.0  0.19300  0.05660  0.65200  1.0000
  H   H23       1.0  0.58400  0.88000  0.67700  1.0000
  H   H24       1.0  0.31700  0.56300  0.69100  1.0000
  H   H25       1.0  0.88800  0.65800  0.71600  1.0000
  H   H26       1.0  0.26500  0.88100  0.72800  1.0000
  H   H27       1.0  0.07730  0.30700  0.75300  1.0000
  H   H28       1.0  0.37900  0.09620  0.80900  1.0000
  H   H29       1.0  0.74600  0.64600  0.82900  1.0000
  H   H30       1.0  0.39700  0.67000  0.84500  1.0000
  H   H31       1.0  0.94800  0.32400  0.87100  1.0000
  H   H32       1.0  0.02000  0.65700  0.88300  1.0000
  H   H33       1.0  0.22500  0.34200  0.92100  1.0000
  H   H34       1.0  0.71700  0.08730  0.95700  1.0000
  N   N1        1.0  0.93000  0.72600  0.15000  1.0000
  N   N2        1.0  0.09860  0.29400  0.18400  1.0000
  N   N3        1.0  0.76800  0.99700  0.25500  1.0000
  N   N4        1.0  0.27300  0.03520  0.33900  1.0000
  N   N5        1.0  0.72700  0.96500  0.66100  1.0000
  N   N6        1.0  0.23200  0.00329  0.74500  1.0000
  N   N7        1.0  0.90100  0.70600  0.81600  1.0000
  N   N8        1.0  0.06990  0.27400  0.85000  1.0000
  O   O1        1.0  0.21700  0.01500  0.03530  1.0000
  O   O2        1.0  0.60900  0.31600  0.25300  1.0000
  O   O3        1.0  0.31800  0.68500  0.39400  1.0000
  O   O4        1.0  0.68200  0.31500  0.60600  1.0000
  O   O5        1.0  0.39100  0.68400  0.74700  1.0000
  O   O6        1.0  0.78300  0.98500  0.96500  1.0000
