data_image0
_chemical_formula_structural       Ba8S32Sn8Zn8
_chemical_formula_sum              "Ba8 S32 Sn8 Zn8"
_cell_length_a       12.5719
_cell_length_b       12.5719
_cell_length_c       12.8091
_cell_angle_alpha    104.777
_cell_angle_beta     104.777
_cell_angle_gamma    118.702

_space_group_name_H-M_alt    "P 1"
_space_group_IT_number       1

loop_
  _space_group_symop_operation_xyz
  'x, y, z'

loop_
  _atom_site_type_symbol
  _atom_site_label
  _atom_site_symmetry_multiplicity
  _atom_site_fract_x
  _atom_site_fract_y
  _atom_site_fract_z
  _atom_site_occupancy
  Ba  Ba1       1.0  0.50000  0.50000  0.00000  1.0000
  Ba  Ba2       1.0  0.99700  0.99700  0.00000  1.0000
  Ba  Ba3       1.0  0.49900  0.00059  0.00351  1.0000
  Ba  Ba4       1.0  0.24600  0.24700  0.49600  1.0000
  Ba  Ba5       1.0  0.74700  0.24700  0.50000  1.0000
  Ba  Ba6       1.0  0.25000  0.75000  0.50000  1.0000
  Ba  Ba7       1.0  0.75100  0.74900  0.50400  1.0000
  Ba  Ba8       1.0  0.99700  0.49600  0.99600  1.0000
  S   S1        1.0  0.29100  0.04190  0.08630  1.0000
  S   S2        1.0  0.79100  0.54000  0.08710  1.0000
  S   S3        1.0  0.79000  0.04000  0.08760  1.0000
  S   S4        1.0  0.29300  0.54300  0.08780  1.0000
  S   S5        1.0  0.18700  0.78100  0.24700  1.0000
  S   S6        1.0  0.01810  0.96500  0.24800  1.0000
  S   S7        1.0  0.06540  0.46800  0.24800  1.0000
  S   S8        1.0  0.22100  0.28500  0.24900  1.0000
  S   S9        1.0  0.72200  0.28700  0.25100  1.0000
  S   S10       1.0  0.56700  0.47000  0.25200  1.0000
  S   S11       1.0  0.52000  0.96600  0.25200  1.0000
  S   S12       1.0  0.69000  0.78400  0.25300  1.0000
  S   S13       1.0  0.95500  0.70500  0.41200  1.0000
  S   S14       1.0  0.45200  0.20200  0.41200  1.0000
  S   S15       1.0  0.45400  0.70200  0.41300  1.0000
  S   S16       1.0  0.95400  0.20600  0.41400  1.0000
  S   S17       1.0  0.79200  0.54100  0.58600  1.0000
  S   S18       1.0  0.29000  0.04080  0.58700  1.0000
  S   S19       1.0  0.79000  0.03960  0.58800  1.0000
  S   S20       1.0  0.29300  0.54300  0.58800  1.0000
  S   S21       1.0  0.53100  0.43700  0.74700  1.0000
  S   S22       1.0  0.71500  0.26800  0.74800  1.0000
  S   S23       1.0  0.21800  0.31500  0.74800  1.0000
  S   S24       1.0  0.03540  0.47100  0.74900  1.0000
  S   S25       1.0  0.03670  0.97200  0.75100  1.0000
  S   S26       1.0  0.22000  0.81700  0.75200  1.0000
  S   S27       1.0  0.71600  0.77000  0.75200  1.0000
  S   S28       1.0  0.53400  0.94000  0.75300  1.0000
  S   S29       1.0  0.45500  0.20500  0.91200  1.0000
  S   S30       1.0  0.95200  0.70200  0.91200  1.0000
  S   S31       1.0  0.45200  0.70400  0.91300  1.0000
  S   S32       1.0  0.95600  0.20400  0.91400  1.0000
  Sn  Sn1       1.0  0.98500  0.76000  0.24900  1.0000
  Sn  Sn2       1.0  0.90400  0.26400  0.25000  1.0000
  Sn  Sn3       1.0  0.40400  0.26400  0.25000  1.0000
  Sn  Sn4       1.0  0.48600  0.76200  0.25100  1.0000
  Sn  Sn5       1.0  0.51000  0.23500  0.74900  1.0000
  Sn  Sn6       1.0  0.01390  0.15400  0.75000  1.0000
  Sn  Sn7       1.0  0.01400  0.65400  0.75000  1.0000
  Sn  Sn8       1.0  0.51200  0.73600  0.75100  1.0000
  Zn  Zn1       1.0  0.33700  0.98300  0.24900  1.0000
  Zn  Zn2       1.0  0.26400  0.48600  0.25000  1.0000
  Zn  Zn3       1.0  0.76500  0.48700  0.25000  1.0000
  Zn  Zn4       1.0  0.83800  0.98400  0.25100  1.0000
  Zn  Zn5       1.0  0.73300  0.58700  0.74900  1.0000
  Zn  Zn6       1.0  0.23600  0.51400  0.75000  1.0000
  Zn  Zn7       1.0  0.23700  0.01490  0.75000  1.0000
  Zn  Zn8       1.0  0.73400  0.08780  0.75100  1.0000
