data_image0
_chemical_formula_structural       Al16Na16Sb24
_chemical_formula_sum              "Al16 Na16 Sb24"
_cell_length_a       14.1391
_cell_length_b       7.23512
_cell_length_c       15.4342
_cell_angle_alpha    90
_cell_angle_beta     90.3443
_cell_angle_gamma    90

_space_group_name_H-M_alt    "P 1"
_space_group_IT_number       1

loop_
  _space_group_symop_operation_xyz
  'x, y, z'

loop_
  _atom_site_type_symbol
  _atom_site_label
  _atom_site_symmetry_multiplicity
  _atom_site_fract_x
  _atom_site_fract_y
  _atom_site_fract_z
  _atom_site_occupancy
  Al  Al1       1.0  0.31300  0.70900  0.16100  1.0000
  Al  Al2       1.0  0.18800  0.23500  0.16800  1.0000
  Al  Al3       1.0  0.09530  0.70800  0.22800  1.0000
  Al  Al4       1.0  0.40700  0.22800  0.23800  1.0000
  Al  Al5       1.0  0.59300  0.72800  0.26200  1.0000
  Al  Al6       1.0  0.90500  0.20800  0.27200  1.0000
  Al  Al7       1.0  0.81200  0.73500  0.33200  1.0000
  Al  Al8       1.0  0.68700  0.20900  0.33900  1.0000
  Al  Al9       1.0  0.31300  0.79100  0.66100  1.0000
  Al  Al10      1.0  0.18800  0.26500  0.66800  1.0000
  Al  Al11      1.0  0.09530  0.79200  0.72800  1.0000
  Al  Al12      1.0  0.40700  0.27200  0.73800  1.0000
  Al  Al13      1.0  0.59300  0.77200  0.76200  1.0000
  Al  Al14      1.0  0.90500  0.29200  0.77200  1.0000
  Al  Al15      1.0  0.81200  0.76500  0.83200  1.0000
  Al  Al16      1.0  0.68700  0.29100  0.83900  1.0000
  Na  Na1       1.0  0.86500  0.04430  0.01170  1.0000
  Na  Na2       1.0  0.64900  0.56500  0.02070  1.0000
  Na  Na3       1.0  0.56100  0.06410  0.09800  1.0000
  Na  Na4       1.0  0.92100  0.53900  0.11400  1.0000
  Na  Na5       1.0  0.07870  0.03920  0.38600  1.0000
  Na  Na6       1.0  0.43900  0.56400  0.40200  1.0000
  Na  Na7       1.0  0.35100  0.06510  0.47900  1.0000
  Na  Na8       1.0  0.13500  0.54400  0.48800  1.0000
  Na  Na9       1.0  0.86500  0.45600  0.51200  1.0000
  Na  Na10      1.0  0.64900  0.93500  0.52100  1.0000
  Na  Na11      1.0  0.56100  0.43600  0.59800  1.0000
  Na  Na12      1.0  0.92100  0.96100  0.61400  1.0000
  Na  Na13      1.0  0.07870  0.46100  0.88600  1.0000
  Na  Na14      1.0  0.43900  0.93600  0.90200  1.0000
  Na  Na15      1.0  0.35100  0.43500  0.97900  1.0000
  Na  Na16      1.0  0.13500  0.95600  0.98800  1.0000
  Sb  Sb1       1.0  0.15700  0.54700  0.07970  1.0000
  Sb  Sb2       1.0  0.33800  0.04810  0.09460  1.0000
  Sb  Sb3       1.0  0.48000  0.52500  0.15600  1.0000
  Sb  Sb4       1.0  0.02690  0.03100  0.16700  1.0000
  Sb  Sb5       1.0  0.75100  0.82600  0.16900  1.0000
  Sb  Sb6       1.0  0.74600  0.23100  0.17300  1.0000
  Sb  Sb7       1.0  0.25400  0.73100  0.32700  1.0000
  Sb  Sb8       1.0  0.24900  0.32600  0.33100  1.0000
  Sb  Sb9       1.0  0.97300  0.53100  0.33300  1.0000
  Sb  Sb10      1.0  0.52000  0.02460  0.34400  1.0000
  Sb  Sb11      1.0  0.66200  0.54800  0.40500  1.0000
  Sb  Sb12      1.0  0.84300  0.04720  0.42000  1.0000
  Sb  Sb13      1.0  0.15700  0.95300  0.58000  1.0000
  Sb  Sb14      1.0  0.33800  0.45200  0.59500  1.0000
  Sb  Sb15      1.0  0.48000  0.97500  0.65600  1.0000
  Sb  Sb16      1.0  0.02690  0.46900  0.66700  1.0000
  Sb  Sb17      1.0  0.75100  0.67400  0.66900  1.0000
  Sb  Sb18      1.0  0.74600  0.26900  0.67300  1.0000
  Sb  Sb19      1.0  0.25400  0.76900  0.82700  1.0000
  Sb  Sb20      1.0  0.24900  0.17400  0.83100  1.0000
  Sb  Sb21      1.0  0.97300  0.96900  0.83300  1.0000
  Sb  Sb22      1.0  0.52000  0.47500  0.84400  1.0000
  Sb  Sb23      1.0  0.66200  0.95200  0.90500  1.0000
  Sb  Sb24      1.0  0.84300  0.45300  0.92000  1.0000
