data_image0
_chemical_formula_structural       O2Pb2Sn2Te2
_chemical_formula_sum              "O2 Pb2 Sn2 Te2"
_cell_length_a       4.00392
_cell_length_b       3.99121
_cell_length_c       15.1365
_cell_angle_alpha    90
_cell_angle_beta     90
_cell_angle_gamma    120.105

_space_group_name_H-M_alt    "P 1"
_space_group_IT_number       1

loop_
  _space_group_symop_operation_xyz
  'x, y, z'

loop_
  _atom_site_type_symbol
  _atom_site_label
  _atom_site_symmetry_multiplicity
  _atom_site_fract_x
  _atom_site_fract_y
  _atom_site_fract_z
  _atom_site_occupancy
  O   O1        1.0  0.00117  0.00234  0.31500  1.0000
  O   O2        1.0  0.99900  0.99800  0.81500  1.0000
  Pb  Pb1       1.0  0.99900  0.99800  0.48600  1.0000
  Pb  Pb2       1.0  0.00081  0.00162  0.98600  1.0000
  Sn  Sn1       1.0  0.33200  0.66500  0.26900  1.0000
  Sn  Sn2       1.0  0.66800  0.33500  0.76900  1.0000
  Te  Te1       1.0  0.66700  0.33400  0.11800  1.0000
  Te  Te2       1.0  0.33300  0.66600  0.61800  1.0000
