data_image0
_chemical_formula_structural       Cs4Nb8P4S40
_chemical_formula_sum              "Cs4 Nb8 P4 S40"
_cell_length_a       14.2514
_cell_length_b       7.67644
_cell_length_c       13.102
_cell_angle_alpha    89.9978
_cell_angle_beta     95.6306
_cell_angle_gamma    90.0149

_space_group_name_H-M_alt    "P 1"
_space_group_IT_number       1

loop_
  _space_group_symop_operation_xyz
  'x, y, z'

loop_
  _atom_site_type_symbol
  _atom_site_label
  _atom_site_symmetry_multiplicity
  _atom_site_fract_x
  _atom_site_fract_y
  _atom_site_fract_z
  _atom_site_occupancy
  Cs  Cs1       1.0  0.09760  0.51800  0.21900  1.0000
  Cs  Cs2       1.0  0.59900  0.50000  0.46300  1.0000
  Cs  Cs3       1.0  0.09760  0.48200  0.71900  1.0000
  Cs  Cs4       1.0  0.59900  0.50000  0.96300  1.0000
  Nb  Nb1       1.0  0.86900  0.06870  0.06920  1.0000
  Nb  Nb2       1.0  0.37400  0.06520  0.12700  1.0000
  Nb  Nb3       1.0  0.37200  0.93900  0.33600  1.0000
  Nb  Nb4       1.0  0.87100  0.05660  0.36000  1.0000
  Nb  Nb5       1.0  0.86900  0.93100  0.56900  1.0000
  Nb  Nb6       1.0  0.37400  0.93500  0.62700  1.0000
  Nb  Nb7       1.0  0.37200  0.06070  0.83600  1.0000
  Nb  Nb8       1.0  0.87100  0.94300  0.86000  1.0000
  P   P1        1.0  0.79800  0.40200  0.21400  1.0000
  P   P2        1.0  0.29900  0.59800  0.47400  1.0000
  P   P3        1.0  0.79800  0.59800  0.71400  1.0000
  P   P4        1.0  0.29900  0.40200  0.97500  1.0000
  S   S1        1.0  0.87000  0.40700  0.08470  1.0000
  S   S2        1.0  0.39000  0.39900  0.10800  1.0000
  S   S3        1.0  0.24400  0.89000  0.18800  1.0000
  S   S4        1.0  0.74500  0.14500  0.20400  1.0000
  S   S5        1.0  0.89900  0.84300  0.21400  1.0000
  S   S6        1.0  0.70200  0.59000  0.21600  1.0000
  S   S7        1.0  0.49900  0.87400  0.22400  1.0000
  S   S8        1.0  0.99300  0.04860  0.22800  1.0000
  S   S9        1.0  0.25000  0.13700  0.24800  1.0000
  S   S10       1.0  0.49900  0.12800  0.26900  1.0000
  S   S11       1.0  0.37000  0.59900  0.34400  1.0000
  S   S12       1.0  0.88700  0.39200  0.34800  1.0000
  S   S13       1.0  0.74100  0.87800  0.42000  1.0000
  S   S14       1.0  0.99200  0.85500  0.45400  1.0000
  S   S15       1.0  0.24900  0.85600  0.47000  1.0000
  S   S16       1.0  0.20300  0.41100  0.47300  1.0000
  S   S17       1.0  0.74600  0.12500  0.48100  1.0000
  S   S18       1.0  0.40300  0.15600  0.48500  1.0000
  S   S19       1.0  0.49600  0.95000  0.49500  1.0000
  S   S20       1.0  0.99900  0.10800  0.49900  1.0000
  S   S21       1.0  0.87000  0.59300  0.58500  1.0000
  S   S22       1.0  0.39000  0.60100  0.60800  1.0000
  S   S23       1.0  0.24400  0.11000  0.68800  1.0000
  S   S24       1.0  0.74500  0.85500  0.70400  1.0000
  S   S25       1.0  0.89900  0.15700  0.71400  1.0000
  S   S26       1.0  0.70200  0.41000  0.71600  1.0000
  S   S27       1.0  0.49900  0.12600  0.72400  1.0000
  S   S28       1.0  0.99300  0.95100  0.72800  1.0000
  S   S29       1.0  0.25000  0.86300  0.74800  1.0000
  S   S30       1.0  0.49900  0.87200  0.76900  1.0000
  S   S31       1.0  0.37000  0.40100  0.84400  1.0000
  S   S32       1.0  0.88700  0.60800  0.84800  1.0000
  S   S33       1.0  0.74100  0.12200  0.92000  1.0000
  S   S34       1.0  0.99200  0.14500  0.95400  1.0000
  S   S35       1.0  0.24900  0.14400  0.97000  1.0000
  S   S36       1.0  0.20300  0.58900  0.97300  1.0000
  S   S37       1.0  0.74600  0.87500  0.98100  1.0000
  S   S38       1.0  0.40300  0.84400  0.98500  1.0000
  S   S39       1.0  0.49600  0.04980  0.99500  1.0000
  S   S40       1.0  0.99900  0.89200  0.99900  1.0000
