data_image0
_chemical_formula_structural       Ag28P4Se24
_chemical_formula_sum              "Ag28 P4 Se24"
_cell_length_a       10.9217
_cell_length_b       10.9217
_cell_length_c       10.9217
_cell_angle_alpha    90
_cell_angle_beta     90
_cell_angle_gamma    90

_space_group_name_H-M_alt    "P 1"
_space_group_IT_number       1

loop_
  _space_group_symop_operation_xyz
  'x, y, z'

loop_
  _atom_site_type_symbol
  _atom_site_label
  _atom_site_symmetry_multiplicity
  _atom_site_fract_x
  _atom_site_fract_y
  _atom_site_fract_z
  _atom_site_occupancy
  Ag  Ag1       1.0  0.01430  0.28000  0.01180  1.0000
  Ag  Ag2       1.0  0.28000  0.01180  0.01430  1.0000
  Ag  Ag3       1.0  0.89400  0.72700  0.07140  1.0000
  Ag  Ag4       1.0  0.22700  0.42900  0.10600  1.0000
  Ag  Ag5       1.0  0.65700  0.84300  0.15700  1.0000
  Ag  Ag6       1.0  0.98800  0.51400  0.22000  1.0000
  Ag  Ag7       1.0  0.42900  0.10600  0.22700  1.0000
  Ag  Ag8       1.0  0.57100  0.60600  0.27300  1.0000
  Ag  Ag9       1.0  0.01180  0.01430  0.28000  1.0000
  Ag  Ag10      1.0  0.34300  0.34300  0.34300  1.0000
  Ag  Ag11      1.0  0.77300  0.92900  0.39400  1.0000
  Ag  Ag12      1.0  0.10600  0.22700  0.42900  1.0000
  Ag  Ag13      1.0  0.72000  0.51200  0.48600  1.0000
  Ag  Ag14      1.0  0.98600  0.78000  0.48800  1.0000
  Ag  Ag15      1.0  0.48600  0.72000  0.51200  1.0000
  Ag  Ag16      1.0  0.22000  0.98800  0.51400  1.0000
  Ag  Ag17      1.0  0.60600  0.27300  0.57100  1.0000
  Ag  Ag18      1.0  0.27300  0.57100  0.60600  1.0000
  Ag  Ag19      1.0  0.84300  0.15700  0.65700  1.0000
  Ag  Ag20      1.0  0.51200  0.48600  0.72000  1.0000
  Ag  Ag21      1.0  0.07140  0.89400  0.72700  1.0000
  Ag  Ag22      1.0  0.92900  0.39400  0.77300  1.0000
  Ag  Ag23      1.0  0.48800  0.98600  0.78000  1.0000
  Ag  Ag24      1.0  0.15700  0.65700  0.84300  1.0000
  Ag  Ag25      1.0  0.72700  0.07140  0.89400  1.0000
  Ag  Ag26      1.0  0.39400  0.77300  0.92900  1.0000
  Ag  Ag27      1.0  0.78000  0.48800  0.98600  1.0000
  Ag  Ag28      1.0  0.51400  0.22000  0.98800  1.0000
  P   P1        1.0  0.75300  0.25300  0.24700  1.0000
  P   P2        1.0  0.24700  0.75300  0.25300  1.0000
  P   P3        1.0  0.74700  0.74700  0.74700  1.0000
  P   P4        1.0  0.25300  0.24700  0.75300  1.0000
  Se  Se1       1.0  0.52200  0.97800  0.02190  1.0000
  Se  Se2       1.0  0.85900  0.13000  0.12200  1.0000
  Se  Se3       1.0  0.12200  0.85900  0.13000  1.0000
  Se  Se4       1.0  0.36700  0.63300  0.13300  1.0000
  Se  Se5       1.0  0.63000  0.37800  0.14100  1.0000
  Se  Se6       1.0  0.20900  0.20900  0.20900  1.0000
  Se  Se7       1.0  0.79100  0.70900  0.29100  1.0000
  Se  Se8       1.0  0.37000  0.87800  0.35900  1.0000
  Se  Se9       1.0  0.63300  0.13300  0.36700  1.0000
  Se  Se10      1.0  0.87800  0.35900  0.37000  1.0000
  Se  Se11      1.0  0.14100  0.63000  0.37800  1.0000
  Se  Se12      1.0  0.47800  0.47800  0.47800  1.0000
  Se  Se13      1.0  0.97800  0.02190  0.52200  1.0000
  Se  Se14      1.0  0.64100  0.87000  0.62200  1.0000
  Se  Se15      1.0  0.37800  0.14100  0.63000  1.0000
  Se  Se16      1.0  0.13300  0.36700  0.63300  1.0000
  Se  Se17      1.0  0.87000  0.62200  0.64100  1.0000
  Se  Se18      1.0  0.29100  0.79100  0.70900  1.0000
  Se  Se19      1.0  0.70900  0.29100  0.79100  1.0000
  Se  Se20      1.0  0.13000  0.12200  0.85900  1.0000
  Se  Se21      1.0  0.86700  0.86700  0.86700  1.0000
  Se  Se22      1.0  0.62200  0.64100  0.87000  1.0000
  Se  Se23      1.0  0.35900  0.37000  0.87800  1.0000
  Se  Se24      1.0  0.02190  0.52200  0.97800  1.0000
