data_image0
_chemical_formula_structural       K2Mo24S28
_chemical_formula_sum              "K2 Mo24 S28"
_cell_length_a       9.17534
_cell_length_b       9.17653
_cell_length_c       16.4853
_cell_angle_alpha    89.994
_cell_angle_beta     90.003
_cell_angle_gamma    120.004

_space_group_name_H-M_alt    "P 1"
_space_group_IT_number       1

loop_
  _space_group_symop_operation_xyz
  'x, y, z'

loop_
  _atom_site_type_symbol
  _atom_site_label
  _atom_site_symmetry_multiplicity
  _atom_site_fract_x
  _atom_site_fract_y
  _atom_site_fract_z
  _atom_site_occupancy
  K   K1        1.0  0.33300  0.66700  0.25000  1.0000
  K   K2        1.0  0.66700  0.33300  0.75000  1.0000
  Mo  Mo1       1.0  0.65300  0.49600  0.04220  1.0000
  Mo  Mo2       1.0  0.50400  0.15700  0.04220  1.0000
  Mo  Mo3       1.0  0.84300  0.34700  0.04220  1.0000
  Mo  Mo4       1.0  0.49500  0.33100  0.18400  1.0000
  Mo  Mo5       1.0  0.83600  0.50500  0.18400  1.0000
  Mo  Mo6       1.0  0.66900  0.16400  0.18400  1.0000
  Mo  Mo7       1.0  0.66900  0.50500  0.31600  1.0000
  Mo  Mo8       1.0  0.83600  0.33100  0.31600  1.0000
  Mo  Mo9       1.0  0.49500  0.16400  0.31600  1.0000
  Mo  Mo10      1.0  0.84300  0.49600  0.45800  1.0000
  Mo  Mo11      1.0  0.50400  0.34700  0.45800  1.0000
  Mo  Mo12      1.0  0.65300  0.15700  0.45800  1.0000
  Mo  Mo13      1.0  0.34700  0.84300  0.54200  1.0000
  Mo  Mo14      1.0  0.49600  0.65300  0.54200  1.0000
  Mo  Mo15      1.0  0.15700  0.50400  0.54200  1.0000
  Mo  Mo16      1.0  0.50500  0.83600  0.68400  1.0000
  Mo  Mo17      1.0  0.16400  0.66900  0.68400  1.0000
  Mo  Mo18      1.0  0.33100  0.49500  0.68400  1.0000
  Mo  Mo19      1.0  0.33100  0.83600  0.81600  1.0000
  Mo  Mo20      1.0  0.16400  0.49500  0.81600  1.0000
  Mo  Mo21      1.0  0.50500  0.66900  0.81600  1.0000
  Mo  Mo22      1.0  0.15700  0.65300  0.95800  1.0000
  Mo  Mo23      1.0  0.49600  0.84300  0.95800  1.0000
  Mo  Mo24      1.0  0.34700  0.50400  0.95800  1.0000
  S   S1        1.0  0.95900  0.65200  0.05780  1.0000
  S   S2        1.0  0.34800  0.30700  0.05790  1.0000
  S   S3        1.0  0.69200  0.04090  0.05790  1.0000
  S   S4        1.0  0.33300  0.66700  0.06780  1.0000
  S   S5        1.0  0.66100  0.64100  0.18200  1.0000
  S   S6        1.0  0.98000  0.33900  0.18200  1.0000
  S   S7        1.0  0.35900  0.01960  0.18200  1.0000
  S   S8        1.0  0.35900  0.33900  0.31800  1.0000
  S   S9        1.0  0.98000  0.64100  0.31800  1.0000
  S   S10       1.0  0.66100  0.01960  0.31800  1.0000
  S   S11       1.0  0.33300  0.66700  0.43200  1.0000
  S   S12       1.0  0.69200  0.65200  0.44200  1.0000
  S   S13       1.0  0.34800  0.04090  0.44200  1.0000
  S   S14       1.0  0.95900  0.30700  0.44200  1.0000
  S   S15       1.0  0.04090  0.69300  0.55800  1.0000
  S   S16       1.0  0.65200  0.95900  0.55800  1.0000
  S   S17       1.0  0.30800  0.34800  0.55800  1.0000
  S   S18       1.0  0.66700  0.33300  0.56800  1.0000
  S   S19       1.0  0.33900  0.98000  0.68200  1.0000
  S   S20       1.0  0.01960  0.35900  0.68200  1.0000
  S   S21       1.0  0.64100  0.66100  0.68200  1.0000
  S   S22       1.0  0.64100  0.98000  0.81800  1.0000
  S   S23       1.0  0.01960  0.66100  0.81800  1.0000
  S   S24       1.0  0.33900  0.35900  0.81800  1.0000
  S   S25       1.0  0.66700  0.33300  0.93200  1.0000
  S   S26       1.0  0.30800  0.95900  0.94200  1.0000
  S   S27       1.0  0.65200  0.69300  0.94200  1.0000
  S   S28       1.0  0.04090  0.34800  0.94200  1.0000
