data_image0
_chemical_formula_structural       Ba8C8F12O24Y4
_chemical_formula_sum              "Ba8 C8 F12 O24 Y4"
_cell_length_a       9.40314
_cell_length_b       6.88364
_cell_length_c       11.7392
_cell_angle_alpha    90
_cell_angle_beta     90
_cell_angle_gamma    90

_space_group_name_H-M_alt    "P 1"
_space_group_IT_number       1

loop_
  _space_group_symop_operation_xyz
  'x, y, z'

loop_
  _atom_site_type_symbol
  _atom_site_label
  _atom_site_symmetry_multiplicity
  _atom_site_fract_x
  _atom_site_fract_y
  _atom_site_fract_z
  _atom_site_occupancy
  Ba  Ba1       1.0  0.37900  0.23900  0.07060  1.0000
  Ba  Ba2       1.0  0.12100  0.73900  0.07060  1.0000
  Ba  Ba3       1.0  0.62100  0.23900  0.42900  1.0000
  Ba  Ba4       1.0  0.87900  0.73900  0.42900  1.0000
  Ba  Ba5       1.0  0.12100  0.26100  0.57100  1.0000
  Ba  Ba6       1.0  0.37900  0.76100  0.57100  1.0000
  Ba  Ba7       1.0  0.87900  0.26100  0.92900  1.0000
  Ba  Ba8       1.0  0.62100  0.76100  0.92900  1.0000
  C   C1        1.0  0.69400  0.47800  0.17900  1.0000
  C   C2        1.0  0.80600  0.97800  0.17900  1.0000
  C   C3        1.0  0.30600  0.47800  0.32100  1.0000
  C   C4        1.0  0.19400  0.97800  0.32100  1.0000
  C   C5        1.0  0.80600  0.02250  0.67900  1.0000
  C   C6        1.0  0.69400  0.52200  0.67900  1.0000
  C   C7        1.0  0.19400  0.02250  0.82100  1.0000
  C   C8        1.0  0.30600  0.52200  0.82100  1.0000
  F   F1        1.0  0.09620  0.34900  0.07540  1.0000
  F   F2        1.0  0.40400  0.84900  0.07540  1.0000
  F   F3        1.0  0.50000  0.10300  0.25000  1.0000
  F   F4        1.0  0.00000  0.60300  0.25000  1.0000
  F   F5        1.0  0.90400  0.34900  0.42500  1.0000
  F   F6        1.0  0.59600  0.84900  0.42500  1.0000
  F   F7        1.0  0.40400  0.15100  0.57500  1.0000
  F   F8        1.0  0.09620  0.65100  0.57500  1.0000
  F   F9        1.0  0.00000  0.39700  0.75000  1.0000
  F   F10       1.0  0.50000  0.89700  0.75000  1.0000
  F   F11       1.0  0.59600  0.15100  0.92500  1.0000
  F   F12       1.0  0.90400  0.65100  0.92500  1.0000
  O   O1        1.0  0.91300  0.01750  0.11300  1.0000
  O   O2        1.0  0.58700  0.51700  0.11300  1.0000
  O   O3        1.0  0.80000  0.37800  0.14300  1.0000
  O   O4        1.0  0.70000  0.87800  0.14300  1.0000
  O   O5        1.0  0.18800  0.04310  0.21700  1.0000
  O   O6        1.0  0.31200  0.54300  0.21700  1.0000
  O   O7        1.0  0.81200  0.04310  0.28300  1.0000
  O   O8        1.0  0.68800  0.54300  0.28300  1.0000
  O   O9        1.0  0.20000  0.37800  0.35700  1.0000
  O   O10       1.0  0.30000  0.87800  0.35700  1.0000
  O   O11       1.0  0.08720  0.01750  0.38700  1.0000
  O   O12       1.0  0.41300  0.51700  0.38700  1.0000
  O   O13       1.0  0.58700  0.48300  0.61300  1.0000
  O   O14       1.0  0.91300  0.98300  0.61300  1.0000
  O   O15       1.0  0.70000  0.12200  0.64300  1.0000
  O   O16       1.0  0.80000  0.62200  0.64300  1.0000
  O   O17       1.0  0.31200  0.45700  0.71700  1.0000
  O   O18       1.0  0.18800  0.95700  0.71700  1.0000
  O   O19       1.0  0.68800  0.45700  0.78300  1.0000
  O   O20       1.0  0.81200  0.95700  0.78300  1.0000
  O   O21       1.0  0.30000  0.12200  0.85700  1.0000
  O   O22       1.0  0.20000  0.62200  0.85700  1.0000
  O   O23       1.0  0.41300  0.48300  0.88700  1.0000
  O   O24       1.0  0.08720  0.98300  0.88700  1.0000
  Y   Y1        1.0  0.00000  0.27300  0.25000  1.0000
  Y   Y2        1.0  0.50000  0.77300  0.25000  1.0000
  Y   Y3        1.0  0.50000  0.22700  0.75000  1.0000
  Y   Y4        1.0  0.00000  0.72700  0.75000  1.0000
