data_image0
_chemical_formula_structural       H24N6O19P6
_chemical_formula_sum              "H24 N6 O19 P6"
_cell_length_a       7.4182
_cell_length_b       9.00698
_cell_length_c       9.00698
_cell_angle_alpha    112.765
_cell_angle_beta     105.934
_cell_angle_gamma    105.934

_space_group_name_H-M_alt    "P 1"
_space_group_IT_number       1

loop_
  _space_group_symop_operation_xyz
  'x, y, z'

loop_
  _atom_site_type_symbol
  _atom_site_label
  _atom_site_symmetry_multiplicity
  _atom_site_fract_x
  _atom_site_fract_y
  _atom_site_fract_z
  _atom_site_occupancy
  H   H1        1.0  0.80400  0.42400  0.02750  1.0000
  H   H2        1.0  0.63100  0.41700  0.11600  1.0000
  H   H3        1.0  0.64500  0.79800  0.18400  1.0000
  H   H4        1.0  0.84700  0.38600  0.20200  1.0000
  H   H5        1.0  0.87500  0.59100  0.23200  1.0000
  H   H6        1.0  0.51500  0.88400  0.30100  1.0000
  H   H7        1.0  0.64300  0.76800  0.35900  1.0000
  H   H8        1.0  0.53900  0.18400  0.38600  1.0000
  H   H9        1.0  0.77600  0.97300  0.39600  1.0000
  H   H10       1.0  0.28400  0.64100  0.40900  1.0000
  H   H11       1.0  0.78600  0.30100  0.41700  1.0000
  H   H12       1.0  0.62000  0.39600  0.42400  1.0000
  H   H13       1.0  0.38000  0.60400  0.57600  1.0000
  H   H14       1.0  0.21400  0.69900  0.58300  1.0000
  H   H15       1.0  0.71600  0.35900  0.59100  1.0000
  H   H16       1.0  0.22400  0.02750  0.60400  1.0000
  H   H17       1.0  0.46100  0.81600  0.61400  1.0000
  H   H18       1.0  0.35700  0.23200  0.64100  1.0000
  H   H19       1.0  0.48500  0.11600  0.69900  1.0000
  H   H20       1.0  0.12500  0.40900  0.76800  1.0000
  H   H21       1.0  0.15300  0.61400  0.79800  1.0000
  H   H22       1.0  0.35500  0.20200  0.81600  1.0000
  H   H23       1.0  0.36900  0.58300  0.88400  1.0000
  H   H24       1.0  0.19600  0.57600  0.97300  1.0000
  N   N1        1.0  0.78800  0.45400  0.14500  1.0000
  N   N2        1.0  0.64400  0.85500  0.30900  1.0000
  N   N3        1.0  0.66600  0.30900  0.45400  1.0000
  N   N4        1.0  0.33400  0.69100  0.54600  1.0000
  N   N5        1.0  0.35600  0.14500  0.69100  1.0000
  N   N6        1.0  0.21200  0.54600  0.85500  1.0000
  O   O1        1.0  0.50000  0.00000  0.00000  1.0000
  O   O2        1.0  0.36700  0.32600  0.01510  1.0000
  O   O3        1.0  0.01780  0.77200  0.04740  1.0000
  O   O4        1.0  0.23300  0.54000  0.18500  1.0000
  O   O5        1.0  0.24500  0.27500  0.22800  1.0000
  O   O6        1.0  0.02970  0.04740  0.27500  1.0000
  O   O7        1.0  0.35200  0.98500  0.31100  1.0000
  O   O8        1.0  0.95900  0.31100  0.32600  1.0000
  O   O9        1.0  0.04740  0.81500  0.35500  1.0000
  O   O10       1.0  0.69300  0.64500  0.46000  1.0000
  O   O11       1.0  0.30700  0.35500  0.54000  1.0000
  O   O12       1.0  0.95300  0.18500  0.64500  1.0000
  O   O13       1.0  0.04110  0.68900  0.67400  1.0000
  O   O14       1.0  0.64800  0.01510  0.68900  1.0000
  O   O15       1.0  0.97000  0.95300  0.72500  1.0000
  O   O16       1.0  0.75500  0.72500  0.77200  1.0000
  O   O17       1.0  0.76700  0.46000  0.81500  1.0000
  O   O18       1.0  0.98200  0.22800  0.95300  1.0000
  O   O19       1.0  0.63300  0.67400  0.98500  1.0000
  P   P1        1.0  0.22200  0.35600  0.09750  1.0000
  P   P2        1.0  0.12400  0.90300  0.25900  1.0000
  P   P3        1.0  0.13500  0.25900  0.35600  1.0000
  P   P4        1.0  0.86500  0.74100  0.64400  1.0000
  P   P5        1.0  0.87600  0.09750  0.74100  1.0000
  P   P6        1.0  0.77800  0.64400  0.90300  1.0000
