data_image0
_chemical_formula_structural       H24O20P8Zn4
_chemical_formula_sum              "H24 O20 P8 Zn4"
_cell_length_a       7.60944
_cell_length_b       7.25304
_cell_length_c       10.4143
_cell_angle_alpha    90
_cell_angle_beta     104.3
_cell_angle_gamma    90

_space_group_name_H-M_alt    "P 1"
_space_group_IT_number       1

loop_
  _space_group_symop_operation_xyz
  'x, y, z'

loop_
  _atom_site_type_symbol
  _atom_site_label
  _atom_site_symmetry_multiplicity
  _atom_site_fract_x
  _atom_site_fract_y
  _atom_site_fract_z
  _atom_site_occupancy
  H   H1        1.0  0.60400  0.16500  0.04470  1.0000
  H   H2        1.0  0.81900  0.19900  0.08600  1.0000
  H   H3        1.0  0.82700  0.56400  0.08650  1.0000
  H   H4        1.0  0.38700  0.54500  0.11400  1.0000
  H   H5        1.0  0.12900  0.57900  0.15900  1.0000
  H   H6        1.0  0.61200  0.88000  0.20400  1.0000
  H   H7        1.0  0.38800  0.38000  0.29600  1.0000
  H   H8        1.0  0.87100  0.07850  0.34100  1.0000
  H   H9        1.0  0.61300  0.04520  0.38600  1.0000
  H   H10       1.0  0.17300  0.06420  0.41400  1.0000
  H   H11       1.0  0.18100  0.69900  0.41400  1.0000
  H   H12       1.0  0.39600  0.66500  0.45500  1.0000
  H   H13       1.0  0.60400  0.33500  0.54500  1.0000
  H   H14       1.0  0.81900  0.30100  0.58600  1.0000
  H   H15       1.0  0.82700  0.93600  0.58600  1.0000
  H   H16       1.0  0.38700  0.95500  0.61400  1.0000
  H   H17       1.0  0.12900  0.92100  0.65900  1.0000
  H   H18       1.0  0.61200  0.62000  0.70400  1.0000
  H   H19       1.0  0.38800  0.12000  0.79600  1.0000
  H   H20       1.0  0.87100  0.42100  0.84100  1.0000
  H   H21       1.0  0.61300  0.45500  0.88600  1.0000
  H   H22       1.0  0.17300  0.43600  0.91400  1.0000
  H   H23       1.0  0.18100  0.80100  0.91400  1.0000
  H   H24       1.0  0.39600  0.83500  0.95500  1.0000
  O   O1        1.0  0.71600  0.16500  0.01150  1.0000
  O   O2        1.0  0.97000  0.85300  0.07360  1.0000
  O   O3        1.0  0.40900  0.21600  0.09910  1.0000
  O   O4        1.0  0.04670  0.21100  0.20200  1.0000
  O   O5        1.0  0.67000  0.41200  0.23000  1.0000
  O   O6        1.0  0.33000  0.91200  0.27000  1.0000
  O   O7        1.0  0.95300  0.71100  0.29800  1.0000
  O   O8        1.0  0.59100  0.71600  0.40100  1.0000
  O   O9        1.0  0.02980  0.35300  0.42600  1.0000
  O   O10       1.0  0.28400  0.66500  0.48900  1.0000
  O   O11       1.0  0.71600  0.33500  0.51100  1.0000
  O   O12       1.0  0.97000  0.64700  0.57400  1.0000
  O   O13       1.0  0.40900  0.28400  0.59900  1.0000
  O   O14       1.0  0.04670  0.28900  0.70200  1.0000
  O   O15       1.0  0.67000  0.08830  0.73000  1.0000
  O   O16       1.0  0.33000  0.58800  0.77000  1.0000
  O   O17       1.0  0.95300  0.78900  0.79800  1.0000
  O   O18       1.0  0.59100  0.78400  0.90100  1.0000
  O   O19       1.0  0.02980  0.14700  0.92600  1.0000
  O   O20       1.0  0.28400  0.83500  0.98900  1.0000
  P   P1        1.0  0.96900  0.67800  0.15600  1.0000
  P   P2        1.0  0.46600  0.38800  0.18600  1.0000
  P   P3        1.0  0.53400  0.88800  0.31400  1.0000
  P   P4        1.0  0.03100  0.17800  0.34400  1.0000
  P   P5        1.0  0.96900  0.82200  0.65600  1.0000
  P   P6        1.0  0.46600  0.11200  0.68600  1.0000
  P   P7        1.0  0.53400  0.61200  0.81400  1.0000
  P   P8        1.0  0.03100  0.32200  0.84400  1.0000
  Zn  Zn1       1.0  0.19500  0.04090  0.10000  1.0000
  Zn  Zn2       1.0  0.80500  0.54100  0.40000  1.0000
  Zn  Zn3       1.0  0.19500  0.45900  0.60000  1.0000
  Zn  Zn4       1.0  0.80500  0.95900  0.90000  1.0000
