data_image0
_chemical_formula_structural       Ag4Cu4O16P4
_chemical_formula_sum              "Ag4 Cu4 O16 P4"
_cell_length_a       7.76362
_cell_length_b       5.60324
_cell_length_c       7.52743
_cell_angle_alpha    90
_cell_angle_beta     99.4602
_cell_angle_gamma    90

_space_group_name_H-M_alt    "P 1"
_space_group_IT_number       1

loop_
  _space_group_symop_operation_xyz
  'x, y, z'

loop_
  _atom_site_type_symbol
  _atom_site_label
  _atom_site_symmetry_multiplicity
  _atom_site_fract_x
  _atom_site_fract_y
  _atom_site_fract_z
  _atom_site_occupancy
  Ag  Ag1       1.0  0.92500  0.11400  0.19000  1.0000
  Ag  Ag2       1.0  0.07450  0.61400  0.31000  1.0000
  Ag  Ag3       1.0  0.92500  0.38600  0.69000  1.0000
  Ag  Ag4       1.0  0.07450  0.88600  0.81000  1.0000
  Cu  Cu1       1.0  0.41600  0.87800  0.15200  1.0000
  Cu  Cu2       1.0  0.58400  0.37800  0.34800  1.0000
  Cu  Cu3       1.0  0.41600  0.62200  0.65200  1.0000
  Cu  Cu4       1.0  0.58400  0.12200  0.84800  1.0000
  O   O1        1.0  0.90300  0.74900  0.01110  1.0000
  O   O2        1.0  0.42700  0.19500  0.01650  1.0000
  O   O3        1.0  0.31000  0.55400  0.15800  1.0000
  O   O4        1.0  0.73700  0.48500  0.18800  1.0000
  O   O5        1.0  0.26300  0.98500  0.31200  1.0000
  O   O6        1.0  0.69000  0.05380  0.34200  1.0000
  O   O7        1.0  0.57300  0.69500  0.48300  1.0000
  O   O8        1.0  0.09710  0.24900  0.48900  1.0000
  O   O9        1.0  0.90300  0.75100  0.51100  1.0000
  O   O10       1.0  0.42700  0.30500  0.51700  1.0000
  O   O11       1.0  0.31000  0.94600  0.65800  1.0000
  O   O12       1.0  0.73700  0.01550  0.68800  1.0000
  O   O13       1.0  0.26300  0.51500  0.81200  1.0000
  O   O14       1.0  0.69000  0.44600  0.84200  1.0000
  O   O15       1.0  0.57300  0.80500  0.98300  1.0000
  O   O16       1.0  0.09710  0.25100  0.98900  1.0000
  P   P1        1.0  0.72800  0.61900  0.00729  1.0000
  P   P2        1.0  0.27200  0.11900  0.49300  1.0000
  P   P3        1.0  0.72800  0.88100  0.50700  1.0000
  P   P4        1.0  0.27200  0.38100  0.99300  1.0000
