data_image0
_chemical_formula_structural       Al4Ca6F16H12O16S2
_chemical_formula_sum              "Al4 Ca6 F16 H12 O16 S2"
_cell_length_a       8.06246
_cell_length_b       8.06246
_cell_length_c       9.81183
_cell_angle_alpha    93.792
_cell_angle_beta     93.792
_cell_angle_gamma    63.7183

_space_group_name_H-M_alt    "P 1"
_space_group_IT_number       1

loop_
  _space_group_symop_operation_xyz
  'x, y, z'

loop_
  _atom_site_type_symbol
  _atom_site_label
  _atom_site_symmetry_multiplicity
  _atom_site_fract_x
  _atom_site_fract_y
  _atom_site_fract_z
  _atom_site_occupancy
  Al  Al1       1.0  0.10100  0.30300  0.01360  1.0000
  Al  Al2       1.0  0.69700  0.89900  0.48600  1.0000
  Al  Al3       1.0  0.30300  0.10100  0.51400  1.0000
  Al  Al4       1.0  0.89900  0.69700  0.98600  1.0000
  Ca  Ca1       1.0  0.46300  0.02730  0.19200  1.0000
  Ca  Ca2       1.0  0.03030  0.97000  0.25000  1.0000
  Ca  Ca3       1.0  0.97300  0.53700  0.30800  1.0000
  Ca  Ca4       1.0  0.02730  0.46300  0.69200  1.0000
  Ca  Ca5       1.0  0.97000  0.03030  0.75000  1.0000
  Ca  Ca6       1.0  0.53700  0.97300  0.80800  1.0000
  F   F1        1.0  0.66400  0.86400  0.02430  1.0000
  F   F2        1.0  0.04180  0.13500  0.07570  1.0000
  F   F3        1.0  0.98100  0.74000  0.15500  1.0000
  F   F4        1.0  0.21100  0.32600  0.18300  1.0000
  F   F5        1.0  0.67400  0.78900  0.31700  1.0000
  F   F6        1.0  0.26000  0.01920  0.34500  1.0000
  F   F7        1.0  0.86500  0.95800  0.42400  1.0000
  F   F8        1.0  0.13600  0.33600  0.47600  1.0000
  F   F9        1.0  0.86400  0.66400  0.52400  1.0000
  F   F10       1.0  0.13500  0.04180  0.57600  1.0000
  F   F11       1.0  0.74000  0.98100  0.65500  1.0000
  F   F12       1.0  0.32600  0.21100  0.68300  1.0000
  F   F13       1.0  0.78900  0.67400  0.81700  1.0000
  F   F14       1.0  0.01920  0.26000  0.84500  1.0000
  F   F15       1.0  0.95800  0.86500  0.92400  1.0000
  F   F16       1.0  0.33600  0.13600  0.97600  1.0000
  H   H1        1.0  0.30000  0.82200  0.01590  1.0000
  H   H2        1.0  0.76100  0.49100  0.07110  1.0000
  H   H3        1.0  0.42000  0.68200  0.12900  1.0000
  H   H4        1.0  0.31800  0.58000  0.37100  1.0000
  H   H5        1.0  0.50900  0.23900  0.42900  1.0000
  H   H6        1.0  0.17800  0.70000  0.48400  1.0000
  H   H7        1.0  0.82200  0.30000  0.51600  1.0000
  H   H8        1.0  0.49100  0.76100  0.57100  1.0000
  H   H9        1.0  0.68200  0.42000  0.62900  1.0000
  H   H10       1.0  0.58000  0.31800  0.87100  1.0000
  H   H11       1.0  0.23900  0.50900  0.92900  1.0000
  H   H12       1.0  0.70000  0.17800  0.98400  1.0000
  O   O1        1.0  0.87800  0.50100  0.06350  1.0000
  O   O2        1.0  0.32700  0.81300  0.11500  1.0000
  O   O3        1.0  0.58900  0.47900  0.14000  1.0000
  O   O4        1.0  0.68000  0.16100  0.18900  1.0000
  O   O5        1.0  0.83900  0.32000  0.31100  1.0000
  O   O6        1.0  0.52100  0.41100  0.36000  1.0000
  O   O7        1.0  0.18700  0.67300  0.38500  1.0000
  O   O8        1.0  0.49900  0.12200  0.43700  1.0000
  O   O9        1.0  0.50100  0.87800  0.56300  1.0000
  O   O10       1.0  0.81300  0.32700  0.61500  1.0000
  O   O11       1.0  0.47900  0.58900  0.64000  1.0000
  O   O12       1.0  0.16100  0.68000  0.68900  1.0000
  O   O13       1.0  0.32000  0.83900  0.81100  1.0000
  O   O14       1.0  0.41100  0.52100  0.86000  1.0000
  O   O15       1.0  0.67300  0.18700  0.88500  1.0000
  O   O16       1.0  0.12200  0.49900  0.93700  1.0000
  S   S1        1.0  0.65500  0.34500  0.25000  1.0000
  S   S2        1.0  0.34500  0.65500  0.75000  1.0000
