data_image0
_chemical_formula_structural       B8Ga8O32Sr8
_chemical_formula_sum              "B8 Ga8 O32 Sr8"
_cell_length_a       15.3596
_cell_length_b       8.96984
_cell_length_c       5.91486
_cell_angle_alpha    90
_cell_angle_beta     90
_cell_angle_gamma    90

_space_group_name_H-M_alt    "P 1"
_space_group_IT_number       1

loop_
  _space_group_symop_operation_xyz
  'x, y, z'

loop_
  _atom_site_type_symbol
  _atom_site_label
  _atom_site_symmetry_multiplicity
  _atom_site_fract_x
  _atom_site_fract_y
  _atom_site_fract_z
  _atom_site_occupancy
  B   B1        1.0  0.81400  0.01890  0.00084  1.0000
  B   B2        1.0  0.18600  0.98100  0.00084  1.0000
  B   B3        1.0  0.57500  0.20700  0.49900  1.0000
  B   B4        1.0  0.42500  0.79300  0.49900  1.0000
  B   B5        1.0  0.07500  0.29300  0.50100  1.0000
  B   B6        1.0  0.92500  0.70700  0.50100  1.0000
  B   B7        1.0  0.31400  0.48100  0.99900  1.0000
  B   B8        1.0  0.68600  0.51900  0.99900  1.0000
  Ga  Ga1       1.0  0.34700  0.03930  0.24800  1.0000
  Ga  Ga2       1.0  0.65300  0.96100  0.24800  1.0000
  Ga  Ga3       1.0  0.84500  0.45900  0.25300  1.0000
  Ga  Ga4       1.0  0.15500  0.54100  0.25300  1.0000
  Ga  Ga5       1.0  0.34500  0.04070  0.74700  1.0000
  Ga  Ga6       1.0  0.65500  0.95900  0.74700  1.0000
  Ga  Ga7       1.0  0.84700  0.46100  0.75200  1.0000
  Ga  Ga8       1.0  0.15300  0.53900  0.75200  1.0000
  O   O1        1.0  0.89300  0.37400  0.00345  1.0000
  O   O2        1.0  0.10700  0.62600  0.00345  1.0000
  O   O3        1.0  0.90200  0.03020  0.00465  1.0000
  O   O4        1.0  0.09770  0.97000  0.00465  1.0000
  O   O5        1.0  0.76900  0.01460  0.20400  1.0000
  O   O6        1.0  0.23100  0.98500  0.20400  1.0000
  O   O7        1.0  0.27100  0.49200  0.20600  1.0000
  O   O8        1.0  0.72900  0.50800  0.20600  1.0000
  O   O9        1.0  0.59400  0.14100  0.29400  1.0000
  O   O10       1.0  0.40600  0.85900  0.29400  1.0000
  O   O11       1.0  0.09930  0.35800  0.29700  1.0000
  O   O12       1.0  0.90100  0.64200  0.29700  1.0000
  O   O13       1.0  0.35400  0.15900  0.49700  1.0000
  O   O14       1.0  0.64600  0.84100  0.49700  1.0000
  O   O15       1.0  0.03180  0.16000  0.49700  1.0000
  O   O16       1.0  0.96800  0.84000  0.49700  1.0000
  O   O17       1.0  0.53200  0.34000  0.50300  1.0000
  O   O18       1.0  0.46800  0.66000  0.50300  1.0000
  O   O19       1.0  0.85400  0.34100  0.50300  1.0000
  O   O20       1.0  0.14600  0.65900  0.50300  1.0000
  O   O21       1.0  0.59900  0.14200  0.70300  1.0000
  O   O22       1.0  0.40100  0.85800  0.70300  1.0000
  O   O23       1.0  0.09450  0.35900  0.70600  1.0000
  O   O24       1.0  0.90600  0.64100  0.70600  1.0000
  O   O25       1.0  0.77100  0.00796  0.79400  1.0000
  O   O26       1.0  0.22900  0.99200  0.79400  1.0000
  O   O27       1.0  0.26900  0.48500  0.79600  1.0000
  O   O28       1.0  0.73100  0.51500  0.79600  1.0000
  O   O29       1.0  0.40200  0.47000  0.99500  1.0000
  O   O30       1.0  0.59800  0.53000  0.99500  1.0000
  O   O31       1.0  0.39300  0.12600  0.99700  1.0000
  O   O32       1.0  0.60700  0.87400  0.99700  1.0000
  Sr  Sr1       1.0  0.02160  0.21300  0.00438  1.0000
  Sr  Sr2       1.0  0.97800  0.78700  0.00438  1.0000
  Sr  Sr3       1.0  0.87900  0.07160  0.49800  1.0000
  Sr  Sr4       1.0  0.12100  0.92800  0.49800  1.0000
  Sr  Sr5       1.0  0.37900  0.42800  0.50200  1.0000
  Sr  Sr6       1.0  0.62100  0.57200  0.50200  1.0000
  Sr  Sr7       1.0  0.52200  0.28700  0.99600  1.0000
  Sr  Sr8       1.0  0.47800  0.71300  0.99600  1.0000
