data_image0
_chemical_formula_structural       H18N2O26Y8
_chemical_formula_sum              "H18 N2 O26 Y8"
_cell_length_a       9.26213
_cell_length_b       16.2603
_cell_length_c       3.58639
_cell_angle_alpha    90
_cell_angle_beta     101.201
_cell_angle_gamma    90

_space_group_name_H-M_alt    "P 1"
_space_group_IT_number       1

loop_
  _space_group_symop_operation_xyz
  'x, y, z'

loop_
  _atom_site_type_symbol
  _atom_site_label
  _atom_site_symmetry_multiplicity
  _atom_site_fract_x
  _atom_site_fract_y
  _atom_site_fract_z
  _atom_site_occupancy
  H   H1        1.0  0.06170  0.94200  0.02710  1.0000
  H   H2        1.0  0.14300  0.61800  0.06150  1.0000
  H   H3        1.0  0.16900  0.31400  0.08660  1.0000
  H   H4        1.0  0.52200  0.36800  0.27300  1.0000
  H   H5        1.0  0.52000  0.00590  0.30700  1.0000
  H   H6        1.0  0.59700  0.82100  0.32000  1.0000
  H   H7        1.0  0.71200  0.14600  0.36600  1.0000
  H   H8        1.0  0.95000  0.01850  0.39900  1.0000
  H   H9        1.0  0.95000  0.35700  0.48200  1.0000
  H   H10       1.0  0.04950  0.85700  0.51800  1.0000
  H   H11       1.0  0.05040  0.51900  0.60100  1.0000
  H   H12       1.0  0.28800  0.64600  0.63400  1.0000
  H   H13       1.0  0.40300  0.32100  0.68000  1.0000
  H   H14       1.0  0.48000  0.50600  0.69300  1.0000
  H   H15       1.0  0.47800  0.86800  0.72700  1.0000
  H   H16       1.0  0.83100  0.81400  0.91300  1.0000
  H   H17       1.0  0.85700  0.11800  0.93800  1.0000
  H   H18       1.0  0.93800  0.44200  0.97300  1.0000
  N   N1        1.0  0.25400  0.46200  0.18200  1.0000
  N   N2        1.0  0.74600  0.96200  0.81800  1.0000
  O   O1        1.0  0.14400  0.42200  0.00455  1.0000
  O   O2        1.0  0.10200  0.67400  0.04370  1.0000
  O   O3        1.0  0.16800  0.93100  0.08710  1.0000
  O   O4        1.0  0.27400  0.53600  0.09860  1.0000
  O   O5        1.0  0.18000  0.25400  0.09930  1.0000
  O   O6        1.0  0.42800  0.03600  0.21500  1.0000
  O   O7        1.0  0.53400  0.77300  0.25600  1.0000
  O   O8        1.0  0.62800  0.37000  0.31500  1.0000
  O   O9        1.0  0.65500  0.19600  0.33400  1.0000
  O   O10       1.0  0.71700  0.63600  0.34800  1.0000
  O   O11       1.0  0.34600  0.42700  0.44200  1.0000
  O   O12       1.0  0.90700  0.30300  0.45700  1.0000
  O   O13       1.0  0.96600  0.55000  0.46900  1.0000
  O   O14       1.0  0.03360  0.04980  0.53100  1.0000
  O   O15       1.0  0.09320  0.80300  0.54300  1.0000
  O   O16       1.0  0.65400  0.92700  0.55800  1.0000
  O   O17       1.0  0.28300  0.13600  0.65200  1.0000
  O   O18       1.0  0.34500  0.69600  0.66600  1.0000
  O   O19       1.0  0.37200  0.87000  0.68500  1.0000
  O   O20       1.0  0.46600  0.27300  0.74400  1.0000
  O   O21       1.0  0.57200  0.53600  0.78500  1.0000
  O   O22       1.0  0.82000  0.75400  0.90100  1.0000
  O   O23       1.0  0.72600  0.03570  0.90100  1.0000
  O   O24       1.0  0.83200  0.43100  0.91300  1.0000
  O   O25       1.0  0.89800  0.17400  0.95600  1.0000
  O   O26       1.0  0.85600  0.92200  0.99500  1.0000
  Y   Y1        1.0  0.27000  0.79100  0.13100  1.0000
  Y   Y2        1.0  0.40500  0.18300  0.21100  1.0000
  Y   Y3        1.0  0.73100  0.50000  0.36100  1.0000
  Y   Y4        1.0  0.94400  0.68900  0.46400  1.0000
  Y   Y5        1.0  0.05650  0.18900  0.53600  1.0000
  Y   Y6        1.0  0.26900  0.00020  0.63900  1.0000
  Y   Y7        1.0  0.59500  0.68300  0.78900  1.0000
  Y   Y8        1.0  0.73000  0.29100  0.86900  1.0000
