data_image0
_chemical_formula_structural       Ga24Ni24Zn8
_chemical_formula_sum              "Ga24 Ni24 Zn8"
_cell_length_a       9.91651
_cell_length_b       9.91651
_cell_length_c       9.91651
_cell_angle_alpha    109.471
_cell_angle_beta     109.471
_cell_angle_gamma    109.471

_space_group_name_H-M_alt    "P 1"
_space_group_IT_number       1

loop_
  _space_group_symop_operation_xyz
  'x, y, z'

loop_
  _atom_site_type_symbol
  _atom_site_label
  _atom_site_symmetry_multiplicity
  _atom_site_fract_x
  _atom_site_fract_y
  _atom_site_fract_z
  _atom_site_occupancy
  Ga  Ga1       1.0  0.25000  0.26100  0.01140  1.0000
  Ga  Ga2       1.0  0.26100  0.75000  0.01140  1.0000
  Ga  Ga3       1.0  0.25000  0.48900  0.23900  1.0000
  Ga  Ga4       1.0  0.48900  0.75000  0.23900  1.0000
  Ga  Ga5       1.0  0.26100  0.01140  0.25000  1.0000
  Ga  Ga6       1.0  0.48900  0.23900  0.25000  1.0000
  Ga  Ga7       1.0  0.76100  0.51100  0.25000  1.0000
  Ga  Ga8       1.0  0.98900  0.73900  0.25000  1.0000
  Ga  Ga9       1.0  0.75000  0.01140  0.26100  1.0000
  Ga  Ga10      1.0  0.01140  0.25000  0.26100  1.0000
  Ga  Ga11      1.0  0.75000  0.23900  0.48900  1.0000
  Ga  Ga12      1.0  0.23900  0.25000  0.48900  1.0000
  Ga  Ga13      1.0  0.25000  0.76100  0.51100  1.0000
  Ga  Ga14      1.0  0.76100  0.75000  0.51100  1.0000
  Ga  Ga15      1.0  0.98900  0.75000  0.73900  1.0000
  Ga  Ga16      1.0  0.25000  0.98900  0.73900  1.0000
  Ga  Ga17      1.0  0.01140  0.26100  0.75000  1.0000
  Ga  Ga18      1.0  0.23900  0.48900  0.75000  1.0000
  Ga  Ga19      1.0  0.51100  0.76100  0.75000  1.0000
  Ga  Ga20      1.0  0.73900  0.98900  0.75000  1.0000
  Ga  Ga21      1.0  0.51100  0.25000  0.76100  1.0000
  Ga  Ga22      1.0  0.75000  0.51100  0.76100  1.0000
  Ga  Ga23      1.0  0.73900  0.25000  0.98900  1.0000
  Ga  Ga24      1.0  0.75000  0.73900  0.98900  1.0000
  Ni  Ni1       1.0  0.49200  0.25000  0.00792  1.0000
  Ni  Ni2       1.0  0.01580  0.75800  0.00792  1.0000
  Ni  Ni3       1.0  0.75800  0.00792  0.01580  1.0000
  Ni  Ni4       1.0  0.99200  0.98400  0.24200  1.0000
  Ni  Ni5       1.0  0.75000  0.25800  0.24200  1.0000
  Ni  Ni6       1.0  0.00792  0.49200  0.25000  1.0000
  Ni  Ni7       1.0  0.74200  0.75800  0.25000  1.0000
  Ni  Ni8       1.0  0.51600  0.50800  0.25800  1.0000
  Ni  Ni9       1.0  0.24200  0.75000  0.25800  1.0000
  Ni  Ni10      1.0  0.49200  0.74200  0.48400  1.0000
  Ni  Ni11      1.0  0.25000  0.00792  0.49200  1.0000
  Ni  Ni12      1.0  0.74200  0.48400  0.49200  1.0000
  Ni  Ni13      1.0  0.25800  0.51600  0.50800  1.0000
  Ni  Ni14      1.0  0.75000  0.99200  0.50800  1.0000
  Ni  Ni15      1.0  0.50800  0.25800  0.51600  1.0000
  Ni  Ni16      1.0  0.48400  0.49200  0.74200  1.0000
  Ni  Ni17      1.0  0.75800  0.25000  0.74200  1.0000
  Ni  Ni18      1.0  0.25800  0.24200  0.75000  1.0000
  Ni  Ni19      1.0  0.99200  0.50800  0.75000  1.0000
  Ni  Ni20      1.0  0.00792  0.01580  0.75800  1.0000
  Ni  Ni21      1.0  0.25000  0.74200  0.75800  1.0000
  Ni  Ni22      1.0  0.24200  0.99200  0.98400  1.0000
  Ni  Ni23      1.0  0.98400  0.24200  0.99200  1.0000
  Ni  Ni24      1.0  0.50800  0.75000  0.99200  1.0000
  Zn  Zn1       1.0  0.00000  0.00000  0.00000  1.0000
  Zn  Zn2       1.0  0.50000  0.00000  0.00000  1.0000
  Zn  Zn3       1.0  0.00000  0.50000  0.00000  1.0000
  Zn  Zn4       1.0  0.50000  0.50000  0.00000  1.0000
  Zn  Zn5       1.0  0.00000  0.00000  0.50000  1.0000
  Zn  Zn6       1.0  0.50000  0.00000  0.50000  1.0000
  Zn  Zn7       1.0  0.00000  0.50000  0.50000  1.0000
  Zn  Zn8       1.0  0.50000  0.50000  0.50000  1.0000
