data_image0
_chemical_formula_structural       Ca2H24I4O24
_chemical_formula_sum              "Ca2 H24 I4 O24"
_cell_length_a       6.14101
_cell_length_b       7.76646
_cell_length_c       11.6019
_cell_angle_alpha    96.006
_cell_angle_beta     74.6535
_cell_angle_gamma    113.288

_space_group_name_H-M_alt    "P 1"
_space_group_IT_number       1

loop_
  _space_group_symop_operation_xyz
  'x, y, z'

loop_
  _atom_site_type_symbol
  _atom_site_label
  _atom_site_symmetry_multiplicity
  _atom_site_fract_x
  _atom_site_fract_y
  _atom_site_fract_z
  _atom_site_occupancy
  Ca  Ca1       1.0  0.81800  0.00000  0.00000  1.0000
  Ca  Ca2       1.0  0.06770  0.50000  0.50000  1.0000
  H   H1        1.0  0.05680  0.74600  0.02600  1.0000
  H   H2        1.0  0.38000  0.64900  0.05080  1.0000
  H   H3        1.0  0.59700  0.59300  0.05690  1.0000
  H   H4        1.0  0.28500  0.13600  0.08410  1.0000
  H   H5        1.0  0.69900  0.75500  0.20400  1.0000
  H   H6        1.0  0.87100  0.94700  0.24800  1.0000
  H   H7        1.0  0.37000  0.44700  0.25200  1.0000
  H   H8        1.0  0.15200  0.25500  0.29600  1.0000
  H   H9        1.0  0.61900  0.63600  0.41600  1.0000
  H   H10       1.0  0.90400  0.09270  0.44300  1.0000
  H   H11       1.0  0.68000  0.14900  0.44900  1.0000
  H   H12       1.0  0.33300  0.24600  0.47400  1.0000
  H   H13       1.0  0.56100  0.75400  0.52600  1.0000
  H   H14       1.0  0.98100  0.85100  0.55100  1.0000
  H   H15       1.0  0.25400  0.90700  0.55700  1.0000
  H   H16       1.0  0.39900  0.36400  0.58400  1.0000
  H   H17       1.0  0.19400  0.74500  0.70400  1.0000
  H   H18       1.0  0.17400  0.55300  0.74800  1.0000
  H   H19       1.0  0.17200  0.05260  0.75200  1.0000
  H   H20       1.0  0.14700  0.24500  0.79600  1.0000
  H   H21       1.0  0.23300  0.86400  0.91600  1.0000
  H   H22       1.0  0.06110  0.40700  0.94300  1.0000
  H   H23       1.0  0.78200  0.35100  0.94900  1.0000
  H   H24       1.0  0.33700  0.25400  0.97400  1.0000
  I   I1        1.0  0.87400  0.45900  0.21800  1.0000
  I   I2        1.0  0.34100  0.95900  0.28200  1.0000
  I   I3        1.0  0.66500  0.04140  0.71800  1.0000
  I   I4        1.0  0.63300  0.54100  0.78200  1.0000
  O   O1        1.0  0.55000  0.66300  0.00689  1.0000
  O   O2        1.0  0.20500  0.19700  0.04590  1.0000
  O   O3        1.0  0.46900  0.05560  0.13100  1.0000
  O   O4        1.0  0.13600  0.66500  0.14300  1.0000
  O   O5        1.0  0.64100  0.52800  0.18400  1.0000
  O   O6        1.0  0.73900  0.89300  0.20200  1.0000
  O   O7        1.0  0.19100  0.39300  0.29800  1.0000
  O   O8        1.0  0.07470  0.02820  0.31600  1.0000
  O   O9        1.0  0.52900  0.16500  0.35700  1.0000
  O   O10       1.0  0.85000  0.55600  0.36900  1.0000
  O   O11       1.0  0.50100  0.69700  0.45400  1.0000
  O   O12       1.0  0.80700  0.16300  0.49300  1.0000
  O   O13       1.0  0.13800  0.83700  0.50700  1.0000
  O   O14       1.0  0.25900  0.30300  0.54600  1.0000
  O   O15       1.0  0.66300  0.44400  0.63100  1.0000
  O   O16       1.0  0.72100  0.83500  0.64300  1.0000
  O   O17       1.0  0.36200  0.97200  0.68400  1.0000
  O   O18       1.0  0.09600  0.60700  0.70200  1.0000
  O   O19       1.0  0.04810  0.10700  0.79800  1.0000
  O   O20       1.0  0.29600  0.47200  0.81600  1.0000
  O   O21       1.0  0.61400  0.33500  0.85700  1.0000
  O   O22       1.0  0.54400  0.94400  0.86900  1.0000
  O   O23       1.0  0.05470  0.80300  0.95400  1.0000
  O   O24       1.0  0.89500  0.33700  0.99300  1.0000
