data_image0
_chemical_formula_structural       Be4K4O36P12
_chemical_formula_sum              "Be4 K4 O36 P12"
_cell_length_a       7.76489
_cell_length_b       8.50489
_cell_length_c       11.2894
_cell_angle_alpha    90
_cell_angle_beta     90
_cell_angle_gamma    90

_space_group_name_H-M_alt    "P 1"
_space_group_IT_number       1

loop_
  _space_group_symop_operation_xyz
  'x, y, z'

loop_
  _atom_site_type_symbol
  _atom_site_label
  _atom_site_symmetry_multiplicity
  _atom_site_fract_x
  _atom_site_fract_y
  _atom_site_fract_z
  _atom_site_occupancy
  Be  Be1       1.0  0.32000  0.79800  0.12800  1.0000
  Be  Be2       1.0  0.68000  0.29800  0.37200  1.0000
  Be  Be3       1.0  0.18000  0.20200  0.62800  1.0000
  Be  Be4       1.0  0.82000  0.70200  0.87200  1.0000
  K   K1        1.0  0.50200  0.20900  0.06680  1.0000
  K   K2        1.0  0.49800  0.70900  0.43300  1.0000
  K   K3        1.0  0.99800  0.79100  0.56700  1.0000
  K   K4        1.0  0.00237  0.29100  0.93300  1.0000
  O   O1        1.0  0.76100  0.75700  0.00034  1.0000
  O   O2        1.0  0.78100  0.40000  0.09680  1.0000
  O   O3        1.0  0.22200  0.39200  0.10300  1.0000
  O   O4        1.0  0.51300  0.87100  0.12500  1.0000
  O   O5        1.0  0.82000  0.92600  0.17200  1.0000
  O   O6        1.0  0.19600  0.93400  0.17500  1.0000
  O   O7        1.0  0.00339  0.58600  0.19300  1.0000
  O   O8        1.0  0.69500  0.65500  0.20500  1.0000
  O   O9        1.0  0.31500  0.64500  0.21400  1.0000
  O   O10       1.0  0.68500  0.14500  0.28600  1.0000
  O   O11       1.0  0.30500  0.15500  0.29500  1.0000
  O   O12       1.0  0.99700  0.08620  0.30700  1.0000
  O   O13       1.0  0.80400  0.43400  0.32500  1.0000
  O   O14       1.0  0.18000  0.42600  0.32800  1.0000
  O   O15       1.0  0.48700  0.37100  0.37500  1.0000
  O   O16       1.0  0.77800  0.89200  0.39700  1.0000
  O   O17       1.0  0.21900  0.90000  0.40300  1.0000
  O   O18       1.0  0.23900  0.25700  0.50000  1.0000
  O   O19       1.0  0.73900  0.24300  0.50000  1.0000
  O   O20       1.0  0.71900  0.60000  0.59700  1.0000
  O   O21       1.0  0.27800  0.60800  0.60300  1.0000
  O   O22       1.0  0.98700  0.12900  0.62500  1.0000
  O   O23       1.0  0.68000  0.07360  0.67200  1.0000
  O   O24       1.0  0.30400  0.06550  0.67500  1.0000
  O   O25       1.0  0.49700  0.41400  0.69300  1.0000
  O   O26       1.0  0.80500  0.34500  0.70500  1.0000
  O   O27       1.0  0.18500  0.35500  0.71400  1.0000
  O   O28       1.0  0.81500  0.85500  0.78600  1.0000
  O   O29       1.0  0.19500  0.84500  0.79500  1.0000
  O   O30       1.0  0.50300  0.91400  0.80700  1.0000
  O   O31       1.0  0.69600  0.56600  0.82500  1.0000
  O   O32       1.0  0.32000  0.57400  0.82800  1.0000
  O   O33       1.0  0.01310  0.62900  0.87500  1.0000
  O   O34       1.0  0.72200  0.10800  0.89700  1.0000
  O   O35       1.0  0.28100  0.09960  0.90300  1.0000
  O   O36       1.0  0.26100  0.74300  0.00000  1.0000
  P   P1        1.0  0.69100  0.80100  0.11700  1.0000
  P   P2        1.0  0.19300  0.50900  0.19800  1.0000
  P   P3        1.0  0.81800  0.50000  0.20200  1.0000
  P   P4        1.0  0.18200  0.00000  0.29800  1.0000
  P   P5        1.0  0.80700  0.00912  0.30200  1.0000
  P   P6        1.0  0.30900  0.30100  0.38300  1.0000
  P   P7        1.0  0.80900  0.19900  0.61700  1.0000
  P   P8        1.0  0.30700  0.49100  0.69800  1.0000
  P   P9        1.0  0.68200  0.50000  0.70200  1.0000
  P   P10       1.0  0.31800  0.00015  0.79800  1.0000
  P   P11       1.0  0.69300  0.99100  0.80200  1.0000
  P   P12       1.0  0.19100  0.69900  0.88300  1.0000
