data_image0
_chemical_formula_structural       Ba6Be2Cl36Zr12
_chemical_formula_sum              "Ba6 Be2 Cl36 Zr12"
_cell_length_a       9.77072
_cell_length_b       9.77072
_cell_length_c       18.5093
_cell_angle_alpha    105.304
_cell_angle_beta     90
_cell_angle_gamma    60

_space_group_name_H-M_alt    "P 1"
_space_group_IT_number       1

loop_
  _space_group_symop_operation_xyz
  'x, y, z'

loop_
  _atom_site_type_symbol
  _atom_site_label
  _atom_site_symmetry_multiplicity
  _atom_site_fract_x
  _atom_site_fract_y
  _atom_site_fract_z
  _atom_site_occupancy
  Ba  Ba1       1.0  0.61100  0.77700  0.16600  1.0000
  Ba  Ba2       1.0  0.25000  0.50000  0.25000  1.0000
  Ba  Ba3       1.0  0.88900  0.22300  0.33400  1.0000
  Ba  Ba4       1.0  0.11100  0.77700  0.66600  1.0000
  Ba  Ba5       1.0  0.75000  0.50000  0.75000  1.0000
  Ba  Ba6       1.0  0.38900  0.22300  0.83400  1.0000
  Be  Be1       1.0  0.00000  0.00000  0.00000  1.0000
  Be  Be2       1.0  0.50000  0.00000  0.50000  1.0000
  Cl  Cl1       1.0  0.80600  0.43200  0.00301  1.0000
  Cl  Cl2       1.0  0.42900  0.76500  0.00301  1.0000
  Cl  Cl3       1.0  0.76200  0.80900  0.00301  1.0000
  Cl  Cl4       1.0  0.50300  0.13100  0.15800  1.0000
  Cl  Cl5       1.0  0.97300  0.52400  0.15800  1.0000
  Cl  Cl6       1.0  0.36600  0.66100  0.15800  1.0000
  Cl  Cl7       1.0  0.15900  0.09670  0.17200  1.0000
  Cl  Cl8       1.0  0.74400  0.33100  0.17200  1.0000
  Cl  Cl9       1.0  0.92500  0.91600  0.17200  1.0000
  Cl  Cl10      1.0  0.34100  0.08400  0.32800  1.0000
  Cl  Cl11      1.0  0.57500  0.66900  0.32800  1.0000
  Cl  Cl12      1.0  0.75600  0.90300  0.32800  1.0000
  Cl  Cl13      1.0  0.52700  0.33900  0.34200  1.0000
  Cl  Cl14      1.0  0.99700  0.47600  0.34200  1.0000
  Cl  Cl15      1.0  0.13400  0.86900  0.34200  1.0000
  Cl  Cl16      1.0  0.07110  0.19100  0.49700  1.0000
  Cl  Cl17      1.0  0.69400  0.23500  0.49700  1.0000
  Cl  Cl18      1.0  0.73800  0.56800  0.49700  1.0000
  Cl  Cl19      1.0  0.26200  0.43200  0.50300  1.0000
  Cl  Cl20      1.0  0.30600  0.76500  0.50300  1.0000
  Cl  Cl21      1.0  0.92900  0.80900  0.50300  1.0000
  Cl  Cl22      1.0  0.86600  0.13100  0.65800  1.0000
  Cl  Cl23      1.0  0.00304  0.52400  0.65800  1.0000
  Cl  Cl24      1.0  0.47300  0.66100  0.65800  1.0000
  Cl  Cl25      1.0  0.24400  0.09670  0.67200  1.0000
  Cl  Cl26      1.0  0.42500  0.33100  0.67200  1.0000
  Cl  Cl27      1.0  0.65900  0.91600  0.67200  1.0000
  Cl  Cl28      1.0  0.07530  0.08400  0.82800  1.0000
  Cl  Cl29      1.0  0.25600  0.66900  0.82800  1.0000
  Cl  Cl30      1.0  0.84100  0.90300  0.82800  1.0000
  Cl  Cl31      1.0  0.63400  0.33900  0.84200  1.0000
  Cl  Cl32      1.0  0.02720  0.47600  0.84200  1.0000
  Cl  Cl33      1.0  0.49700  0.86900  0.84200  1.0000
  Cl  Cl34      1.0  0.23800  0.19100  0.99700  1.0000
  Cl  Cl35      1.0  0.57100  0.23500  0.99700  1.0000
  Cl  Cl36      1.0  0.19400  0.56800  0.99700  1.0000
  Zr  Zr1       1.0  0.77000  0.06740  0.07560  1.0000
  Zr  Zr2       1.0  0.99200  0.23900  0.07560  1.0000
  Zr  Zr3       1.0  0.16300  0.84500  0.07560  1.0000
  Zr  Zr4       1.0  0.50800  0.15500  0.42400  1.0000
  Zr  Zr5       1.0  0.73000  0.76100  0.42400  1.0000
  Zr  Zr6       1.0  0.33700  0.93300  0.42400  1.0000
  Zr  Zr7       1.0  0.66300  0.06740  0.57600  1.0000
  Zr  Zr8       1.0  0.27000  0.23900  0.57600  1.0000
  Zr  Zr9       1.0  0.49200  0.84500  0.57600  1.0000
  Zr  Zr10      1.0  0.83700  0.15500  0.92400  1.0000
  Zr  Zr11      1.0  0.00822  0.76100  0.92400  1.0000
  Zr  Zr12      1.0  0.23000  0.93300  0.92400  1.0000
