data_image0
_chemical_formula_structural       Ca2H16N24O8Rb4
_chemical_formula_sum              "Ca2 H16 N24 O8 Rb4"
_cell_length_a       6.04261
_cell_length_b       10.6814
_cell_length_c       10.8696
_cell_angle_alpha    119.429
_cell_angle_beta     90
_cell_angle_gamma    90

_space_group_name_H-M_alt    "P 1"
_space_group_IT_number       1

loop_
  _space_group_symop_operation_xyz
  'x, y, z'

loop_
  _atom_site_type_symbol
  _atom_site_label
  _atom_site_symmetry_multiplicity
  _atom_site_fract_x
  _atom_site_fract_y
  _atom_site_fract_z
  _atom_site_occupancy
  Ca  Ca1       1.0  0.25000  0.25000  0.00000  1.0000
  Ca  Ca2       1.0  0.75000  0.75000  0.00000  1.0000
  H   H1        1.0  0.90300  0.04560  0.16400  1.0000
  H   H2        1.0  0.40300  0.11800  0.16400  1.0000
  H   H3        1.0  0.09660  0.54600  0.16400  1.0000
  H   H4        1.0  0.59700  0.61800  0.16400  1.0000
  H   H5        1.0  0.77100  0.02940  0.28000  1.0000
  H   H6        1.0  0.27100  0.25000  0.28000  1.0000
  H   H7        1.0  0.22900  0.52900  0.28000  1.0000
  H   H8        1.0  0.72900  0.75000  0.28000  1.0000
  H   H9        1.0  0.27100  0.25000  0.72000  1.0000
  H   H10       1.0  0.77100  0.47100  0.72000  1.0000
  H   H11       1.0  0.72900  0.75000  0.72000  1.0000
  H   H12       1.0  0.22900  0.97100  0.72000  1.0000
  H   H13       1.0  0.40300  0.38200  0.83600  1.0000
  H   H14       1.0  0.90300  0.45400  0.83600  1.0000
  H   H15       1.0  0.59700  0.88200  0.83600  1.0000
  H   H16       1.0  0.09660  0.95400  0.83600  1.0000
  N   N1        1.0  0.75000  0.11800  0.00000  1.0000
  N   N2        1.0  0.75000  0.38200  0.00000  1.0000
  N   N3        1.0  0.25000  0.61800  0.00000  1.0000
  N   N4        1.0  0.25000  0.88200  0.00000  1.0000
  N   N5        1.0  0.90700  0.15500  0.07540  1.0000
  N   N6        1.0  0.59300  0.42000  0.07540  1.0000
  N   N7        1.0  0.09320  0.65500  0.07540  1.0000
  N   N8        1.0  0.40700  0.92000  0.07540  1.0000
  N   N9        1.0  0.60400  0.12400  0.42600  1.0000
  N   N10       1.0  0.10400  0.30200  0.42600  1.0000
  N   N11       1.0  0.39600  0.62400  0.42600  1.0000
  N   N12       1.0  0.89600  0.80200  0.42600  1.0000
  N   N13       1.0  0.10500  0.25000  0.50000  1.0000
  N   N14       1.0  0.60500  0.25000  0.50000  1.0000
  N   N15       1.0  0.39500  0.75000  0.50000  1.0000
  N   N16       1.0  0.89500  0.75000  0.50000  1.0000
  N   N17       1.0  0.10400  0.19800  0.57400  1.0000
  N   N18       1.0  0.60400  0.37600  0.57400  1.0000
  N   N19       1.0  0.89600  0.69800  0.57400  1.0000
  N   N20       1.0  0.39600  0.87600  0.57400  1.0000
  N   N21       1.0  0.59300  0.08000  0.92500  1.0000
  N   N22       1.0  0.90700  0.34500  0.92500  1.0000
  N   N23       1.0  0.40700  0.58000  0.92500  1.0000
  N   N24       1.0  0.09320  0.84500  0.92500  1.0000
  O   O1        1.0  0.37300  0.22100  0.19700  1.0000
  O   O2        1.0  0.12700  0.47600  0.19700  1.0000
  O   O3        1.0  0.62700  0.72100  0.19700  1.0000
  O   O4        1.0  0.87300  0.97600  0.19700  1.0000
  O   O5        1.0  0.12700  0.02400  0.80300  1.0000
  O   O6        1.0  0.37300  0.27900  0.80300  1.0000
  O   O7        1.0  0.87300  0.52400  0.80300  1.0000
  O   O8        1.0  0.62700  0.77900  0.80300  1.0000
  Rb  Rb1       1.0  0.75000  0.41600  0.33300  1.0000
  Rb  Rb2       1.0  0.25000  0.91600  0.33300  1.0000
  Rb  Rb3       1.0  0.75000  0.08350  0.66700  1.0000
  Rb  Rb4       1.0  0.25000  0.58400  0.66700  1.0000
