data_image0
_chemical_formula_structural       B4Cu8H20O24
_chemical_formula_sum              "B4 Cu8 H20 O24"
_cell_length_a       9.20388
_cell_length_b       5.86449
_cell_length_c       8.34305
_cell_angle_alpha    90
_cell_angle_beta     90
_cell_angle_gamma    90

_space_group_name_H-M_alt    "P 1"
_space_group_IT_number       1

loop_
  _space_group_symop_operation_xyz
  'x, y, z'

loop_
  _atom_site_type_symbol
  _atom_site_label
  _atom_site_symmetry_multiplicity
  _atom_site_fract_x
  _atom_site_fract_y
  _atom_site_fract_z
  _atom_site_occupancy
  B   B1        1.0  0.01600  0.25000  0.16900  1.0000
  B   B2        1.0  0.51600  0.25000  0.33100  1.0000
  B   B3        1.0  0.48400  0.75000  0.66900  1.0000
  B   B4        1.0  0.98400  0.75000  0.83100  1.0000
  Cu  Cu1       1.0  0.75100  0.50900  0.07480  1.0000
  Cu  Cu2       1.0  0.75100  0.99100  0.07480  1.0000
  Cu  Cu3       1.0  0.25100  0.50900  0.42500  1.0000
  Cu  Cu4       1.0  0.25100  0.99100  0.42500  1.0000
  Cu  Cu5       1.0  0.74900  0.00866  0.57500  1.0000
  Cu  Cu6       1.0  0.74900  0.49100  0.57500  1.0000
  Cu  Cu7       1.0  0.24900  0.00866  0.92500  1.0000
  Cu  Cu8       1.0  0.24900  0.49100  0.92500  1.0000
  H   H1        1.0  0.45700  0.75000  0.00532  1.0000
  H   H2        1.0  0.35000  0.25000  0.12900  1.0000
  H   H3        1.0  0.01970  0.58000  0.17200  1.0000
  H   H4        1.0  0.01970  0.92000  0.17200  1.0000
  H   H5        1.0  0.35000  0.75000  0.20500  1.0000
  H   H6        1.0  0.85000  0.75000  0.29500  1.0000
  H   H7        1.0  0.52000  0.58000  0.32800  1.0000
  H   H8        1.0  0.52000  0.92000  0.32800  1.0000
  H   H9        1.0  0.85000  0.25000  0.37100  1.0000
  H   H10       1.0  0.95700  0.75000  0.49500  1.0000
  H   H11       1.0  0.04270  0.25000  0.50500  1.0000
  H   H12       1.0  0.15000  0.75000  0.62900  1.0000
  H   H13       1.0  0.48000  0.08030  0.67200  1.0000
  H   H14       1.0  0.48000  0.42000  0.67200  1.0000
  H   H15       1.0  0.15000  0.25000  0.70500  1.0000
  H   H16       1.0  0.65000  0.25000  0.79500  1.0000
  H   H17       1.0  0.98000  0.08030  0.82800  1.0000
  H   H18       1.0  0.98000  0.42000  0.82800  1.0000
  H   H19       1.0  0.65000  0.75000  0.87100  1.0000
  H   H20       1.0  0.54300  0.25000  0.99500  1.0000
  O   O1        1.0  0.36900  0.25000  0.01190  1.0000
  O   O2        1.0  0.34800  0.75000  0.01950  1.0000
  O   O3        1.0  0.86700  0.25000  0.15900  1.0000
  O   O4        1.0  0.87100  0.75000  0.17400  1.0000
  O   O5        1.0  0.09230  0.04740  0.17500  1.0000
  O   O6        1.0  0.09230  0.45300  0.17500  1.0000
  O   O7        1.0  0.59200  0.04740  0.32500  1.0000
  O   O8        1.0  0.59200  0.45300  0.32500  1.0000
  O   O9        1.0  0.37100  0.75000  0.32600  1.0000
  O   O10       1.0  0.36700  0.25000  0.34100  1.0000
  O   O11       1.0  0.84800  0.75000  0.48000  1.0000
  O   O12       1.0  0.86900  0.25000  0.48800  1.0000
  O   O13       1.0  0.13100  0.75000  0.51200  1.0000
  O   O14       1.0  0.15200  0.25000  0.52000  1.0000
  O   O15       1.0  0.63300  0.75000  0.65900  1.0000
  O   O16       1.0  0.62900  0.25000  0.67400  1.0000
  O   O17       1.0  0.40800  0.54700  0.67500  1.0000
  O   O18       1.0  0.40800  0.95300  0.67500  1.0000
  O   O19       1.0  0.90800  0.54700  0.82500  1.0000
  O   O20       1.0  0.90800  0.95300  0.82500  1.0000
  O   O21       1.0  0.12900  0.25000  0.82600  1.0000
  O   O22       1.0  0.13300  0.75000  0.84100  1.0000
  O   O23       1.0  0.65200  0.25000  0.98000  1.0000
  O   O24       1.0  0.63100  0.75000  0.98800  1.0000
