data_image0
_chemical_formula_structural       Al12Ho4O32Pb8
_chemical_formula_sum              "Al12 Ho4 O32 Pb8"
_cell_length_a       9.41742
_cell_length_b       9.41742
_cell_length_c       9.41742
_cell_angle_alpha    90
_cell_angle_beta     90
_cell_angle_gamma    90

_space_group_name_H-M_alt    "P 1"
_space_group_IT_number       1

loop_
  _space_group_symop_operation_xyz
  'x, y, z'

loop_
  _atom_site_type_symbol
  _atom_site_label
  _atom_site_symmetry_multiplicity
  _atom_site_fract_x
  _atom_site_fract_y
  _atom_site_fract_z
  _atom_site_occupancy
  Al  Al1       1.0  0.75000  0.25000  0.00000  1.0000
  Al  Al2       1.0  0.25000  0.75000  0.00000  1.0000
  Al  Al3       1.0  0.75000  0.00000  0.25000  1.0000
  Al  Al4       1.0  0.75000  0.50000  0.25000  1.0000
  Al  Al5       1.0  0.00000  0.75000  0.25000  1.0000
  Al  Al6       1.0  0.50000  0.75000  0.25000  1.0000
  Al  Al7       1.0  0.75000  0.25000  0.50000  1.0000
  Al  Al8       1.0  0.25000  0.75000  0.50000  1.0000
  Al  Al9       1.0  0.25000  0.00000  0.75000  1.0000
  Al  Al10      1.0  0.00000  0.25000  0.75000  1.0000
  Al  Al11      1.0  0.50000  0.25000  0.75000  1.0000
  Al  Al12      1.0  0.25000  0.50000  0.75000  1.0000
  Ho  Ho1       1.0  0.00000  0.00000  0.00000  1.0000
  Ho  Ho2       1.0  0.50000  0.50000  0.00000  1.0000
  Ho  Ho3       1.0  0.50000  0.00000  0.50000  1.0000
  Ho  Ho4       1.0  0.00000  0.50000  0.50000  1.0000
  O   O1        1.0  0.76400  0.08940  0.08940  1.0000
  O   O2        1.0  0.73600  0.41100  0.08940  1.0000
  O   O3        1.0  0.41100  0.73600  0.08940  1.0000
  O   O4        1.0  0.08940  0.76400  0.08940  1.0000
  O   O5        1.0  0.13700  0.13700  0.13700  1.0000
  O   O6        1.0  0.36300  0.36300  0.13700  1.0000
  O   O7        1.0  0.58900  0.58900  0.23600  1.0000
  O   O8        1.0  0.91100  0.91100  0.23600  1.0000
  O   O9        1.0  0.91100  0.58900  0.26400  1.0000
  O   O10       1.0  0.58900  0.91100  0.26400  1.0000
  O   O11       1.0  0.36300  0.13700  0.36300  1.0000
  O   O12       1.0  0.13700  0.36300  0.36300  1.0000
  O   O13       1.0  0.73600  0.08940  0.41100  1.0000
  O   O14       1.0  0.76400  0.41100  0.41100  1.0000
  O   O15       1.0  0.08940  0.73600  0.41100  1.0000
  O   O16       1.0  0.41100  0.76400  0.41100  1.0000
  O   O17       1.0  0.58900  0.23600  0.58900  1.0000
  O   O18       1.0  0.91100  0.26400  0.58900  1.0000
  O   O19       1.0  0.23600  0.58900  0.58900  1.0000
  O   O20       1.0  0.26400  0.91100  0.58900  1.0000
  O   O21       1.0  0.86300  0.63700  0.63700  1.0000
  O   O22       1.0  0.63700  0.86300  0.63700  1.0000
  O   O23       1.0  0.41100  0.08940  0.73600  1.0000
  O   O24       1.0  0.08940  0.41100  0.73600  1.0000
  O   O25       1.0  0.08940  0.08940  0.76400  1.0000
  O   O26       1.0  0.41100  0.41100  0.76400  1.0000
  O   O27       1.0  0.63700  0.63700  0.86300  1.0000
  O   O28       1.0  0.86300  0.86300  0.86300  1.0000
  O   O29       1.0  0.91100  0.23600  0.91100  1.0000
  O   O30       1.0  0.58900  0.26400  0.91100  1.0000
  O   O31       1.0  0.26400  0.58900  0.91100  1.0000
  O   O32       1.0  0.23600  0.91100  0.91100  1.0000
  Pb  Pb1       1.0  0.38600  0.11400  0.11400  1.0000
  Pb  Pb2       1.0  0.11400  0.38600  0.11400  1.0000
  Pb  Pb3       1.0  0.11400  0.11400  0.38600  1.0000
  Pb  Pb4       1.0  0.38600  0.38600  0.38600  1.0000
  Pb  Pb5       1.0  0.61400  0.61400  0.61400  1.0000
  Pb  Pb6       1.0  0.88600  0.88600  0.61400  1.0000
  Pb  Pb7       1.0  0.88600  0.61400  0.88600  1.0000
  Pb  Pb8       1.0  0.61400  0.88600  0.88600  1.0000
