data_image0
_chemical_formula_structural       Dy4H4Mo6O34Se4
_chemical_formula_sum              "Dy4 H4 Mo6 O34 Se4"
_cell_length_a       6.7143
_cell_length_b       7.19691
_cell_length_c       14.0006
_cell_angle_alpha    90
_cell_angle_beta     99.6696
_cell_angle_gamma    90

_space_group_name_H-M_alt    "P 1"
_space_group_IT_number       1

loop_
  _space_group_symop_operation_xyz
  'x, y, z'

loop_
  _atom_site_type_symbol
  _atom_site_label
  _atom_site_symmetry_multiplicity
  _atom_site_fract_x
  _atom_site_fract_y
  _atom_site_fract_z
  _atom_site_occupancy
  Dy  Dy1       1.0  0.25200  0.75000  0.12300  1.0000
  Dy  Dy2       1.0  0.38400  0.25000  0.46400  1.0000
  Dy  Dy3       1.0  0.61600  0.75000  0.53600  1.0000
  Dy  Dy4       1.0  0.74800  0.25000  0.87700  1.0000
  H   H1        1.0  0.75300  0.64200  0.35200  1.0000
  H   H2        1.0  0.75300  0.85800  0.35200  1.0000
  H   H3        1.0  0.24700  0.14200  0.64800  1.0000
  H   H4        1.0  0.24700  0.35800  0.64800  1.0000
  Mo  Mo1       1.0  0.78700  0.50400  0.13800  1.0000
  Mo  Mo2       1.0  0.78700  0.99600  0.13800  1.0000
  Mo  Mo3       1.0  0.87100  0.25000  0.33600  1.0000
  Mo  Mo4       1.0  0.12900  0.75000  0.66400  1.0000
  Mo  Mo5       1.0  0.21300  0.00449  0.86200  1.0000
  Mo  Mo6       1.0  0.21300  0.49600  0.86200  1.0000
  O   O1        1.0  0.75300  0.06640  0.01680  1.0000
  O   O2        1.0  0.75300  0.43400  0.01680  1.0000
  O   O3        1.0  0.90400  0.75000  0.12800  1.0000
  O   O4        1.0  0.11600  0.06080  0.14100  1.0000
  O   O5        1.0  0.11600  0.43900  0.14100  1.0000
  O   O6        1.0  0.54300  0.57300  0.15000  1.0000
  O   O7        1.0  0.54300  0.92700  0.15000  1.0000
  O   O8        1.0  0.76800  0.25000  0.17900  1.0000
  O   O9        1.0  0.27800  0.75000  0.27800  1.0000
  O   O10       1.0  0.88300  0.00166  0.29000  1.0000
  O   O11       1.0  0.88300  0.49800  0.29000  1.0000
  O   O12       1.0  0.20000  0.25000  0.30400  1.0000
  O   O13       1.0  0.62200  0.25000  0.36100  1.0000
  O   O14       1.0  0.69300  0.75000  0.38100  1.0000
  O   O15       1.0  0.34200  0.57200  0.44800  1.0000
  O   O16       1.0  0.34200  0.92800  0.44800  1.0000
  O   O17       1.0  0.02270  0.25000  0.45200  1.0000
  O   O18       1.0  0.97700  0.75000  0.54800  1.0000
  O   O19       1.0  0.65800  0.07150  0.55200  1.0000
  O   O20       1.0  0.65800  0.42800  0.55200  1.0000
  O   O21       1.0  0.30700  0.25000  0.61900  1.0000
  O   O22       1.0  0.37800  0.75000  0.63900  1.0000
  O   O23       1.0  0.80000  0.75000  0.69600  1.0000
  O   O24       1.0  0.11700  0.50200  0.71000  1.0000
  O   O25       1.0  0.11700  0.99800  0.71000  1.0000
  O   O26       1.0  0.72200  0.25000  0.72200  1.0000
  O   O27       1.0  0.23200  0.75000  0.82100  1.0000
  O   O28       1.0  0.45700  0.07280  0.85000  1.0000
  O   O29       1.0  0.45700  0.42700  0.85000  1.0000
  O   O30       1.0  0.88400  0.56100  0.85900  1.0000
  O   O31       1.0  0.88400  0.93900  0.85900  1.0000
  O   O32       1.0  0.09580  0.25000  0.87200  1.0000
  O   O33       1.0  0.24700  0.56600  0.98300  1.0000
  O   O34       1.0  0.24700  0.93400  0.98300  1.0000
  Se  Se1       1.0  0.25800  0.25000  0.19100  1.0000
  Se  Se2       1.0  0.19600  0.75000  0.38600  1.0000
  Se  Se3       1.0  0.80400  0.25000  0.61400  1.0000
  Se  Se4       1.0  0.74200  0.75000  0.80900  1.0000
