data_image0
_chemical_formula_structural       Ga16Na4Nd4S32
_chemical_formula_sum              "Ga16 Na4 Nd4 S32"
_cell_length_a       11.8447
_cell_length_b       11.8447
_cell_length_c       11.8416
_cell_angle_alpha    105.441
_cell_angle_beta     105.441
_cell_angle_gamma    117.882

_space_group_name_H-M_alt    "P 1"
_space_group_IT_number       1

loop_
  _space_group_symop_operation_xyz
  'x, y, z'

loop_
  _atom_site_type_symbol
  _atom_site_label
  _atom_site_symmetry_multiplicity
  _atom_site_fract_x
  _atom_site_fract_y
  _atom_site_fract_z
  _atom_site_occupancy
  Ga  Ga1       1.0  0.13300  0.13800  0.02200  1.0000
  Ga  Ga2       1.0  0.38900  0.88400  0.02200  1.0000
  Ga  Ga3       1.0  0.96900  0.46800  0.10900  1.0000
  Ga  Ga4       1.0  0.64000  0.64100  0.10900  1.0000
  Ga  Ga5       1.0  0.53200  0.03080  0.39100  1.0000
  Ga  Ga6       1.0  0.35900  0.36000  0.39100  1.0000
  Ga  Ga7       1.0  0.11600  0.61100  0.47800  1.0000
  Ga  Ga8       1.0  0.86200  0.86700  0.47800  1.0000
  Ga  Ga9       1.0  0.13800  0.13300  0.52200  1.0000
  Ga  Ga10      1.0  0.88400  0.38900  0.52200  1.0000
  Ga  Ga11      1.0  0.64100  0.64000  0.60900  1.0000
  Ga  Ga12      1.0  0.46800  0.96900  0.60900  1.0000
  Ga  Ga13      1.0  0.36000  0.35900  0.89100  1.0000
  Ga  Ga14      1.0  0.03080  0.53200  0.89100  1.0000
  Ga  Ga15      1.0  0.61100  0.11600  0.97800  1.0000
  Ga  Ga16      1.0  0.86700  0.86200  0.97800  1.0000
  Na  Na1       1.0  0.62100  0.37900  0.25000  1.0000
  Na  Na2       1.0  0.12900  0.87100  0.25000  1.0000
  Na  Na3       1.0  0.87100  0.12900  0.75000  1.0000
  Na  Na4       1.0  0.37900  0.62100  0.75000  1.0000
  Nd  Nd1       1.0  0.87500  0.12500  0.25000  1.0000
  Nd  Nd2       1.0  0.37500  0.62500  0.25000  1.0000
  Nd  Nd3       1.0  0.62500  0.37500  0.75000  1.0000
  Nd  Nd4       1.0  0.12500  0.87500  0.75000  1.0000
  S   S1        1.0  0.09170  0.42100  0.00445  1.0000
  S   S2        1.0  0.41300  0.58400  0.00445  1.0000
  S   S3        1.0  0.91200  0.08210  0.00529  1.0000
  S   S4        1.0  0.59400  0.92300  0.00529  1.0000
  S   S5        1.0  0.81600  0.31700  0.16500  1.0000
  S   S6        1.0  0.84800  0.84800  0.16500  1.0000
  S   S7        1.0  0.33900  0.34700  0.18700  1.0000
  S   S8        1.0  0.34800  0.84100  0.18700  1.0000
  S   S9        1.0  0.15900  0.65200  0.31300  1.0000
  S   S10       1.0  0.65300  0.66100  0.31300  1.0000
  S   S11       1.0  0.15200  0.15200  0.33500  1.0000
  S   S12       1.0  0.68300  0.18400  0.33500  1.0000
  S   S13       1.0  0.91800  0.08830  0.49500  1.0000
  S   S14       1.0  0.07680  0.40600  0.49500  1.0000
  S   S15       1.0  0.41600  0.58700  0.49600  1.0000
  S   S16       1.0  0.57900  0.90800  0.49600  1.0000
  S   S17       1.0  0.42100  0.09170  0.50400  1.0000
  S   S18       1.0  0.58400  0.41300  0.50400  1.0000
  S   S19       1.0  0.92300  0.59400  0.50500  1.0000
  S   S20       1.0  0.08210  0.91200  0.50500  1.0000
  S   S21       1.0  0.31700  0.81600  0.66500  1.0000
  S   S22       1.0  0.84800  0.84800  0.66500  1.0000
  S   S23       1.0  0.34700  0.33900  0.68700  1.0000
  S   S24       1.0  0.84100  0.34800  0.68700  1.0000
  S   S25       1.0  0.65200  0.15900  0.81300  1.0000
  S   S26       1.0  0.66100  0.65300  0.81300  1.0000
  S   S27       1.0  0.15200  0.15200  0.83500  1.0000
  S   S28       1.0  0.18400  0.68300  0.83500  1.0000
  S   S29       1.0  0.40600  0.07680  0.99500  1.0000
  S   S30       1.0  0.08830  0.91800  0.99500  1.0000
  S   S31       1.0  0.58700  0.41600  0.99600  1.0000
  S   S32       1.0  0.90800  0.57900  0.99600  1.0000
