data_image0
_chemical_formula_structural       Cl16N16S16Se8
_chemical_formula_sum              "Cl16 N16 S16 Se8"
_cell_length_a       10.4267
_cell_length_b       9.36341
_cell_length_c       13.6161
_cell_angle_alpha    90
_cell_angle_beta     105.578
_cell_angle_gamma    90

_space_group_name_H-M_alt    "P 1"
_space_group_IT_number       1

loop_
  _space_group_symop_operation_xyz
  'x, y, z'

loop_
  _atom_site_type_symbol
  _atom_site_label
  _atom_site_symmetry_multiplicity
  _atom_site_fract_x
  _atom_site_fract_y
  _atom_site_fract_z
  _atom_site_occupancy
  Cl  Cl1       1.0  0.26800  0.17300  0.07390  1.0000
  Cl  Cl2       1.0  0.91000  0.54000  0.10500  1.0000
  Cl  Cl3       1.0  0.88900  0.15500  0.12900  1.0000
  Cl  Cl4       1.0  0.55200  0.49800  0.14100  1.0000
  Cl  Cl5       1.0  0.44800  0.99800  0.35900  1.0000
  Cl  Cl6       1.0  0.11100  0.65500  0.37100  1.0000
  Cl  Cl7       1.0  0.08960  0.04010  0.39500  1.0000
  Cl  Cl8       1.0  0.73200  0.67300  0.42600  1.0000
  Cl  Cl9       1.0  0.26800  0.32700  0.57400  1.0000
  Cl  Cl10      1.0  0.91000  0.96000  0.60500  1.0000
  Cl  Cl11      1.0  0.88900  0.34500  0.62900  1.0000
  Cl  Cl12      1.0  0.55200  0.00230  0.64100  1.0000
  Cl  Cl13      1.0  0.44800  0.50200  0.85900  1.0000
  Cl  Cl14      1.0  0.11100  0.84500  0.87100  1.0000
  Cl  Cl15      1.0  0.08960  0.46000  0.89500  1.0000
  Cl  Cl16      1.0  0.73200  0.82700  0.92600  1.0000
  N   N1        1.0  0.51800  0.81900  0.05240  1.0000
  N   N2        1.0  0.05620  0.86000  0.09010  1.0000
  N   N3        1.0  0.28700  0.74700  0.17100  1.0000
  N   N4        1.0  0.69400  0.91000  0.21300  1.0000
  N   N5        1.0  0.30600  0.41000  0.28700  1.0000
  N   N6        1.0  0.71300  0.24700  0.32900  1.0000
  N   N7        1.0  0.94400  0.36000  0.41000  1.0000
  N   N8        1.0  0.48200  0.31900  0.44800  1.0000
  N   N9        1.0  0.51800  0.68100  0.55200  1.0000
  N   N10       1.0  0.05620  0.64000  0.59000  1.0000
  N   N11       1.0  0.28700  0.75300  0.67100  1.0000
  N   N12       1.0  0.69400  0.59000  0.71300  1.0000
  N   N13       1.0  0.30600  0.09010  0.78700  1.0000
  N   N14       1.0  0.71300  0.25300  0.82900  1.0000
  N   N15       1.0  0.94400  0.14000  0.91000  1.0000
  N   N16       1.0  0.48200  0.18100  0.94800  1.0000
  S   S1        1.0  0.24700  0.63000  0.08190  1.0000
  S   S2        1.0  0.55100  0.93400  0.14100  1.0000
  S   S3        1.0  0.18900  0.87300  0.17900  1.0000
  S   S4        1.0  0.78900  0.78400  0.19400  1.0000
  S   S5        1.0  0.21100  0.28400  0.30600  1.0000
  S   S6        1.0  0.81100  0.37300  0.32100  1.0000
  S   S7        1.0  0.44900  0.43400  0.35900  1.0000
  S   S8        1.0  0.75300  0.13000  0.41800  1.0000
  S   S9        1.0  0.24700  0.87000  0.58200  1.0000
  S   S10       1.0  0.55100  0.56600  0.64100  1.0000
  S   S11       1.0  0.18900  0.62700  0.67900  1.0000
  S   S12       1.0  0.78900  0.71600  0.69400  1.0000
  S   S13       1.0  0.21100  0.21600  0.80600  1.0000
  S   S14       1.0  0.81100  0.12700  0.82100  1.0000
  S   S15       1.0  0.44900  0.06610  0.85900  1.0000
  S   S16       1.0  0.75300  0.37000  0.91800  1.0000
  Se  Se1       1.0  0.95800  0.27700  0.00422  1.0000
  Se  Se2       1.0  0.64300  0.68800  0.04750  1.0000
  Se  Se3       1.0  0.35700  0.18800  0.45200  1.0000
  Se  Se4       1.0  0.04150  0.77700  0.49600  1.0000
  Se  Se5       1.0  0.95800  0.22300  0.50400  1.0000
  Se  Se6       1.0  0.64300  0.81200  0.54800  1.0000
  Se  Se7       1.0  0.35700  0.31200  0.95200  1.0000
  Se  Se8       1.0  0.04150  0.72300  0.99600  1.0000
