data_image0
_chemical_formula_structural       F10H28In2O14Zn2
_chemical_formula_sum              "F10 H28 In2 O14 Zn2"
_cell_length_a       6.49519
_cell_length_b       8.74278
_cell_length_c       11.4867
_cell_angle_alpha    120.759
_cell_angle_beta     112.087
_cell_angle_gamma    97.9061

_space_group_name_H-M_alt    "P 1"
_space_group_IT_number       1

loop_
  _space_group_symop_operation_xyz
  'x, y, z'

loop_
  _atom_site_type_symbol
  _atom_site_label
  _atom_site_symmetry_multiplicity
  _atom_site_fract_x
  _atom_site_fract_y
  _atom_site_fract_z
  _atom_site_occupancy
  F   F1        1.0  0.07490  0.79300  0.03550  1.0000
  F   F2        1.0  0.75500  0.99500  0.07590  1.0000
  F   F3        1.0  0.28500  0.21300  0.23200  1.0000
  F   F4        1.0  0.12300  0.87000  0.39000  1.0000
  F   F5        1.0  0.52700  0.72900  0.42000  1.0000
  F   F6        1.0  0.47300  0.27100  0.58000  1.0000
  F   F7        1.0  0.87700  0.13000  0.61000  1.0000
  F   F8        1.0  0.71500  0.78700  0.76800  1.0000
  F   F9        1.0  0.24500  0.00490  0.92400  1.0000
  F   F10       1.0  0.92500  0.20700  0.96500  1.0000
  H   H1        1.0  0.16500  0.39800  0.05610  1.0000
  H   H2        1.0  0.83000  0.37600  0.06730  1.0000
  H   H3        1.0  0.74900  0.88200  0.14400  1.0000
  H   H4        1.0  0.72900  0.39900  0.17900  1.0000
  H   H5        1.0  0.71700  0.17600  0.19300  1.0000
  H   H6        1.0  0.31700  0.90500  0.20600  1.0000
  H   H7        1.0  0.39100  0.58400  0.22900  1.0000
  H   H8        1.0  0.54300  0.26400  0.25100  1.0000
  H   H9        1.0  0.58800  0.90900  0.26300  1.0000
  H   H10       1.0  0.88600  0.83500  0.26500  1.0000
  H   H11       1.0  0.25600  0.38200  0.35700  1.0000
  H   H12       1.0  0.35300  0.60900  0.44700  1.0000
  H   H13       1.0  0.02560  0.78100  0.46300  1.0000
  H   H14       1.0  0.80200  0.73800  0.48400  1.0000
  H   H15       1.0  0.19800  0.26200  0.51600  1.0000
  H   H16       1.0  0.97400  0.21900  0.53700  1.0000
  H   H17       1.0  0.64700  0.39100  0.55300  1.0000
  H   H18       1.0  0.74400  0.61800  0.64300  1.0000
  H   H19       1.0  0.11400  0.16500  0.73500  1.0000
  H   H20       1.0  0.41200  0.09090  0.73700  1.0000
  H   H21       1.0  0.45700  0.73600  0.74900  1.0000
  H   H22       1.0  0.60900  0.41600  0.77100  1.0000
  H   H23       1.0  0.68300  0.09510  0.79400  1.0000
  H   H24       1.0  0.28300  0.82400  0.80700  1.0000
  H   H25       1.0  0.27100  0.60100  0.82100  1.0000
  H   H26       1.0  0.25100  0.11800  0.85600  1.0000
  H   H27       1.0  0.17000  0.62400  0.93300  1.0000
  H   H28       1.0  0.83500  0.60200  0.94400  1.0000
  In  In1       1.0  0.00000  0.00000  0.00000  1.0000
  In  In2       1.0  0.50000  0.00000  0.50000  1.0000
  O   O1        1.0  0.31000  0.51800  0.11300  1.0000
  O   O2        1.0  0.76600  0.45800  0.12900  1.0000
  O   O3        1.0  0.72100  0.80900  0.18500  1.0000
  O   O4        1.0  0.70200  0.30000  0.25800  1.0000
  O   O5        1.0  0.48300  0.97400  0.30200  1.0000
  O   O6        1.0  0.24400  0.50100  0.43100  1.0000
  O   O7        1.0  0.03110  0.25600  0.48200  1.0000
  O   O8        1.0  0.96900  0.74400  0.51800  1.0000
  O   O9        1.0  0.75600  0.49900  0.56900  1.0000
  O   O10       1.0  0.51700  0.02560  0.69800  1.0000
  O   O11       1.0  0.29800  0.70000  0.74200  1.0000
  O   O12       1.0  0.27900  0.19100  0.81500  1.0000
  O   O13       1.0  0.23400  0.54200  0.87100  1.0000
  O   O14       1.0  0.69000  0.48200  0.88700  1.0000
  Zn  Zn1       1.0  0.50000  0.50000  0.00000  1.0000
  Zn  Zn2       1.0  0.00000  0.50000  0.50000  1.0000
