data_image0
_chemical_formula_structural       Cu8Mg4O32V8
_chemical_formula_sum              "Cu8 Mg4 O32 V8"
_cell_length_a       6.43557
_cell_length_b       8.25569
_cell_length_c       11.4834
_cell_angle_alpha    90
_cell_angle_beta     90.4335
_cell_angle_gamma    90

_space_group_name_H-M_alt    "P 1"
_space_group_IT_number       1

loop_
  _space_group_symop_operation_xyz
  'x, y, z'

loop_
  _atom_site_type_symbol
  _atom_site_label
  _atom_site_symmetry_multiplicity
  _atom_site_fract_x
  _atom_site_fract_y
  _atom_site_fract_z
  _atom_site_occupancy
  Cu  Cu1       1.0  0.37600  0.44300  0.12100  1.0000
  Cu  Cu2       1.0  0.23600  0.81600  0.12700  1.0000
  Cu  Cu3       1.0  0.76400  0.31600  0.37300  1.0000
  Cu  Cu4       1.0  0.62400  0.94300  0.37900  1.0000
  Cu  Cu5       1.0  0.37600  0.05660  0.62100  1.0000
  Cu  Cu6       1.0  0.23600  0.68400  0.62700  1.0000
  Cu  Cu7       1.0  0.76400  0.18400  0.87300  1.0000
  Cu  Cu8       1.0  0.62400  0.55700  0.87900  1.0000
  Mg  Mg1       1.0  0.11400  0.16100  0.04920  1.0000
  Mg  Mg2       1.0  0.88600  0.66100  0.45100  1.0000
  Mg  Mg3       1.0  0.11400  0.33900  0.54900  1.0000
  Mg  Mg4       1.0  0.88600  0.83900  0.95100  1.0000
  O   O1        1.0  0.81300  0.07450  0.02950  1.0000
  O   O2        1.0  0.42000  0.21600  0.08330  1.0000
  O   O3        1.0  0.66100  0.48800  0.08920  1.0000
  O   O4        1.0  0.95900  0.73700  0.10700  1.0000
  O   O5        1.0  0.08280  0.39300  0.11400  1.0000
  O   O6        1.0  0.51200  0.89700  0.14300  1.0000
  O   O7        1.0  0.12900  0.03770  0.20100  1.0000
  O   O8        1.0  0.31200  0.63100  0.22200  1.0000
  O   O9        1.0  0.68800  0.13100  0.27800  1.0000
  O   O10       1.0  0.87100  0.53800  0.29900  1.0000
  O   O11       1.0  0.48800  0.39700  0.35700  1.0000
  O   O12       1.0  0.91700  0.89300  0.38600  1.0000
  O   O13       1.0  0.04050  0.23700  0.39300  1.0000
  O   O14       1.0  0.33900  0.98800  0.41100  1.0000
  O   O15       1.0  0.58000  0.71600  0.41700  1.0000
  O   O16       1.0  0.18700  0.57400  0.47100  1.0000
  O   O17       1.0  0.81300  0.42600  0.52900  1.0000
  O   O18       1.0  0.42000  0.28400  0.58300  1.0000
  O   O19       1.0  0.66100  0.01250  0.58900  1.0000
  O   O20       1.0  0.95900  0.76300  0.60700  1.0000
  O   O21       1.0  0.08280  0.10700  0.61400  1.0000
  O   O22       1.0  0.51200  0.60300  0.64300  1.0000
  O   O23       1.0  0.12900  0.46200  0.70100  1.0000
  O   O24       1.0  0.31200  0.86900  0.72200  1.0000
  O   O25       1.0  0.68800  0.36900  0.77800  1.0000
  O   O26       1.0  0.87100  0.96200  0.79900  1.0000
  O   O27       1.0  0.48800  0.10300  0.85700  1.0000
  O   O28       1.0  0.91700  0.60700  0.88600  1.0000
  O   O29       1.0  0.04050  0.26300  0.89300  1.0000
  O   O30       1.0  0.33900  0.51200  0.91100  1.0000
  O   O31       1.0  0.58000  0.78400  0.91700  1.0000
  O   O32       1.0  0.18700  0.92600  0.97100  1.0000
  V   V1        1.0  0.61000  0.08550  0.13400  1.0000
  V   V2        1.0  0.89500  0.54000  0.15200  1.0000
  V   V3        1.0  0.10500  0.04020  0.34800  1.0000
  V   V4        1.0  0.39000  0.58600  0.36600  1.0000
  V   V5        1.0  0.61000  0.41400  0.63400  1.0000
  V   V6        1.0  0.89500  0.96000  0.65200  1.0000
  V   V7        1.0  0.10500  0.46000  0.84800  1.0000
  V   V8        1.0  0.39000  0.91400  0.86600  1.0000
