data_image0
_chemical_formula_structural       Cs16In16Sb24
_chemical_formula_sum              "Cs16 In16 Sb24"
_cell_length_a       16.0712
_cell_length_b       7.71124
_cell_length_c       18.2301
_cell_angle_alpha    90
_cell_angle_beta     90.6313
_cell_angle_gamma    90

_space_group_name_H-M_alt    "P 1"
_space_group_IT_number       1

loop_
  _space_group_symop_operation_xyz
  'x, y, z'

loop_
  _atom_site_type_symbol
  _atom_site_label
  _atom_site_symmetry_multiplicity
  _atom_site_fract_x
  _atom_site_fract_y
  _atom_site_fract_z
  _atom_site_occupancy
  Cs  Cs1       1.0  0.85800  0.02250  0.00561  1.0000
  Cs  Cs2       1.0  0.65200  0.53900  0.01880  1.0000
  Cs  Cs3       1.0  0.55500  0.05050  0.10100  1.0000
  Cs  Cs4       1.0  0.92500  0.52900  0.10800  1.0000
  Cs  Cs5       1.0  0.07460  0.02940  0.39200  1.0000
  Cs  Cs6       1.0  0.44500  0.55100  0.39900  1.0000
  Cs  Cs7       1.0  0.34800  0.03890  0.48100  1.0000
  Cs  Cs8       1.0  0.14200  0.52300  0.49400  1.0000
  Cs  Cs9       1.0  0.85800  0.47700  0.50600  1.0000
  Cs  Cs10      1.0  0.65200  0.96100  0.51900  1.0000
  Cs  Cs11      1.0  0.55500  0.44900  0.60100  1.0000
  Cs  Cs12      1.0  0.92500  0.97100  0.60800  1.0000
  Cs  Cs13      1.0  0.07460  0.47100  0.89200  1.0000
  Cs  Cs14      1.0  0.44500  0.94900  0.89900  1.0000
  Cs  Cs15      1.0  0.34800  0.46100  0.98100  1.0000
  Cs  Cs16      1.0  0.14200  0.97700  0.99400  1.0000
  In  In1       1.0  0.31600  0.72000  0.17500  1.0000
  In  In2       1.0  0.18100  0.23400  0.18200  1.0000
  In  In3       1.0  0.09340  0.70900  0.23100  1.0000
  In  In4       1.0  0.40600  0.24000  0.24100  1.0000
  In  In5       1.0  0.59400  0.74000  0.25900  1.0000
  In  In6       1.0  0.90700  0.20900  0.26900  1.0000
  In  In7       1.0  0.81900  0.73400  0.31800  1.0000
  In  In8       1.0  0.68400  0.22000  0.32500  1.0000
  In  In9       1.0  0.31600  0.78000  0.67500  1.0000
  In  In10      1.0  0.18100  0.26600  0.68200  1.0000
  In  In11      1.0  0.09340  0.79100  0.73100  1.0000
  In  In12      1.0  0.40600  0.26000  0.74100  1.0000
  In  In13      1.0  0.59400  0.76000  0.75900  1.0000
  In  In14      1.0  0.90700  0.29100  0.76900  1.0000
  In  In15      1.0  0.81900  0.76600  0.81800  1.0000
  In  In16      1.0  0.68400  0.28000  0.82500  1.0000
  Sb  Sb1       1.0  0.16700  0.55400  0.10200  1.0000
  Sb  Sb2       1.0  0.32600  0.06510  0.11700  1.0000
  Sb  Sb3       1.0  0.47600  0.54300  0.16600  1.0000
  Sb  Sb4       1.0  0.02690  0.03560  0.17600  1.0000
  Sb  Sb5       1.0  0.74700  0.83200  0.17600  1.0000
  Sb  Sb6       1.0  0.75400  0.20600  0.18000  1.0000
  Sb  Sb7       1.0  0.24600  0.70600  0.32000  1.0000
  Sb  Sb8       1.0  0.25300  0.33200  0.32400  1.0000
  Sb  Sb9       1.0  0.97300  0.53600  0.32400  1.0000
  Sb  Sb10      1.0  0.52400  0.04270  0.33400  1.0000
  Sb  Sb11      1.0  0.67400  0.56500  0.38300  1.0000
  Sb  Sb12      1.0  0.83300  0.05440  0.39800  1.0000
  Sb  Sb13      1.0  0.16700  0.94600  0.60200  1.0000
  Sb  Sb14      1.0  0.32600  0.43500  0.61700  1.0000
  Sb  Sb15      1.0  0.47600  0.95700  0.66600  1.0000
  Sb  Sb16      1.0  0.02690  0.46400  0.67600  1.0000
  Sb  Sb17      1.0  0.74700  0.66800  0.67600  1.0000
  Sb  Sb18      1.0  0.75400  0.29400  0.68000  1.0000
  Sb  Sb19      1.0  0.24600  0.79400  0.82000  1.0000
  Sb  Sb20      1.0  0.25300  0.16800  0.82400  1.0000
  Sb  Sb21      1.0  0.97300  0.96400  0.82400  1.0000
  Sb  Sb22      1.0  0.52400  0.45700  0.83400  1.0000
  Sb  Sb23      1.0  0.67400  0.93500  0.88300  1.0000
  Sb  Sb24      1.0  0.83300  0.44600  0.89800  1.0000
