data_image0
_chemical_formula_structural       H28N8O16P4
_chemical_formula_sum              "H28 N8 O16 P4"
_cell_length_a       5.46989
_cell_length_b       7.67805
_cell_length_c       10.2344
_cell_angle_alpha    90
_cell_angle_beta     90
_cell_angle_gamma    90

_space_group_name_H-M_alt    "P 1"
_space_group_IT_number       1

loop_
  _space_group_symop_operation_xyz
  'x, y, z'

loop_
  _atom_site_type_symbol
  _atom_site_label
  _atom_site_symmetry_multiplicity
  _atom_site_fract_x
  _atom_site_fract_y
  _atom_site_fract_z
  _atom_site_occupancy
  H   H1        1.0  0.68800  0.83400  0.01460  1.0000
  H   H2        1.0  0.43600  0.95500  0.06710  1.0000
  H   H3        1.0  0.74700  0.28000  0.06890  1.0000
  H   H4        1.0  0.52100  0.59000  0.08560  1.0000
  H   H5        1.0  0.64100  0.87300  0.17900  1.0000
  H   H6        1.0  0.33400  0.68800  0.19000  1.0000
  H   H7        1.0  0.00283  0.48000  0.20200  1.0000
  H   H8        1.0  0.99700  0.98000  0.29800  1.0000
  H   H9        1.0  0.66600  0.18800  0.31000  1.0000
  H   H10       1.0  0.35900  0.37300  0.32100  1.0000
  H   H11       1.0  0.47900  0.08960  0.41400  1.0000
  H   H12       1.0  0.25300  0.78000  0.43100  1.0000
  H   H13       1.0  0.56400  0.45500  0.43300  1.0000
  H   H14       1.0  0.31200  0.33400  0.48500  1.0000
  H   H15       1.0  0.81200  0.16600  0.51500  1.0000
  H   H16       1.0  0.06440  0.04530  0.56700  1.0000
  H   H17       1.0  0.75300  0.72000  0.56900  1.0000
  H   H18       1.0  0.97900  0.41000  0.58600  1.0000
  H   H19       1.0  0.85900  0.12700  0.67900  1.0000
  H   H20       1.0  0.16600  0.31200  0.69000  1.0000
  H   H21       1.0  0.49700  0.52000  0.70200  1.0000
  H   H22       1.0  0.50300  0.02050  0.79800  1.0000
  H   H23       1.0  0.83400  0.81200  0.81000  1.0000
  H   H24       1.0  0.14100  0.62700  0.82100  1.0000
  H   H25       1.0  0.02090  0.91000  0.91400  1.0000
  H   H26       1.0  0.24700  0.22000  0.93100  1.0000
  H   H27       1.0  0.93600  0.54500  0.93300  1.0000
  H   H28       1.0  0.18800  0.66600  0.98500  1.0000
  N   N1        1.0  0.55100  0.85000  0.09020  1.0000
  N   N2        1.0  0.40500  0.69400  0.09670  1.0000
  N   N3        1.0  0.59500  0.19400  0.40300  1.0000
  N   N4        1.0  0.44900  0.35000  0.41000  1.0000
  N   N5        1.0  0.94900  0.15000  0.59000  1.0000
  N   N6        1.0  0.09530  0.30600  0.59700  1.0000
  N   N7        1.0  0.90500  0.80600  0.90300  1.0000
  N   N8        1.0  0.05050  0.65000  0.91000  1.0000
  O   O1        1.0  0.20000  0.09630  0.03010  1.0000
  O   O2        1.0  0.80200  0.18800  0.14100  1.0000
  O   O3        1.0  0.19200  0.36600  0.17400  1.0000
  O   O4        1.0  0.85900  0.57000  0.22400  1.0000
  O   O5        1.0  0.14100  0.06960  0.27600  1.0000
  O   O6        1.0  0.80800  0.86600  0.32600  1.0000
  O   O7        1.0  0.19800  0.68800  0.35900  1.0000
  O   O8        1.0  0.80000  0.59600  0.47000  1.0000
  O   O9        1.0  0.30000  0.90400  0.53000  1.0000
  O   O10       1.0  0.69800  0.81200  0.64100  1.0000
  O   O11       1.0  0.30800  0.63400  0.67400  1.0000
  O   O12       1.0  0.64100  0.43000  0.72400  1.0000
  O   O13       1.0  0.35900  0.93000  0.77600  1.0000
  O   O14       1.0  0.69200  0.13400  0.82600  1.0000
  O   O15       1.0  0.30200  0.31200  0.85900  1.0000
  O   O16       1.0  0.70000  0.40400  0.97000  1.0000
  P   P1        1.0  0.09050  0.18200  0.15200  1.0000
  P   P2        1.0  0.91000  0.68200  0.34800  1.0000
  P   P3        1.0  0.41000  0.81800  0.65200  1.0000
  P   P4        1.0  0.59000  0.31800  0.84800  1.0000
