data_image0
_chemical_formula_structural       Ag32Ba4S20
_chemical_formula_sum              "Ag32 Ba4 S20"
_cell_length_a       7.85999
_cell_length_b       17.6508
_cell_length_c       9.07134
_cell_angle_alpha    90
_cell_angle_beta     108.116
_cell_angle_gamma    90

_space_group_name_H-M_alt    "P 1"
_space_group_IT_number       1

loop_
  _space_group_symop_operation_xyz
  'x, y, z'

loop_
  _atom_site_type_symbol
  _atom_site_label
  _atom_site_symmetry_multiplicity
  _atom_site_fract_x
  _atom_site_fract_y
  _atom_site_fract_z
  _atom_site_occupancy
  Ag  Ag1       1.0  0.00000  0.00000  0.00000  1.0000
  Ag  Ag2       1.0  0.00000  0.50000  0.00000  1.0000
  Ag  Ag3       1.0  0.74300  0.09770  0.07340  1.0000
  Ag  Ag4       1.0  0.74300  0.40200  0.07340  1.0000
  Ag  Ag5       1.0  0.94300  0.66200  0.12900  1.0000
  Ag  Ag6       1.0  0.94300  0.83800  0.12900  1.0000
  Ag  Ag7       1.0  0.37000  0.05000  0.15000  1.0000
  Ag  Ag8       1.0  0.37000  0.45000  0.15000  1.0000
  Ag  Ag9       1.0  0.68500  0.55000  0.21100  1.0000
  Ag  Ag10      1.0  0.68500  0.95000  0.21100  1.0000
  Ag  Ag11      1.0  0.11400  0.16200  0.21900  1.0000
  Ag  Ag12      1.0  0.11400  0.33800  0.21900  1.0000
  Ag  Ag13      1.0  0.06100  0.00565  0.35400  1.0000
  Ag  Ag14      1.0  0.06100  0.49400  0.35400  1.0000
  Ag  Ag15      1.0  0.89500  0.66000  0.45800  1.0000
  Ag  Ag16      1.0  0.89500  0.84000  0.45800  1.0000
  Ag  Ag17      1.0  0.50000  0.00000  0.50000  1.0000
  Ag  Ag18      1.0  0.50000  0.50000  0.50000  1.0000
  Ag  Ag19      1.0  0.10500  0.16000  0.54200  1.0000
  Ag  Ag20      1.0  0.10500  0.34000  0.54200  1.0000
  Ag  Ag21      1.0  0.93900  0.50600  0.64600  1.0000
  Ag  Ag22      1.0  0.93900  0.99400  0.64600  1.0000
  Ag  Ag23      1.0  0.88600  0.66200  0.78100  1.0000
  Ag  Ag24      1.0  0.88600  0.83800  0.78100  1.0000
  Ag  Ag25      1.0  0.31500  0.04950  0.78900  1.0000
  Ag  Ag26      1.0  0.31500  0.45000  0.78900  1.0000
  Ag  Ag27      1.0  0.63000  0.55000  0.85000  1.0000
  Ag  Ag28      1.0  0.63000  0.95000  0.85000  1.0000
  Ag  Ag29      1.0  0.05710  0.16200  0.87100  1.0000
  Ag  Ag30      1.0  0.05710  0.33800  0.87100  1.0000
  Ag  Ag31      1.0  0.25700  0.59800  0.92700  1.0000
  Ag  Ag32      1.0  0.25700  0.90200  0.92700  1.0000
  Ba  Ba1       1.0  0.43600  0.75000  0.25400  1.0000
  Ba  Ba2       1.0  0.60300  0.25000  0.28800  1.0000
  Ba  Ba3       1.0  0.39700  0.75000  0.71200  1.0000
  Ba  Ba4       1.0  0.56400  0.25000  0.74600  1.0000
  S   S1        1.0  0.60200  0.65400  0.02650  1.0000
  S   S2        1.0  0.60200  0.84600  0.02650  1.0000
  S   S3        1.0  0.88000  0.25000  0.06750  1.0000
  S   S4        1.0  0.23000  0.57200  0.20300  1.0000
  S   S5        1.0  0.23000  0.92800  0.20300  1.0000
  S   S6        1.0  0.77200  0.06880  0.35800  1.0000
  S   S7        1.0  0.77200  0.43100  0.35800  1.0000
  S   S8        1.0  0.09160  0.75000  0.37900  1.0000
  S   S9        1.0  0.37000  0.13500  0.45400  1.0000
  S   S10       1.0  0.37000  0.36500  0.45400  1.0000
  S   S11       1.0  0.63000  0.63500  0.54600  1.0000
  S   S12       1.0  0.63000  0.86500  0.54600  1.0000
  S   S13       1.0  0.90800  0.25000  0.62100  1.0000
  S   S14       1.0  0.22800  0.56900  0.64200  1.0000
  S   S15       1.0  0.22800  0.93100  0.64200  1.0000
  S   S16       1.0  0.77000  0.07190  0.79700  1.0000
  S   S17       1.0  0.77000  0.42800  0.79700  1.0000
  S   S18       1.0  0.12000  0.75000  0.93200  1.0000
  S   S19       1.0  0.39800  0.15400  0.97300  1.0000
  S   S20       1.0  0.39800  0.34600  0.97300  1.0000
