data_image0
_chemical_formula_structural       Pr12S34Si8
_chemical_formula_sum              "Pr12 S34 Si8"
_cell_length_a       9.00568
_cell_length_b       10.0438
_cell_length_c       14.3383
_cell_angle_alpha    81.9921
_cell_angle_beta     86.9732
_cell_angle_gamma    89.3677

_space_group_name_H-M_alt    "P 1"
_space_group_IT_number       1

loop_
  _space_group_symop_operation_xyz
  'x, y, z'

loop_
  _atom_site_type_symbol
  _atom_site_label
  _atom_site_symmetry_multiplicity
  _atom_site_fract_x
  _atom_site_fract_y
  _atom_site_fract_z
  _atom_site_occupancy
  Pr  Pr1       1.0  0.44800  0.73900  0.00103  1.0000
  Pr  Pr2       1.0  0.08360  0.08050  0.16500  1.0000
  Pr  Pr3       1.0  0.89400  0.61500  0.18300  1.0000
  Pr  Pr4       1.0  0.63000  0.93400  0.32500  1.0000
  Pr  Pr5       1.0  0.33100  0.41200  0.34200  1.0000
  Pr  Pr6       1.0  0.01930  0.76800  0.46000  1.0000
  Pr  Pr7       1.0  0.98100  0.23200  0.54000  1.0000
  Pr  Pr8       1.0  0.66900  0.58800  0.65800  1.0000
  Pr  Pr9       1.0  0.37000  0.06630  0.67500  1.0000
  Pr  Pr10      1.0  0.10600  0.38500  0.81700  1.0000
  Pr  Pr11      1.0  0.91600  0.91900  0.83500  1.0000
  Pr  Pr12      1.0  0.55200  0.26100  0.99900  1.0000
  S   S1        1.0  0.67800  0.51900  0.04350  1.0000
  S   S2        1.0  0.95900  0.85200  0.04810  1.0000
  S   S3        1.0  0.34100  0.00130  0.05680  1.0000
  S   S4        1.0  0.00855  0.37200  0.11400  1.0000
  S   S5        1.0  0.74200  0.11500  0.14900  1.0000
  S   S6        1.0  0.61700  0.78700  0.16100  1.0000
  S   S7        1.0  0.36700  0.28200  0.16700  1.0000
  S   S8        1.0  0.24700  0.61400  0.16700  1.0000
  S   S9        1.0  0.93100  0.85600  0.27800  1.0000
  S   S10       1.0  0.64400  0.47000  0.29300  1.0000
  S   S11       1.0  0.30000  0.91100  0.30300  1.0000
  S   S12       1.0  0.10600  0.20100  0.34500  1.0000
  S   S13       1.0  0.98500  0.50700  0.37700  1.0000
  S   S14       1.0  0.48300  0.15400  0.39600  1.0000
  S   S15       1.0  0.70300  0.69200  0.45900  1.0000
  S   S16       1.0  0.30800  0.63400  0.46100  1.0000
  S   S17       1.0  0.81600  0.01920  0.46700  1.0000
  S   S18       1.0  0.18400  0.98100  0.53300  1.0000
  S   S19       1.0  0.69200  0.36600  0.53900  1.0000
  S   S20       1.0  0.29700  0.30800  0.54100  1.0000
  S   S21       1.0  0.51700  0.84600  0.60400  1.0000
  S   S22       1.0  0.01480  0.49300  0.62300  1.0000
  S   S23       1.0  0.89400  0.79900  0.65500  1.0000
  S   S24       1.0  0.70000  0.08880  0.69700  1.0000
  S   S25       1.0  0.35600  0.53000  0.70700  1.0000
  S   S26       1.0  0.06860  0.14400  0.72200  1.0000
  S   S27       1.0  0.75300  0.38600  0.83300  1.0000
  S   S28       1.0  0.63300  0.71800  0.83300  1.0000
  S   S29       1.0  0.38300  0.21300  0.83900  1.0000
  S   S30       1.0  0.25800  0.88500  0.85100  1.0000
  S   S31       1.0  0.99100  0.62800  0.88600  1.0000
  S   S32       1.0  0.65900  0.99900  0.94300  1.0000
  S   S33       1.0  0.04070  0.14800  0.95200  1.0000
  S   S34       1.0  0.32200  0.48100  0.95700  1.0000
  Si  Si1       1.0  0.74900  0.94000  0.07730  1.0000
  Si  Si2       1.0  0.23100  0.43800  0.09880  1.0000
  Si  Si3       1.0  0.27400  0.05850  0.39500  1.0000
  Si  Si4       1.0  0.75000  0.50000  0.41600  1.0000
  Si  Si5       1.0  0.25000  0.50000  0.58400  1.0000
  Si  Si6       1.0  0.72600  0.94200  0.60500  1.0000
  Si  Si7       1.0  0.76900  0.56200  0.90100  1.0000
  Si  Si8       1.0  0.25100  0.06010  0.92300  1.0000
