data_image0
_chemical_formula_structural       Ce12S34Si8
_chemical_formula_sum              "Ce12 S34 Si8"
_cell_length_a       9.06046
_cell_length_b       10.1143
_cell_length_c       14.4217
_cell_angle_alpha    81.9772
_cell_angle_beta     86.884
_cell_angle_gamma    89.4631

_space_group_name_H-M_alt    "P 1"
_space_group_IT_number       1

loop_
  _space_group_symop_operation_xyz
  'x, y, z'

loop_
  _atom_site_type_symbol
  _atom_site_label
  _atom_site_symmetry_multiplicity
  _atom_site_fract_x
  _atom_site_fract_y
  _atom_site_fract_z
  _atom_site_occupancy
  Ce  Ce1       1.0  0.94700  0.23900  0.00073  1.0000
  Ce  Ce2       1.0  0.58300  0.58000  0.16600  1.0000
  Ce  Ce3       1.0  0.39400  0.11400  0.18300  1.0000
  Ce  Ce4       1.0  0.12800  0.43200  0.32600  1.0000
  Ce  Ce5       1.0  0.83100  0.91300  0.34200  1.0000
  Ce  Ce6       1.0  0.52100  0.26900  0.45900  1.0000
  Ce  Ce7       1.0  0.47900  0.73100  0.54100  1.0000
  Ce  Ce8       1.0  0.16900  0.08740  0.65800  1.0000
  Ce  Ce9       1.0  0.87200  0.56800  0.67400  1.0000
  Ce  Ce10      1.0  0.60600  0.88600  0.81700  1.0000
  Ce  Ce11      1.0  0.41700  0.42000  0.83400  1.0000
  Ce  Ce12      1.0  0.05270  0.76100  0.99900  1.0000
  S   S1        1.0  0.17900  0.01910  0.04270  1.0000
  S   S2        1.0  0.45800  0.35300  0.04840  1.0000
  S   S3        1.0  0.84100  0.50200  0.05610  1.0000
  S   S4        1.0  0.51000  0.87100  0.11300  1.0000
  S   S5        1.0  0.24100  0.61300  0.14900  1.0000
  S   S6        1.0  0.11600  0.28700  0.16100  1.0000
  S   S7        1.0  0.74600  0.11200  0.16700  1.0000
  S   S8        1.0  0.86600  0.78300  0.16700  1.0000
  S   S9        1.0  0.43000  0.35500  0.27800  1.0000
  S   S10       1.0  0.14500  0.97100  0.29400  1.0000
  S   S11       1.0  0.79600  0.41100  0.30500  1.0000
  S   S12       1.0  0.60700  0.70100  0.34600  1.0000
  S   S13       1.0  0.48400  0.00569  0.37700  1.0000
  S   S14       1.0  0.98100  0.65300  0.39700  1.0000
  S   S15       1.0  0.20400  0.19100  0.45900  1.0000
  S   S16       1.0  0.80900  0.13300  0.46200  1.0000
  S   S17       1.0  0.31500  0.51800  0.46700  1.0000
  S   S18       1.0  0.68500  0.48200  0.53300  1.0000
  S   S19       1.0  0.19100  0.86700  0.53800  1.0000
  S   S20       1.0  0.79600  0.80900  0.54100  1.0000
  S   S21       1.0  0.01940  0.34700  0.60300  1.0000
  S   S22       1.0  0.51600  0.99400  0.62300  1.0000
  S   S23       1.0  0.39300  0.29900  0.65400  1.0000
  S   S24       1.0  0.20400  0.58900  0.69500  1.0000
  S   S25       1.0  0.85500  0.02930  0.70600  1.0000
  S   S26       1.0  0.57000  0.64500  0.72200  1.0000
  S   S27       1.0  0.13400  0.21700  0.83300  1.0000
  S   S28       1.0  0.25400  0.88800  0.83300  1.0000
  S   S29       1.0  0.88400  0.71300  0.83900  1.0000
  S   S30       1.0  0.75900  0.38700  0.85100  1.0000
  S   S31       1.0  0.49000  0.12900  0.88700  1.0000
  S   S32       1.0  0.15900  0.49800  0.94400  1.0000
  S   S33       1.0  0.54200  0.64700  0.95200  1.0000
  S   S34       1.0  0.82100  0.98100  0.95700  1.0000
  Si  Si1       1.0  0.24800  0.44000  0.07730  1.0000
  Si  Si2       1.0  0.73000  0.93700  0.09880  1.0000
  Si  Si3       1.0  0.77300  0.55900  0.39500  1.0000
  Si  Si4       1.0  0.25100  0.00000  0.41600  1.0000
  Si  Si5       1.0  0.74900  0.00000  0.58400  1.0000
  Si  Si6       1.0  0.22700  0.44100  0.60500  1.0000
  Si  Si7       1.0  0.27000  0.06320  0.90100  1.0000
  Si  Si8       1.0  0.75200  0.56000  0.92300  1.0000
