data_image0
_chemical_formula_structural       As20K24Sn12
_chemical_formula_sum              "As20 K24 Sn12"
_cell_length_a       15.0064
_cell_length_b       10.8759
_cell_length_c       11.1101
_cell_angle_alpha    90
_cell_angle_beta     90
_cell_angle_gamma    90

_space_group_name_H-M_alt    "P 1"
_space_group_IT_number       1

loop_
  _space_group_symop_operation_xyz
  'x, y, z'

loop_
  _atom_site_type_symbol
  _atom_site_label
  _atom_site_symmetry_multiplicity
  _atom_site_fract_x
  _atom_site_fract_y
  _atom_site_fract_z
  _atom_site_occupancy
  As  As1       1.0  0.02390  0.75000  0.08910  1.0000
  As  As2       1.0  0.47600  0.75000  0.08910  1.0000
  As  As3       1.0  0.75000  0.06760  0.10100  1.0000
  As  As4       1.0  0.75000  0.43200  0.10100  1.0000
  As  As5       1.0  0.25000  0.25000  0.21700  1.0000
  As  As6       1.0  0.10500  0.55700  0.40800  1.0000
  As  As7       1.0  0.39500  0.55700  0.40800  1.0000
  As  As8       1.0  0.10500  0.94300  0.40800  1.0000
  As  As9       1.0  0.39500  0.94300  0.40800  1.0000
  As  As10      1.0  0.75000  0.75000  0.42500  1.0000
  As  As11      1.0  0.25000  0.25000  0.57500  1.0000
  As  As12      1.0  0.60500  0.05730  0.59200  1.0000
  As  As13      1.0  0.89500  0.05730  0.59200  1.0000
  As  As14      1.0  0.60500  0.44300  0.59200  1.0000
  As  As15      1.0  0.89500  0.44300  0.59200  1.0000
  As  As16      1.0  0.75000  0.75000  0.78300  1.0000
  As  As17      1.0  0.25000  0.56800  0.89900  1.0000
  As  As18      1.0  0.25000  0.93200  0.89900  1.0000
  As  As19      1.0  0.52400  0.25000  0.91100  1.0000
  As  As20      1.0  0.97600  0.25000  0.91100  1.0000
  K   K1        1.0  0.75000  0.75000  0.09850  1.0000
  K   K2        1.0  0.10300  0.04100  0.10500  1.0000
  K   K3        1.0  0.39700  0.04100  0.10500  1.0000
  K   K4        1.0  0.10300  0.45900  0.10500  1.0000
  K   K5        1.0  0.39700  0.45900  0.10500  1.0000
  K   K6        1.0  0.60200  0.54800  0.30000  1.0000
  K   K7        1.0  0.89800  0.54800  0.30000  1.0000
  K   K8        1.0  0.60200  0.95200  0.30000  1.0000
  K   K9        1.0  0.89800  0.95200  0.30000  1.0000
  K   K10       1.0  0.03050  0.25000  0.41100  1.0000
  K   K11       1.0  0.47000  0.25000  0.41100  1.0000
  K   K12       1.0  0.75000  0.25000  0.41900  1.0000
  K   K13       1.0  0.25000  0.75000  0.58100  1.0000
  K   K14       1.0  0.53000  0.75000  0.58900  1.0000
  K   K15       1.0  0.97000  0.75000  0.58900  1.0000
  K   K16       1.0  0.10200  0.04770  0.70000  1.0000
  K   K17       1.0  0.39800  0.04770  0.70000  1.0000
  K   K18       1.0  0.10200  0.45200  0.70000  1.0000
  K   K19       1.0  0.39800  0.45200  0.70000  1.0000
  K   K20       1.0  0.60300  0.54100  0.89500  1.0000
  K   K21       1.0  0.89700  0.54100  0.89500  1.0000
  K   K22       1.0  0.60300  0.95900  0.89500  1.0000
  K   K23       1.0  0.89700  0.95900  0.89500  1.0000
  K   K24       1.0  0.25000  0.25000  0.90100  1.0000
  Sn  Sn1       1.0  0.62500  0.25000  0.12000  1.0000
  Sn  Sn2       1.0  0.87500  0.25000  0.12000  1.0000
  Sn  Sn3       1.0  0.14700  0.75000  0.26800  1.0000
  Sn  Sn4       1.0  0.35300  0.75000  0.26800  1.0000
  Sn  Sn5       1.0  0.25000  0.08100  0.39600  1.0000
  Sn  Sn6       1.0  0.25000  0.41900  0.39600  1.0000
  Sn  Sn7       1.0  0.75000  0.58100  0.60400  1.0000
  Sn  Sn8       1.0  0.75000  0.91900  0.60400  1.0000
  Sn  Sn9       1.0  0.64700  0.25000  0.73200  1.0000
  Sn  Sn10      1.0  0.85300  0.25000  0.73200  1.0000
  Sn  Sn11      1.0  0.12500  0.75000  0.88000  1.0000
  Sn  Sn12      1.0  0.37500  0.75000  0.88000  1.0000
