data_image0
_chemical_formula_structural       Na2Nb8O34P4Tl6
_chemical_formula_sum              "Na2 Nb8 O34 P4 Tl6"
_cell_length_a       7.38238
_cell_length_b       9.89137
_cell_length_c       11.7906
_cell_angle_alpha    65.1995
_cell_angle_beta     90
_cell_angle_gamma    90

_space_group_name_H-M_alt    "P 1"
_space_group_IT_number       1

loop_
  _space_group_symop_operation_xyz
  'x, y, z'

loop_
  _atom_site_type_symbol
  _atom_site_label
  _atom_site_symmetry_multiplicity
  _atom_site_fract_x
  _atom_site_fract_y
  _atom_site_fract_z
  _atom_site_occupancy
  Na  Na1       1.0  0.00000  0.37000  0.00000  1.0000
  Na  Na2       1.0  0.50000  0.37000  0.00000  1.0000
  Nb  Nb1       1.0  0.00000  0.00050  0.00000  1.0000
  Nb  Nb2       1.0  0.50000  0.00050  0.00000  1.0000
  Nb  Nb3       1.0  0.50100  0.65300  0.30700  1.0000
  Nb  Nb4       1.0  0.99900  0.65300  0.30700  1.0000
  Nb  Nb5       1.0  0.75000  0.85200  0.47300  1.0000
  Nb  Nb6       1.0  0.25000  0.32500  0.52700  1.0000
  Nb  Nb7       1.0  0.00086  0.95900  0.69300  1.0000
  Nb  Nb8       1.0  0.49900  0.95900  0.69300  1.0000
  O   O1        1.0  0.25000  0.00087  0.06010  1.0000
  O   O2        1.0  0.57400  0.10200  0.12400  1.0000
  O   O3        1.0  0.92600  0.10200  0.12400  1.0000
  O   O4        1.0  0.54600  0.80800  0.12900  1.0000
  O   O5        1.0  0.95400  0.80800  0.12900  1.0000
  O   O6        1.0  0.25000  0.34200  0.13800  1.0000
  O   O7        1.0  0.75000  0.30700  0.14900  1.0000
  O   O8        1.0  0.07790  0.51300  0.21200  1.0000
  O   O9        1.0  0.42200  0.51300  0.21200  1.0000
  O   O10       1.0  0.25000  0.71900  0.29100  1.0000
  O   O11       1.0  0.75000  0.57900  0.29900  1.0000
  O   O12       1.0  0.75000  0.04670  0.32000  1.0000
  O   O13       1.0  0.25000  0.29100  0.36700  1.0000
  O   O14       1.0  0.56600  0.76700  0.39400  1.0000
  O   O15       1.0  0.93400  0.76700  0.39400  1.0000
  O   O16       1.0  0.05680  0.47000  0.45800  1.0000
  O   O17       1.0  0.44300  0.47000  0.45800  1.0000
  O   O18       1.0  0.55700  0.92800  0.54200  1.0000
  O   O19       1.0  0.94300  0.92800  0.54200  1.0000
  O   O20       1.0  0.06580  0.16200  0.60600  1.0000
  O   O21       1.0  0.43400  0.16200  0.60600  1.0000
  O   O22       1.0  0.75000  0.65800  0.63300  1.0000
  O   O23       1.0  0.25000  0.36700  0.68000  1.0000
  O   O24       1.0  0.25000  0.87800  0.70100  1.0000
  O   O25       1.0  0.75000  0.01000  0.70900  1.0000
  O   O26       1.0  0.57800  0.72500  0.78800  1.0000
  O   O27       1.0  0.92200  0.72500  0.78800  1.0000
  O   O28       1.0  0.25000  0.45600  0.85100  1.0000
  O   O29       1.0  0.75000  0.48000  0.86200  1.0000
  O   O30       1.0  0.04610  0.93600  0.87100  1.0000
  O   O31       1.0  0.45400  0.93600  0.87100  1.0000
  O   O32       1.0  0.07370  0.22600  0.87600  1.0000
  O   O33       1.0  0.42600  0.22600  0.87600  1.0000
  O   O34       1.0  0.75000  0.06100  0.94000  1.0000
  P   P1        1.0  0.75000  0.14200  0.17600  1.0000
  P   P2        1.0  0.25000  0.41500  0.22800  1.0000
  P   P3        1.0  0.75000  0.64400  0.77200  1.0000
  P   P4        1.0  0.25000  0.31800  0.82400  1.0000
  Tl  Tl1       1.0  0.75000  0.63300  0.05380  1.0000
  Tl  Tl2       1.0  0.25000  0.02990  0.28500  1.0000
  Tl  Tl3       1.0  0.75000  0.28200  0.40100  1.0000
  Tl  Tl4       1.0  0.25000  0.68300  0.59900  1.0000
  Tl  Tl5       1.0  0.75000  0.31500  0.71500  1.0000
  Tl  Tl6       1.0  0.25000  0.68700  0.94600  1.0000
