data_image0
_chemical_formula_structural       Al8K2Na6O32Si8
_chemical_formula_sum              "Al8 K2 Na6 O32 Si8"
_cell_length_a       9.89885
_cell_length_b       9.89878
_cell_length_c       8.34031
_cell_angle_alpha    90
_cell_angle_beta     90
_cell_angle_gamma    119.999

_space_group_name_H-M_alt    "P 1"
_space_group_IT_number       1

loop_
  _space_group_symop_operation_xyz
  'x, y, z'

loop_
  _atom_site_type_symbol
  _atom_site_label
  _atom_site_symmetry_multiplicity
  _atom_site_fract_x
  _atom_site_fract_y
  _atom_site_fract_z
  _atom_site_occupancy
  Al  Al1       1.0  0.66700  0.33300  0.30100  1.0000
  Al  Al2       1.0  0.08410  0.33000  0.31400  1.0000
  Al  Al3       1.0  0.24600  0.91600  0.31400  1.0000
  Al  Al4       1.0  0.67000  0.75400  0.31400  1.0000
  Al  Al5       1.0  0.33300  0.66700  0.80100  1.0000
  Al  Al6       1.0  0.91600  0.67000  0.81400  1.0000
  Al  Al7       1.0  0.75400  0.08410  0.81400  1.0000
  Al  Al8       1.0  0.33000  0.24600  0.81400  1.0000
  K   K1        1.0  0.00000  0.00000  0.00582  1.0000
  K   K2        1.0  0.00000  0.00000  0.50600  1.0000
  Na  Na1       1.0  0.44600  0.44200  0.50000  1.0000
  Na  Na2       1.0  0.55800  0.00325  0.50000  1.0000
  Na  Na3       1.0  0.99700  0.55400  0.50000  1.0000
  Na  Na4       1.0  0.55400  0.55800  0.00000  1.0000
  Na  Na5       1.0  0.44200  0.99700  0.00000  1.0000
  Na  Na6       1.0  0.00324  0.44600  0.00000  1.0000
  O   O1        1.0  0.99600  0.69600  0.00672  1.0000
  O   O2        1.0  0.70000  0.00397  0.00672  1.0000
  O   O3        1.0  0.30400  0.30000  0.00672  1.0000
  O   O4        1.0  0.33300  0.66700  0.00848  1.0000
  O   O5        1.0  0.77800  0.71600  0.17400  1.0000
  O   O6        1.0  0.28400  0.06260  0.17400  1.0000
  O   O7        1.0  0.93700  0.22200  0.17400  1.0000
  O   O8        1.0  0.51300  0.35800  0.23500  1.0000
  O   O9        1.0  0.64200  0.15500  0.23500  1.0000
  O   O10       1.0  0.84500  0.48700  0.23500  1.0000
  O   O11       1.0  0.16600  0.52700  0.26600  1.0000
  O   O12       1.0  0.36100  0.83400  0.26600  1.0000
  O   O13       1.0  0.47300  0.63900  0.26600  1.0000
  O   O14       1.0  0.04510  0.78100  0.31500  1.0000
  O   O15       1.0  0.73600  0.95500  0.31500  1.0000
  O   O16       1.0  0.21900  0.26400  0.31500  1.0000
  O   O17       1.0  0.00398  0.30400  0.50700  1.0000
  O   O18       1.0  0.69600  0.70000  0.50700  1.0000
  O   O19       1.0  0.30000  0.99600  0.50700  1.0000
  O   O20       1.0  0.66700  0.33300  0.50800  1.0000
  O   O21       1.0  0.22200  0.28400  0.67400  1.0000
  O   O22       1.0  0.71600  0.93700  0.67400  1.0000
  O   O23       1.0  0.06260  0.77800  0.67400  1.0000
  O   O24       1.0  0.48700  0.64200  0.73500  1.0000
  O   O25       1.0  0.35800  0.84500  0.73500  1.0000
  O   O26       1.0  0.15500  0.51300  0.73500  1.0000
  O   O27       1.0  0.83400  0.47300  0.76600  1.0000
  O   O28       1.0  0.63900  0.16600  0.76600  1.0000
  O   O29       1.0  0.52700  0.36100  0.76600  1.0000
  O   O30       1.0  0.95500  0.21900  0.81500  1.0000
  O   O31       1.0  0.26400  0.04510  0.81500  1.0000
  O   O32       1.0  0.78100  0.73600  0.81500  1.0000
  Si  Si1       1.0  0.33100  0.24600  0.18400  1.0000
  Si  Si2       1.0  0.75400  0.08500  0.18400  1.0000
  Si  Si3       1.0  0.91500  0.66900  0.18400  1.0000
  Si  Si4       1.0  0.33300  0.66700  0.20300  1.0000
  Si  Si5       1.0  0.66900  0.75400  0.68400  1.0000
  Si  Si6       1.0  0.24600  0.91500  0.68400  1.0000
  Si  Si7       1.0  0.08500  0.33100  0.68400  1.0000
  Si  Si8       1.0  0.66700  0.33300  0.70300  1.0000
