data_image0
_chemical_formula_structural       N18Pr18Se12Si6
_chemical_formula_sum              "N18 Pr18 Se12 Si6"
_cell_length_a       10.4634
_cell_length_b       11.5304
_cell_length_c       11.5304
_cell_angle_alpha    111.269
_cell_angle_beta     107.607
_cell_angle_gamma    107.607

_space_group_name_H-M_alt    "P 1"
_space_group_IT_number       1

loop_
  _space_group_symop_operation_xyz
  'x, y, z'

loop_
  _atom_site_type_symbol
  _atom_site_label
  _atom_site_symmetry_multiplicity
  _atom_site_fract_x
  _atom_site_fract_y
  _atom_site_fract_z
  _atom_site_occupancy
  N   N1        1.0  0.66200  0.90100  0.07930  1.0000
  N   N2        1.0  0.76100  0.17800  0.09910  1.0000
  N   N3        1.0  0.12200  0.87200  0.10100  1.0000
  N   N4        1.0  0.25000  0.22800  0.12800  1.0000
  N   N5        1.0  0.35300  0.80100  0.14200  1.0000
  N   N6        1.0  0.41700  0.07930  0.17800  1.0000
  N   N7        1.0  0.55200  0.34200  0.19900  1.0000
  N   N8        1.0  0.97800  0.10100  0.22800  1.0000
  N   N9        1.0  0.78900  0.14200  0.34200  1.0000
  N   N10       1.0  0.21100  0.85800  0.65800  1.0000
  N   N11       1.0  0.02170  0.89900  0.77200  1.0000
  N   N12       1.0  0.44800  0.65800  0.80100  1.0000
  N   N13       1.0  0.58300  0.92100  0.82200  1.0000
  N   N14       1.0  0.64700  0.19900  0.85800  1.0000
  N   N15       1.0  0.75000  0.77200  0.87200  1.0000
  N   N16       1.0  0.87800  0.12800  0.89900  1.0000
  N   N17       1.0  0.23900  0.82200  0.90100  1.0000
  N   N18       1.0  0.33800  0.09910  0.92100  1.0000
  Pr  Pr1       1.0  0.67000  0.37500  0.06440  1.0000
  Pr  Pr2       1.0  0.87200  0.83900  0.12100  1.0000
  Pr  Pr3       1.0  0.03270  0.28200  0.16100  1.0000
  Pr  Pr4       1.0  0.17000  0.72700  0.21400  1.0000
  Pr  Pr5       1.0  0.44300  0.48700  0.27300  1.0000
  Pr  Pr6       1.0  0.24900  0.12100  0.28200  1.0000
  Pr  Pr7       1.0  0.60500  0.93600  0.31000  1.0000
  Pr  Pr8       1.0  0.70500  0.31000  0.37500  1.0000
  Pr  Pr9       1.0  0.04370  0.21400  0.48700  1.0000
  Pr  Pr10      1.0  0.95600  0.78600  0.51300  1.0000
  Pr  Pr11      1.0  0.29500  0.69000  0.62500  1.0000
  Pr  Pr12      1.0  0.39500  0.06440  0.69000  1.0000
  Pr  Pr13      1.0  0.75100  0.87900  0.71800  1.0000
  Pr  Pr14      1.0  0.55700  0.51300  0.72700  1.0000
  Pr  Pr15      1.0  0.83000  0.27300  0.78600  1.0000
  Pr  Pr16      1.0  0.96700  0.71800  0.83900  1.0000
  Pr  Pr17      1.0  0.12800  0.16100  0.87900  1.0000
  Pr  Pr18      1.0  0.33000  0.62500  0.93600  1.0000
  Se  Se1       1.0  0.16400  0.45800  0.04200  1.0000
  Se  Se2       1.0  0.65000  0.67100  0.20600  1.0000
  Se  Se3       1.0  0.98000  0.53600  0.32900  1.0000
  Se  Se4       1.0  0.12200  0.95800  0.41600  1.0000
  Se  Se5       1.0  0.29400  0.41600  0.45800  1.0000
  Se  Se6       1.0  0.44400  0.79400  0.46400  1.0000
  Se  Se7       1.0  0.55600  0.20600  0.53600  1.0000
  Se  Se8       1.0  0.70600  0.58400  0.54200  1.0000
  Se  Se9       1.0  0.87800  0.04200  0.58400  1.0000
  Se  Se10      1.0  0.02030  0.46400  0.67100  1.0000
  Se  Se11      1.0  0.35000  0.32900  0.79400  1.0000
  Se  Se12      1.0  0.83600  0.54200  0.95800  1.0000
  Si  Si1       1.0  0.29100  0.90000  0.07990  1.0000
  Si  Si2       1.0  0.39100  0.18000  0.10000  1.0000
  Si  Si3       1.0  0.78900  0.07990  0.18000  1.0000
  Si  Si4       1.0  0.21100  0.92000  0.82000  1.0000
  Si  Si5       1.0  0.60900  0.82000  0.90000  1.0000
  Si  Si6       1.0  0.70900  0.10000  0.92000  1.0000
