data_image0
_chemical_formula_structural       Ga16S32Sr8
_chemical_formula_sum              "Ga16 S32 Sr8"
_cell_length_a       12.0267
_cell_length_b       12.0267
_cell_length_c       12.1897
_cell_angle_alpha    104.961
_cell_angle_beta     104.961
_cell_angle_gamma    118.469

_space_group_name_H-M_alt    "P 1"
_space_group_IT_number       1

loop_
  _space_group_symop_operation_xyz
  'x, y, z'

loop_
  _atom_site_type_symbol
  _atom_site_label
  _atom_site_symmetry_multiplicity
  _atom_site_fract_x
  _atom_site_fract_y
  _atom_site_fract_z
  _atom_site_occupancy
  Ga  Ga1       1.0  0.11100  0.13700  0.00060  1.0000
  Ga  Ga2       1.0  0.39000  0.86400  0.00060  1.0000
  Ga  Ga3       1.0  0.46800  0.36100  0.00134  1.0000
  Ga  Ga4       1.0  0.03320  0.64000  0.00134  1.0000
  Ga  Ga5       1.0  0.63900  0.53200  0.49900  1.0000
  Ga  Ga6       1.0  0.36000  0.96700  0.49900  1.0000
  Ga  Ga7       1.0  0.13600  0.61000  0.49900  1.0000
  Ga  Ga8       1.0  0.86300  0.88900  0.49900  1.0000
  Ga  Ga9       1.0  0.13700  0.11100  0.50100  1.0000
  Ga  Ga10      1.0  0.86400  0.39000  0.50100  1.0000
  Ga  Ga11      1.0  0.64000  0.03320  0.50100  1.0000
  Ga  Ga12      1.0  0.36100  0.46800  0.50100  1.0000
  Ga  Ga13      1.0  0.96700  0.36000  0.99900  1.0000
  Ga  Ga14      1.0  0.53200  0.63900  0.99900  1.0000
  Ga  Ga15      1.0  0.61000  0.13600  0.99900  1.0000
  Ga  Ga16      1.0  0.88900  0.86300  0.99900  1.0000
  S   S1        1.0  0.15000  0.34100  0.00067  1.0000
  S   S2        1.0  0.35000  0.66000  0.00067  1.0000
  S   S3        1.0  0.31400  0.15800  0.00304  1.0000
  S   S4        1.0  0.18900  0.84500  0.00304  1.0000
  S   S5        1.0  0.08110  0.08130  0.16400  1.0000
  S   S6        1.0  0.58300  0.08310  0.16400  1.0000
  S   S7        1.0  0.08130  0.58100  0.16500  1.0000
  S   S8        1.0  0.58400  0.58400  0.16500  1.0000
  S   S9        1.0  0.41600  0.41600  0.33500  1.0000
  S   S10       1.0  0.41900  0.91900  0.33500  1.0000
  S   S11       1.0  0.91700  0.41700  0.33600  1.0000
  S   S12       1.0  0.91900  0.91900  0.33600  1.0000
  S   S13       1.0  0.84200  0.68600  0.49700  1.0000
  S   S14       1.0  0.15500  0.81100  0.49700  1.0000
  S   S15       1.0  0.34000  0.65000  0.49900  1.0000
  S   S16       1.0  0.65900  0.85000  0.49900  1.0000
  S   S17       1.0  0.34100  0.15000  0.50100  1.0000
  S   S18       1.0  0.66000  0.35000  0.50100  1.0000
  S   S19       1.0  0.84500  0.18900  0.50300  1.0000
  S   S20       1.0  0.15800  0.31400  0.50300  1.0000
  S   S21       1.0  0.08130  0.08110  0.66400  1.0000
  S   S22       1.0  0.08310  0.58300  0.66400  1.0000
  S   S23       1.0  0.58100  0.08130  0.66500  1.0000
  S   S24       1.0  0.58400  0.58400  0.66500  1.0000
  S   S25       1.0  0.41600  0.41600  0.83500  1.0000
  S   S26       1.0  0.91900  0.41900  0.83500  1.0000
  S   S27       1.0  0.41700  0.91700  0.83600  1.0000
  S   S28       1.0  0.91900  0.91900  0.83600  1.0000
  S   S29       1.0  0.81100  0.15500  0.99700  1.0000
  S   S30       1.0  0.68600  0.84200  0.99700  1.0000
  S   S31       1.0  0.65000  0.34000  0.99900  1.0000
  S   S32       1.0  0.85000  0.65900  0.99900  1.0000
  Sr  Sr1       1.0  0.87300  0.62300  0.24600  1.0000
  Sr  Sr2       1.0  0.87500  0.12500  0.25000  1.0000
  Sr  Sr3       1.0  0.37500  0.62500  0.25000  1.0000
  Sr  Sr4       1.0  0.37700  0.12700  0.25400  1.0000
  Sr  Sr5       1.0  0.62300  0.87300  0.74600  1.0000
  Sr  Sr6       1.0  0.62500  0.37500  0.75000  1.0000
  Sr  Sr7       1.0  0.12500  0.87500  0.75000  1.0000
  Sr  Sr8       1.0  0.12700  0.37700  0.75400  1.0000
