data_image0
_chemical_formula_structural       O36P12Tl4Zn4
_chemical_formula_sum              "O36 P12 Tl4 Zn4"
_cell_length_a       5.03682
_cell_length_b       11.7805
_cell_length_c       12.9653
_cell_angle_alpha    90
_cell_angle_beta     90
_cell_angle_gamma    90

_space_group_name_H-M_alt    "P 1"
_space_group_IT_number       1

loop_
  _space_group_symop_operation_xyz
  'x, y, z'

loop_
  _atom_site_type_symbol
  _atom_site_label
  _atom_site_symmetry_multiplicity
  _atom_site_fract_x
  _atom_site_fract_y
  _atom_site_fract_z
  _atom_site_occupancy
  O   O1        1.0  0.89600  0.15700  0.05190  1.0000
  O   O2        1.0  0.10400  0.65700  0.05190  1.0000
  O   O3        1.0  0.53900  0.29900  0.08260  1.0000
  O   O4        1.0  0.46100  0.79900  0.08260  1.0000
  O   O5        1.0  0.34300  0.01200  0.09670  1.0000
  O   O6        1.0  0.65700  0.51200  0.09670  1.0000
  O   O7        1.0  0.18300  0.43600  0.13400  1.0000
  O   O8        1.0  0.81700  0.93600  0.13400  1.0000
  O   O9        1.0  0.57100  0.38500  0.25000  1.0000
  O   O10       1.0  0.42900  0.88500  0.25000  1.0000
  O   O11       1.0  0.18300  0.43600  0.36600  1.0000
  O   O12       1.0  0.81700  0.93600  0.36600  1.0000
  O   O13       1.0  0.34300  0.01200  0.40300  1.0000
  O   O14       1.0  0.65700  0.51200  0.40300  1.0000
  O   O15       1.0  0.53900  0.29900  0.41700  1.0000
  O   O16       1.0  0.46100  0.79900  0.41700  1.0000
  O   O17       1.0  0.89600  0.15700  0.44800  1.0000
  O   O18       1.0  0.10400  0.65700  0.44800  1.0000
  O   O19       1.0  0.89600  0.34300  0.55200  1.0000
  O   O20       1.0  0.10400  0.84300  0.55200  1.0000
  O   O21       1.0  0.53900  0.20100  0.58300  1.0000
  O   O22       1.0  0.46100  0.70100  0.58300  1.0000
  O   O23       1.0  0.34300  0.48800  0.59700  1.0000
  O   O24       1.0  0.65700  0.98800  0.59700  1.0000
  O   O25       1.0  0.18300  0.06360  0.63400  1.0000
  O   O26       1.0  0.81700  0.56400  0.63400  1.0000
  O   O27       1.0  0.57100  0.11500  0.75000  1.0000
  O   O28       1.0  0.42900  0.61500  0.75000  1.0000
  O   O29       1.0  0.18300  0.06360  0.86600  1.0000
  O   O30       1.0  0.81700  0.56400  0.86600  1.0000
  O   O31       1.0  0.34300  0.48800  0.90300  1.0000
  O   O32       1.0  0.65700  0.98800  0.90300  1.0000
  O   O33       1.0  0.53900  0.20100  0.91700  1.0000
  O   O34       1.0  0.46100  0.70100  0.91700  1.0000
  O   O35       1.0  0.89600  0.34300  0.94800  1.0000
  O   O36       1.0  0.10400  0.84300  0.94800  1.0000
  P   P1        1.0  0.74400  0.25000  0.00000  1.0000
  P   P2        1.0  0.25600  0.75000  0.00000  1.0000
  P   P3        1.0  0.47800  0.42000  0.13600  1.0000
  P   P4        1.0  0.52200  0.92000  0.13600  1.0000
  P   P5        1.0  0.47800  0.42000  0.36400  1.0000
  P   P6        1.0  0.52200  0.92000  0.36400  1.0000
  P   P7        1.0  0.74400  0.25000  0.50000  1.0000
  P   P8        1.0  0.25600  0.75000  0.50000  1.0000
  P   P9        1.0  0.47800  0.08050  0.63600  1.0000
  P   P10       1.0  0.52200  0.58000  0.63600  1.0000
  P   P11       1.0  0.47800  0.08050  0.86400  1.0000
  P   P12       1.0  0.52200  0.58000  0.86400  1.0000
  Tl  Tl1       1.0  0.08440  0.14800  0.25000  1.0000
  Tl  Tl2       1.0  0.91600  0.64800  0.25000  1.0000
  Tl  Tl3       1.0  0.08440  0.35200  0.75000  1.0000
  Tl  Tl4       1.0  0.91600  0.85200  0.75000  1.0000
  Zn  Zn1       1.0  0.00000  0.00000  0.00000  1.0000
  Zn  Zn2       1.0  0.00000  0.50000  0.00000  1.0000
  Zn  Zn3       1.0  0.00000  0.00000  0.50000  1.0000
  Zn  Zn4       1.0  0.00000  0.50000  0.50000  1.0000
