data_image0
_chemical_formula_structural       F32O8Sb4Tc4
_chemical_formula_sum              "F32 O8 Sb4 Tc4"
_cell_length_a       6.90076
_cell_length_b       9.88935
_cell_length_c       8.71357
_cell_angle_alpha    90
_cell_angle_beta     93.4774
_cell_angle_gamma    90

_space_group_name_H-M_alt    "P 1"
_space_group_IT_number       1

loop_
  _space_group_symop_operation_xyz
  'x, y, z'

loop_
  _atom_site_type_symbol
  _atom_site_label
  _atom_site_symmetry_multiplicity
  _atom_site_fract_x
  _atom_site_fract_y
  _atom_site_fract_z
  _atom_site_occupancy
  F   F1        1.0  0.47500  0.36900  0.00039  1.0000
  F   F2        1.0  0.80100  0.99200  0.02600  1.0000
  F   F3        1.0  0.13600  0.51700  0.10600  1.0000
  F   F4        1.0  0.48100  0.14600  0.13800  1.0000
  F   F5        1.0  0.46600  0.87700  0.15100  1.0000
  F   F6        1.0  0.79700  0.74800  0.15600  1.0000
  F   F7        1.0  0.10100  0.15100  0.21700  1.0000
  F   F8        1.0  0.10100  0.87000  0.22000  1.0000
  F   F9        1.0  0.39900  0.37000  0.28000  1.0000
  F   F10       1.0  0.39900  0.65100  0.28300  1.0000
  F   F11       1.0  0.70300  0.24800  0.34400  1.0000
  F   F12       1.0  0.03350  0.37700  0.34900  1.0000
  F   F13       1.0  0.01900  0.64600  0.36200  1.0000
  F   F14       1.0  0.36400  0.01670  0.39400  1.0000
  F   F15       1.0  0.69900  0.49200  0.47400  1.0000
  F   F16       1.0  0.02450  0.86900  0.50000  1.0000
  F   F17       1.0  0.97500  0.13100  0.50000  1.0000
  F   F18       1.0  0.30100  0.50800  0.52600  1.0000
  F   F19       1.0  0.63600  0.98300  0.60600  1.0000
  F   F20       1.0  0.98100  0.35400  0.63800  1.0000
  F   F21       1.0  0.96600  0.62300  0.65100  1.0000
  F   F22       1.0  0.29700  0.75200  0.65600  1.0000
  F   F23       1.0  0.60100  0.34900  0.71700  1.0000
  F   F24       1.0  0.60100  0.63000  0.72000  1.0000
  F   F25       1.0  0.89900  0.13000  0.78000  1.0000
  F   F26       1.0  0.89900  0.84900  0.78300  1.0000
  F   F27       1.0  0.20300  0.25200  0.84400  1.0000
  F   F28       1.0  0.53400  0.12300  0.84900  1.0000
  F   F29       1.0  0.51900  0.85400  0.86200  1.0000
  F   F30       1.0  0.86400  0.48300  0.89400  1.0000
  F   F31       1.0  0.19900  0.00769  0.97400  1.0000
  F   F32       1.0  0.52500  0.63100  0.00000  1.0000
  O   O1        1.0  0.83200  0.25900  0.05430  1.0000
  O   O2        1.0  0.74100  0.48700  0.19000  1.0000
  O   O3        1.0  0.75900  0.98700  0.31000  1.0000
  O   O4        1.0  0.66800  0.75900  0.44600  1.0000
  O   O5        1.0  0.33200  0.24100  0.55400  1.0000
  O   O6        1.0  0.24100  0.01320  0.69000  1.0000
  O   O7        1.0  0.25900  0.51300  0.81000  1.0000
  O   O8        1.0  0.16800  0.74100  0.94600  1.0000
  Sb  Sb1       1.0  0.28400  0.01420  0.18300  1.0000
  Sb  Sb2       1.0  0.21600  0.51400  0.31700  1.0000
  Sb  Sb3       1.0  0.78400  0.48600  0.68300  1.0000
  Sb  Sb4       1.0  0.71600  0.98600  0.81700  1.0000
  Tc  Tc1       1.0  0.66000  0.32900  0.15600  1.0000
  Tc  Tc2       1.0  0.84000  0.82900  0.34400  1.0000
  Tc  Tc3       1.0  0.16000  0.17100  0.65600  1.0000
  Tc  Tc4       1.0  0.34000  0.67100  0.84400  1.0000
