data_image0
_chemical_formula_structural       Ba10N2O36Re6
_chemical_formula_sum              "Ba10 N2 O36 Re6"
_cell_length_a       11.2005
_cell_length_b       11.2005
_cell_length_c       7.63721
_cell_angle_alpha    90
_cell_angle_beta     90
_cell_angle_gamma    119.999

_space_group_name_H-M_alt    "P 1"
_space_group_IT_number       1

loop_
  _space_group_symop_operation_xyz
  'x, y, z'

loop_
  _atom_site_type_symbol
  _atom_site_label
  _atom_site_symmetry_multiplicity
  _atom_site_fract_x
  _atom_site_fract_y
  _atom_site_fract_z
  _atom_site_occupancy
  Ba  Ba1       1.0  0.33300  0.66700  0.00532  1.0000
  Ba  Ba2       1.0  0.66700  0.33300  0.00532  1.0000
  Ba  Ba3       1.0  0.27400  0.27400  0.25300  1.0000
  Ba  Ba4       1.0  0.00000  0.72600  0.25300  1.0000
  Ba  Ba5       1.0  0.72600  0.00000  0.25300  1.0000
  Ba  Ba6       1.0  0.66700  0.33300  0.50500  1.0000
  Ba  Ba7       1.0  0.33300  0.66700  0.50500  1.0000
  Ba  Ba8       1.0  0.72600  0.72600  0.75300  1.0000
  Ba  Ba9       1.0  0.00000  0.27400  0.75300  1.0000
  Ba  Ba10      1.0  0.27400  0.00000  0.75300  1.0000
  N   N1        1.0  0.00000  0.00000  0.44500  1.0000
  N   N2        1.0  0.00000  0.00000  0.94500  1.0000
  O   O1        1.0  0.29900  0.00000  0.11600  1.0000
  O   O2        1.0  0.00000  0.29900  0.11600  1.0000
  O   O3        1.0  0.70100  0.70100  0.11600  1.0000
  O   O4        1.0  0.58000  0.12900  0.25900  1.0000
  O   O5        1.0  0.12900  0.58000  0.25900  1.0000
  O   O6        1.0  0.87100  0.45000  0.25900  1.0000
  O   O7        1.0  0.45000  0.87100  0.25900  1.0000
  O   O8        1.0  0.42000  0.55000  0.25900  1.0000
  O   O9        1.0  0.55000  0.42000  0.25900  1.0000
  O   O10       1.0  0.88700  0.88700  0.44300  1.0000
  O   O11       1.0  0.00000  0.11300  0.44300  1.0000
  O   O12       1.0  0.11300  0.00000  0.44300  1.0000
  O   O13       1.0  0.86800  0.26400  0.44500  1.0000
  O   O14       1.0  0.26400  0.86800  0.44500  1.0000
  O   O15       1.0  0.13200  0.39600  0.44500  1.0000
  O   O16       1.0  0.39600  0.13200  0.44500  1.0000
  O   O17       1.0  0.73600  0.60400  0.44500  1.0000
  O   O18       1.0  0.60400  0.73600  0.44500  1.0000
  O   O19       1.0  0.70100  0.00000  0.61600  1.0000
  O   O20       1.0  1.00000  0.70100  0.61600  1.0000
  O   O21       1.0  0.29900  0.29900  0.61600  1.0000
  O   O22       1.0  0.87100  0.42000  0.75900  1.0000
  O   O23       1.0  0.42000  0.87100  0.75900  1.0000
  O   O24       1.0  0.12900  0.55000  0.75900  1.0000
  O   O25       1.0  0.55000  0.12900  0.75900  1.0000
  O   O26       1.0  0.58000  0.45000  0.75900  1.0000
  O   O27       1.0  0.45000  0.58000  0.75900  1.0000
  O   O28       1.0  0.11300  0.11300  0.94300  1.0000
  O   O29       1.0  0.00000  0.88700  0.94300  1.0000
  O   O30       1.0  0.88700  0.00000  0.94300  1.0000
  O   O31       1.0  0.13200  0.73600  0.94500  1.0000
  O   O32       1.0  0.73600  0.13200  0.94500  1.0000
  O   O33       1.0  0.86800  0.60400  0.94500  1.0000
  O   O34       1.0  0.60400  0.86800  0.94500  1.0000
  O   O35       1.0  0.39600  0.26400  0.94500  1.0000
  O   O36       1.0  0.26400  0.39600  0.94500  1.0000
  Re  Re1       1.0  0.39400  0.00000  0.30000  1.0000
  Re  Re2       1.0  0.00000  0.39400  0.30000  1.0000
  Re  Re3       1.0  0.60600  0.60600  0.30000  1.0000
  Re  Re4       1.0  0.60600  0.00000  0.80000  1.0000
  Re  Re5       1.0  0.00000  0.60600  0.80000  1.0000
  Re  Re6       1.0  0.39400  0.39400  0.80000  1.0000
