data_image0
_chemical_formula_structural       Cl28H4K4Mo12O2
_chemical_formula_sum              "Cl28 H4 K4 Mo12 O2"
_cell_length_a       9.23285
_cell_length_b       12.3807
_cell_length_c       12.3807
_cell_angle_alpha    102.872
_cell_angle_beta     71.0777
_cell_angle_gamma    108.922

_space_group_name_H-M_alt    "P 1"
_space_group_IT_number       1

loop_
  _space_group_symop_operation_xyz
  'x, y, z'

loop_
  _atom_site_type_symbol
  _atom_site_label
  _atom_site_symmetry_multiplicity
  _atom_site_fract_x
  _atom_site_fract_y
  _atom_site_fract_z
  _atom_site_occupancy
  Cl  Cl1       1.0  0.66100  0.34800  0.01940  1.0000
  Cl  Cl2       1.0  0.15400  0.86400  0.09660  1.0000
  Cl  Cl3       1.0  0.77400  0.64800  0.10200  1.0000
  Cl  Cl4       1.0  0.65400  0.90300  0.13600  1.0000
  Cl  Cl5       1.0  0.92200  0.31600  0.15700  1.0000
  Cl  Cl6       1.0  0.31500  0.45400  0.17200  1.0000
  Cl  Cl7       1.0  0.03360  0.61600  0.23900  1.0000
  Cl  Cl8       1.0  0.57900  0.15600  0.32100  1.0000
  Cl  Cl9       1.0  0.62700  0.46400  0.32200  1.0000
  Cl  Cl10      1.0  0.27400  0.89800  0.35200  1.0000
  Cl  Cl11      1.0  0.84300  0.02160  0.35600  1.0000
  Cl  Cl12      1.0  0.53400  0.76100  0.38400  1.0000
  Cl  Cl13      1.0  0.18800  0.17200  0.45700  1.0000
  Cl  Cl14      1.0  0.87100  0.32400  0.46800  1.0000
  Cl  Cl15      1.0  0.12700  0.67800  0.53600  1.0000
  Cl  Cl16      1.0  0.81500  0.82800  0.54600  1.0000
  Cl  Cl17      1.0  0.46600  0.23800  0.62100  1.0000
  Cl  Cl18      1.0  0.73200  0.10200  0.65100  1.0000
  Cl  Cl19      1.0  0.16100  0.98100  0.65200  1.0000
  Cl  Cl20      1.0  0.37100  0.53200  0.67600  1.0000
  Cl  Cl21      1.0  0.42200  0.84300  0.68400  1.0000
  Cl  Cl22      1.0  0.96600  0.37900  0.76200  1.0000
  Cl  Cl23      1.0  0.68800  0.54300  0.82800  1.0000
  Cl  Cl24      1.0  0.07850  0.67900  0.84400  1.0000
  Cl  Cl25      1.0  0.37200  0.09890  0.87000  1.0000
  Cl  Cl26      1.0  0.23200  0.34900  0.89800  1.0000
  Cl  Cl27      1.0  0.87200  0.13000  0.90100  1.0000
  Cl  Cl28      1.0  0.34300  0.64400  0.97800  1.0000
  H   H1        1.0  0.27200  0.25400  0.17200  1.0000
  H   H2        1.0  0.22100  0.16300  0.25600  1.0000
  H   H3        1.0  0.77200  0.82800  0.74600  1.0000
  H   H4        1.0  0.72100  0.74400  0.83700  1.0000
  K   K1        1.0  0.02880  0.04520  0.04670  1.0000
  K   K2        1.0  0.24800  0.44400  0.44500  1.0000
  K   K3        1.0  0.74800  0.55500  0.55600  1.0000
  K   K4        1.0  0.52900  0.95300  0.95500  1.0000
  Mo  Mo1       1.0  0.06090  0.65500  0.04260  1.0000
  Mo  Mo2       1.0  0.13900  0.48000  0.07240  1.0000
  Mo  Mo3       1.0  0.83800  0.48200  0.13700  1.0000
  Mo  Mo4       1.0  0.56100  0.95700  0.34500  1.0000
  Mo  Mo5       1.0  0.36300  0.07230  0.48500  1.0000
  Mo  Mo6       1.0  0.66300  0.13800  0.48700  1.0000
  Mo  Mo7       1.0  0.33800  0.86300  0.51800  1.0000
  Mo  Mo8       1.0  0.63900  0.92800  0.52000  1.0000
  Mo  Mo9       1.0  0.44200  0.04320  0.66000  1.0000
  Mo  Mo10      1.0  0.16300  0.51300  0.86200  1.0000
  Mo  Mo11      1.0  0.86300  0.51500  0.92800  1.0000
  Mo  Mo12      1.0  0.94200  0.34000  0.95700  1.0000
  O   O1        1.0  0.23000  0.17100  0.17700  1.0000
  O   O2        1.0  0.73000  0.82300  0.82900  1.0000
