data_image0
_chemical_formula_structural       As2BeK4
_chemical_formula_sum              "As2 Be1 K4"
_cell_length_a       5.6882
_cell_length_b       5.6882
_cell_length_c       9.27501
_cell_angle_alpha    72.1431
_cell_angle_beta     107.857
_cell_angle_gamma    120

_space_group_name_H-M_alt    "P 1"
_space_group_IT_number       1

loop_
  _space_group_symop_operation_xyz
  'x, y, z'

loop_
  _atom_site_type_symbol
  _atom_site_label
  _atom_site_symmetry_multiplicity
  _atom_site_fract_x
  _atom_site_fract_y
  _atom_site_fract_z
  _atom_site_occupancy
  As  As1       1.0  0.08030  0.92000  0.24100  1.0000
  As  As2       1.0  0.92000  0.08030  0.75900  1.0000
  Be  Be1       1.0  0.00000  0.00000  0.00000  1.0000
  K   K1        1.0  0.37600  0.62400  0.12800  1.0000
  K   K2        1.0  0.79200  0.20800  0.37500  1.0000
  K   K3        1.0  0.20800  0.79200  0.62500  1.0000
  K   K4        1.0  0.62400  0.37600  0.87200  1.0000
