data_image0
_chemical_formula_structural       As12Br18Cu6Hg18
_chemical_formula_sum              "As12 Br18 Cu6 Hg18"
_cell_length_a       9.52222
_cell_length_b       13.5445
_cell_length_c       14.1464
_cell_angle_alpha    98.5812
_cell_angle_beta     109.667
_cell_angle_gamma    110.58

_space_group_name_H-M_alt    "P 1"
_space_group_IT_number       1

loop_
  _space_group_symop_operation_xyz
  'x, y, z'

loop_
  _atom_site_type_symbol
  _atom_site_label
  _atom_site_symmetry_multiplicity
  _atom_site_fract_x
  _atom_site_fract_y
  _atom_site_fract_z
  _atom_site_occupancy
  As  As1       1.0  0.24900  0.18400  0.04880  1.0000
  As  As2       1.0  0.59600  0.85100  0.05040  1.0000
  As  As3       1.0  0.92600  0.51300  0.05230  1.0000
  As  As4       1.0  0.86000  0.98700  0.44800  1.0000
  As  As5       1.0  0.19500  0.64900  0.45000  1.0000
  As  As6       1.0  0.51600  0.31600  0.45100  1.0000
  As  As7       1.0  0.48400  0.68400  0.54900  1.0000
  As  As8       1.0  0.80500  0.35100  0.55000  1.0000
  As  As9       1.0  0.14000  0.01340  0.55200  1.0000
  As  As10      1.0  0.07420  0.48700  0.94800  1.0000
  As  As11      1.0  0.40400  0.14900  0.95000  1.0000
  As  As12      1.0  0.75100  0.81600  0.95100  1.0000
  Br  Br1       1.0  0.50000  0.50000  0.00000  1.0000
  Br  Br2       1.0  0.87300  0.19300  0.08490  1.0000
  Br  Br3       1.0  0.38200  0.78600  0.23900  1.0000
  Br  Br4       1.0  0.38100  0.48800  0.24600  1.0000
  Br  Br5       1.0  0.74900  0.40400  0.25000  1.0000
  Br  Br6       1.0  0.59400  0.09580  0.25000  1.0000
  Br  Br7       1.0  0.14700  0.01160  0.25400  1.0000
  Br  Br8       1.0  0.85700  0.71400  0.26100  1.0000
  Br  Br9       1.0  0.09490  0.30700  0.41500  1.0000
  Br  Br10      1.0  0.50000  0.00000  0.50000  1.0000
  Br  Br11      1.0  0.90500  0.69300  0.58500  1.0000
  Br  Br12      1.0  0.14300  0.28600  0.73900  1.0000
  Br  Br13      1.0  0.85300  0.98800  0.74600  1.0000
  Br  Br14      1.0  0.40600  0.90400  0.75000  1.0000
  Br  Br15      1.0  0.25100  0.59600  0.75000  1.0000
  Br  Br16      1.0  0.61900  0.51200  0.75400  1.0000
  Br  Br17      1.0  0.61800  0.21400  0.76100  1.0000
  Br  Br18      1.0  0.12700  0.80700  0.91500  1.0000
  Cu  Cu1       1.0  0.61800  0.54400  0.20700  1.0000
  Cu  Cu2       1.0  0.86000  0.25000  0.25000  1.0000
  Cu  Cu3       1.0  0.36700  0.95600  0.29300  1.0000
  Cu  Cu4       1.0  0.63300  0.04370  0.70700  1.0000
  Cu  Cu5       1.0  0.14000  0.75000  0.75000  1.0000
  Cu  Cu6       1.0  0.38200  0.45600  0.79300  1.0000
  Hg  Hg1       1.0  0.00000  0.00000  0.00000  1.0000
  Hg  Hg2       1.0  0.50000  0.00000  0.00000  1.0000
  Hg  Hg3       1.0  0.83900  0.66500  0.00136  1.0000
  Hg  Hg4       1.0  0.33200  0.67200  0.00238  1.0000
  Hg  Hg5       1.0  0.78700  0.91100  0.24900  1.0000
  Hg  Hg6       1.0  0.42600  0.25000  0.25000  1.0000
  Hg  Hg7       1.0  0.12600  0.58900  0.25100  1.0000
  Hg  Hg8       1.0  0.15800  0.82800  0.49800  1.0000
  Hg  Hg9       1.0  0.67300  0.83500  0.49900  1.0000
  Hg  Hg10      1.0  1.00000  0.50000  0.50000  1.0000
  Hg  Hg11      1.0  0.50000  0.50000  0.50000  1.0000
  Hg  Hg12      1.0  0.32700  0.16500  0.50100  1.0000
  Hg  Hg13      1.0  0.84200  0.17200  0.50200  1.0000
  Hg  Hg14      1.0  0.87400  0.41100  0.74900  1.0000
  Hg  Hg15      1.0  0.57400  0.75000  0.75000  1.0000
  Hg  Hg16      1.0  0.21300  0.08870  0.75100  1.0000
  Hg  Hg17      1.0  0.66800  0.32800  0.99800  1.0000
  Hg  Hg18      1.0  0.16100  0.33500  0.99900  1.0000
