data_image0
_chemical_formula_structural       P64Se48
_chemical_formula_sum              "P64 Se48"
_cell_length_a       10.0946
_cell_length_b       12.4429
_cell_length_c       27.6369
_cell_angle_alpha    90
_cell_angle_beta     90
_cell_angle_gamma    90

_space_group_name_H-M_alt    "P 1"
_space_group_IT_number       1

loop_
  _space_group_symop_operation_xyz
  'x, y, z'

loop_
  _atom_site_type_symbol
  _atom_site_label
  _atom_site_symmetry_multiplicity
  _atom_site_fract_x
  _atom_site_fract_y
  _atom_site_fract_z
  _atom_site_occupancy
  P   P1        1.0  0.75000  0.95400  0.00021  1.0000
  P   P2        1.0  0.75000  0.52300  0.01580  1.0000
  P   P3        1.0  0.13900  0.22400  0.08820  1.0000
  P   P4        1.0  0.36100  0.22400  0.08820  1.0000
  P   P5        1.0  0.75000  0.31800  0.10200  1.0000
  P   P6        1.0  0.25000  0.09000  0.12500  1.0000
  P   P7        1.0  0.63900  0.46000  0.13100  1.0000
  P   P8        1.0  0.86100  0.46000  0.13100  1.0000
  P   P9        1.0  0.63900  0.02940  0.14400  1.0000
  P   P10       1.0  0.86100  0.02940  0.14400  1.0000
  P   P11       1.0  0.75000  0.76900  0.16700  1.0000
  P   P12       1.0  0.25000  0.45400  0.17800  1.0000
  P   P13       1.0  0.25000  0.73200  0.19300  1.0000
  P   P14       1.0  0.75000  0.02790  0.21500  1.0000
  P   P15       1.0  0.13900  0.49500  0.24600  1.0000
  P   P16       1.0  0.36100  0.49500  0.24600  1.0000
  P   P17       1.0  0.13900  0.99500  0.25400  1.0000
  P   P18       1.0  0.36100  0.99500  0.25400  1.0000
  P   P19       1.0  0.75000  0.52800  0.28500  1.0000
  P   P20       1.0  0.25000  0.23200  0.30700  1.0000
  P   P21       1.0  0.25000  0.95400  0.32200  1.0000
  P   P22       1.0  0.75000  0.26900  0.33300  1.0000
  P   P23       1.0  0.63900  0.52900  0.35600  1.0000
  P   P24       1.0  0.86100  0.52900  0.35600  1.0000
  P   P25       1.0  0.63900  0.96000  0.36900  1.0000
  P   P26       1.0  0.86100  0.96000  0.36900  1.0000
  P   P27       1.0  0.25000  0.59000  0.37500  1.0000
  P   P28       1.0  0.75000  0.81800  0.39800  1.0000
  P   P29       1.0  0.13900  0.72400  0.41200  1.0000
  P   P30       1.0  0.36100  0.72400  0.41200  1.0000
  P   P31       1.0  0.75000  0.02330  0.48400  1.0000
  P   P32       1.0  0.75000  0.45400  0.50000  1.0000
  P   P33       1.0  0.25000  0.54600  0.50000  1.0000
  P   P34       1.0  0.25000  0.97700  0.51600  1.0000
  P   P35       1.0  0.63900  0.27600  0.58800  1.0000
  P   P36       1.0  0.86100  0.27600  0.58800  1.0000
  P   P37       1.0  0.25000  0.18200  0.60200  1.0000
  P   P38       1.0  0.75000  0.41000  0.62500  1.0000
  P   P39       1.0  0.13900  0.04000  0.63100  1.0000
  P   P40       1.0  0.36100  0.04000  0.63100  1.0000
  P   P41       1.0  0.13900  0.47100  0.64400  1.0000
  P   P42       1.0  0.36100  0.47100  0.64400  1.0000
  P   P43       1.0  0.25000  0.73100  0.66700  1.0000
  P   P44       1.0  0.75000  0.04640  0.67800  1.0000
  P   P45       1.0  0.75000  0.76800  0.69300  1.0000
  P   P46       1.0  0.25000  0.47200  0.71500  1.0000
  P   P47       1.0  0.63900  0.00473  0.74600  1.0000
  P   P48       1.0  0.86100  0.00473  0.74600  1.0000
  P   P49       1.0  0.63900  0.50500  0.75400  1.0000
  P   P50       1.0  0.86100  0.50500  0.75400  1.0000
  P   P51       1.0  0.25000  0.97200  0.78500  1.0000
  P   P52       1.0  0.75000  0.26800  0.80700  1.0000
  P   P53       1.0  0.75000  0.54600  0.82200  1.0000
  P   P54       1.0  0.25000  0.23100  0.83300  1.0000
  P   P55       1.0  0.13900  0.97100  0.85600  1.0000
  P   P56       1.0  0.36100  0.97100  0.85600  1.0000
  P   P57       1.0  0.13900  0.54000  0.86900  1.0000
  P   P58       1.0  0.36100  0.54000  0.86900  1.0000
  P   P59       1.0  0.75000  0.91000  0.87500  1.0000
  P   P60       1.0  0.25000  0.68200  0.89800  1.0000
  P   P61       1.0  0.63900  0.77600  0.91200  1.0000
  P   P62       1.0  0.86100  0.77600  0.91200  1.0000
  P   P63       1.0  0.25000  0.47700  0.98400  1.0000
  P   P64       1.0  0.25000  0.04600  0.00000  1.0000
  Se  Se1       1.0  0.07810  0.16000  0.01490  1.0000
  Se  Se2       1.0  0.42200  0.16000  0.01490  1.0000
  Se  Se3       1.0  0.75000  0.34000  0.02070  1.0000
  Se  Se4       1.0  0.57800  0.55900  0.06650  1.0000
  Se  Se5       1.0  0.92200  0.55900  0.06650  1.0000
  Se  Se6       1.0  0.25000  0.95300  0.07080  1.0000
  Se  Se7       1.0  0.57800  0.85700  0.13100  1.0000
  Se  Se8       1.0  0.92200  0.85700  0.13100  1.0000
  Se  Se9       1.0  0.25000  0.60500  0.13300  1.0000
  Se  Se10      1.0  0.07820  0.66900  0.23800  1.0000
  Se  Se11      1.0  0.42200  0.66900  0.23800  1.0000
  Se  Se12      1.0  0.75000  0.85500  0.24000  1.0000
  Se  Se13      1.0  0.75000  0.35500  0.26000  1.0000
  Se  Se14      1.0  0.07820  0.16900  0.26200  1.0000
  Se  Se15      1.0  0.42200  0.16900  0.26200  1.0000
  Se  Se16      1.0  0.25000  0.10500  0.36700  1.0000
  Se  Se17      1.0  0.57800  0.35700  0.36900  1.0000
  Se  Se18      1.0  0.92200  0.35700  0.36900  1.0000
  Se  Se19      1.0  0.25000  0.45300  0.42900  1.0000
  Se  Se20      1.0  0.57800  0.05920  0.43300  1.0000
  Se  Se21      1.0  0.92200  0.05920  0.43300  1.0000
  Se  Se22      1.0  0.75000  0.84000  0.47900  1.0000
  Se  Se23      1.0  0.07810  0.66000  0.48500  1.0000
  Se  Se24      1.0  0.42200  0.66000  0.48500  1.0000
  Se  Se25      1.0  0.57800  0.34000  0.51500  1.0000
  Se  Se26      1.0  0.92200  0.34000  0.51500  1.0000
  Se  Se27      1.0  0.25000  0.16000  0.52100  1.0000
  Se  Se28      1.0  0.07810  0.94100  0.56700  1.0000
  Se  Se29      1.0  0.42200  0.94100  0.56700  1.0000
  Se  Se30      1.0  0.75000  0.54700  0.57100  1.0000
  Se  Se31      1.0  0.07850  0.64300  0.63100  1.0000
  Se  Se32      1.0  0.42200  0.64300  0.63100  1.0000
  Se  Se33      1.0  0.75000  0.89500  0.63300  1.0000
  Se  Se34      1.0  0.57800  0.83100  0.73800  1.0000
  Se  Se35      1.0  0.92200  0.83100  0.73800  1.0000
  Se  Se36      1.0  0.25000  0.64500  0.74000  1.0000
  Se  Se37      1.0  0.25000  0.14500  0.76000  1.0000
  Se  Se38      1.0  0.57800  0.33100  0.76200  1.0000
  Se  Se39      1.0  0.92200  0.33100  0.76200  1.0000
  Se  Se40      1.0  0.75000  0.39500  0.86700  1.0000
  Se  Se41      1.0  0.07850  0.14300  0.86900  1.0000
  Se  Se42      1.0  0.42200  0.14300  0.86900  1.0000
  Se  Se43      1.0  0.75000  0.04720  0.92900  1.0000
  Se  Se44      1.0  0.07810  0.44100  0.93300  1.0000
  Se  Se45      1.0  0.42200  0.44100  0.93300  1.0000
  Se  Se46      1.0  0.25000  0.66000  0.97900  1.0000
  Se  Se47      1.0  0.57800  0.84000  0.98500  1.0000
  Se  Se48      1.0  0.92200  0.84000  0.98500  1.0000
