data_image0
_chemical_formula_structural       Ga16O32Sr8
_chemical_formula_sum              "Ga16 O32 Sr8"
_cell_length_a       8.31778
_cell_length_b       8.98247
_cell_length_c       10.6994
_cell_angle_alpha    90
_cell_angle_beta     93.8754
_cell_angle_gamma    90

_space_group_name_H-M_alt    "P 1"
_space_group_IT_number       1

loop_
  _space_group_symop_operation_xyz
  'x, y, z'

loop_
  _atom_site_type_symbol
  _atom_site_label
  _atom_site_symmetry_multiplicity
  _atom_site_fract_x
  _atom_site_fract_y
  _atom_site_fract_z
  _atom_site_occupancy
  Ga  Ga1       1.0  0.69700  0.40700  0.10900  1.0000
  Ga  Ga2       1.0  0.29200  0.39200  0.12200  1.0000
  Ga  Ga3       1.0  0.77700  0.06450  0.12900  1.0000
  Ga  Ga4       1.0  0.17700  0.05480  0.14000  1.0000
  Ga  Ga5       1.0  0.82300  0.55500  0.36000  1.0000
  Ga  Ga6       1.0  0.22300  0.56500  0.37100  1.0000
  Ga  Ga7       1.0  0.70800  0.89200  0.37800  1.0000
  Ga  Ga8       1.0  0.30300  0.90700  0.39100  1.0000
  Ga  Ga9       1.0  0.69700  0.09320  0.60900  1.0000
  Ga  Ga10      1.0  0.29200  0.10800  0.62200  1.0000
  Ga  Ga11      1.0  0.77700  0.43500  0.62900  1.0000
  Ga  Ga12      1.0  0.17700  0.44500  0.64000  1.0000
  Ga  Ga13      1.0  0.82300  0.94500  0.86000  1.0000
  Ga  Ga14      1.0  0.22300  0.93500  0.87100  1.0000
  Ga  Ga15      1.0  0.70800  0.60800  0.87800  1.0000
  Ga  Ga16      1.0  0.30300  0.59300  0.89100  1.0000
  O   O1        1.0  0.26300  0.91300  0.04050  1.0000
  O   O2        1.0  0.21300  0.56500  0.04260  1.0000
  O   O3        1.0  0.48900  0.33800  0.06390  1.0000
  O   O4        1.0  0.14700  0.24400  0.07680  1.0000
  O   O5        1.0  0.97600  0.98500  0.18200  1.0000
  O   O6        1.0  0.71800  0.58300  0.20100  1.0000
  O   O7        1.0  0.77400  0.25000  0.20800  1.0000
  O   O8        1.0  0.64100  0.94400  0.21400  1.0000
  O   O9        1.0  0.35900  0.44400  0.28600  1.0000
  O   O10       1.0  0.22600  0.75000  0.29200  1.0000
  O   O11       1.0  0.28200  0.08280  0.29900  1.0000
  O   O12       1.0  0.02360  0.48500  0.31800  1.0000
  O   O13       1.0  0.85300  0.74400  0.42300  1.0000
  O   O14       1.0  0.51100  0.83800  0.43600  1.0000
  O   O15       1.0  0.78700  0.06460  0.45700  1.0000
  O   O16       1.0  0.73700  0.41300  0.45900  1.0000
  O   O17       1.0  0.26300  0.58700  0.54100  1.0000
  O   O18       1.0  0.21300  0.93500  0.54300  1.0000
  O   O19       1.0  0.48900  0.16200  0.56400  1.0000
  O   O20       1.0  0.14700  0.25600  0.57700  1.0000
  O   O21       1.0  0.97600  0.51500  0.68200  1.0000
  O   O22       1.0  0.71800  0.91700  0.70100  1.0000
  O   O23       1.0  0.77400  0.25000  0.70800  1.0000
  O   O24       1.0  0.64100  0.55600  0.71400  1.0000
  O   O25       1.0  0.35900  0.05610  0.78600  1.0000
  O   O26       1.0  0.22600  0.75000  0.79200  1.0000
  O   O27       1.0  0.28200  0.41700  0.79900  1.0000
  O   O28       1.0  0.02360  0.01550  0.81800  1.0000
  O   O29       1.0  0.85300  0.75600  0.92300  1.0000
  O   O30       1.0  0.51100  0.66200  0.93600  1.0000
  O   O31       1.0  0.78700  0.43500  0.95700  1.0000
  O   O32       1.0  0.73700  0.08750  0.95900  1.0000
  Sr  Sr1       1.0  0.99300  0.71100  0.13100  1.0000
  Sr  Sr2       1.0  0.46300  0.73600  0.15200  1.0000
  Sr  Sr3       1.0  0.53700  0.23600  0.34800  1.0000
  Sr  Sr4       1.0  0.00671  0.21100  0.36900  1.0000
  Sr  Sr5       1.0  0.99300  0.78900  0.63100  1.0000
  Sr  Sr6       1.0  0.46300  0.76400  0.65200  1.0000
  Sr  Sr7       1.0  0.53700  0.26400  0.84800  1.0000
  Sr  Sr8       1.0  0.00671  0.28900  0.86900  1.0000
