data_image0
_chemical_formula_structural       Na16O28Ti10
_chemical_formula_sum              "Na16 O28 Ti10"
_cell_length_a       10.4865
_cell_length_b       8.31612
_cell_length_c       8.49767
_cell_angle_alpha    112.57
_cell_angle_beta     104.151
_cell_angle_gamma    102.136

_space_group_name_H-M_alt    "P 1"
_space_group_IT_number       1

loop_
  _space_group_symop_operation_xyz
  'x, y, z'

loop_
  _atom_site_type_symbol
  _atom_site_label
  _atom_site_symmetry_multiplicity
  _atom_site_fract_x
  _atom_site_fract_y
  _atom_site_fract_z
  _atom_site_occupancy
  Na  Na1       1.0  0.00000  0.00000  0.00000  1.0000
  Na  Na2       1.0  0.10900  0.37400  0.01230  1.0000
  Na  Na3       1.0  0.43500  0.56500  0.12800  1.0000
  Na  Na4       1.0  0.98700  0.55400  0.32400  1.0000
  Na  Na5       1.0  0.82300  0.81500  0.33300  1.0000
  Na  Na6       1.0  0.16800  0.30800  0.37600  1.0000
  Na  Na7       1.0  0.29600  0.70900  0.41700  1.0000
  Na  Na8       1.0  0.38400  0.11300  0.47900  1.0000
  Na  Na9       1.0  0.50000  0.50000  0.50000  1.0000
  Na  Na10      1.0  0.61600  0.88700  0.52100  1.0000
  Na  Na11      1.0  0.70400  0.29100  0.58300  1.0000
  Na  Na12      1.0  0.83200  0.69200  0.62400  1.0000
  Na  Na13      1.0  0.17700  0.18500  0.66700  1.0000
  Na  Na14      1.0  0.01280  0.44600  0.67600  1.0000
  Na  Na15      1.0  0.56500  0.43500  0.87200  1.0000
  Na  Na16      1.0  0.89100  0.62600  0.98800  1.0000
  O   O1        1.0  0.46900  0.27400  0.00896  1.0000
  O   O2        1.0  0.64500  0.08290  0.04790  1.0000
  O   O3        1.0  0.75900  0.44300  0.09080  1.0000
  O   O4        1.0  0.82800  0.89200  0.10300  1.0000
  O   O5        1.0  0.93900  0.24900  0.14000  1.0000
  O   O6        1.0  0.11300  0.67700  0.17600  1.0000
  O   O7        1.0  0.22500  0.04410  0.20200  1.0000
  O   O8        1.0  0.31000  0.41100  0.24400  1.0000
  O   O9        1.0  0.40800  0.85200  0.26200  1.0000
  O   O10       1.0  0.51600  0.21600  0.29700  1.0000
  O   O11       1.0  0.69900  0.01970  0.35100  1.0000
  O   O12       1.0  0.64200  0.60200  0.35600  1.0000
  O   O13       1.0  0.81200  0.38000  0.40200  1.0000
  O   O14       1.0  0.99800  0.17800  0.45400  1.0000
  O   O15       1.0  0.00193  0.82200  0.54600  1.0000
  O   O16       1.0  0.18800  0.62000  0.59800  1.0000
  O   O17       1.0  0.35800  0.39800  0.64400  1.0000
  O   O18       1.0  0.30100  0.98000  0.64900  1.0000
  O   O19       1.0  0.48400  0.78400  0.70300  1.0000
  O   O20       1.0  0.59200  0.14800  0.73800  1.0000
  O   O21       1.0  0.69000  0.58900  0.75600  1.0000
  O   O22       1.0  0.77500  0.95600  0.79800  1.0000
  O   O23       1.0  0.88700  0.32300  0.82400  1.0000
  O   O24       1.0  0.06060  0.75100  0.86000  1.0000
  O   O25       1.0  0.17200  0.10800  0.89700  1.0000
  O   O26       1.0  0.24100  0.55700  0.90900  1.0000
  O   O27       1.0  0.35500  0.91700  0.95200  1.0000
  O   O28       1.0  0.53100  0.72600  0.99100  1.0000
  Ti  Ti1       1.0  0.20900  0.78400  0.07450  1.0000
  Ti  Ti2       1.0  0.32600  0.18900  0.11400  1.0000
  Ti  Ti3       1.0  0.53000  0.96500  0.17700  1.0000
  Ti  Ti4       1.0  0.65500  0.37900  0.22700  1.0000
  Ti  Ti5       1.0  0.85000  0.14600  0.27700  1.0000
  Ti  Ti6       1.0  0.15000  0.85400  0.72300  1.0000
  Ti  Ti7       1.0  0.34500  0.62100  0.77300  1.0000
  Ti  Ti8       1.0  0.47000  0.03520  0.82300  1.0000
  Ti  Ti9       1.0  0.67400  0.81100  0.88600  1.0000
  Ti  Ti10      1.0  0.79100  0.21600  0.92600  1.0000
