data_image0
_chemical_formula_structural       S34Si8Sm12
_chemical_formula_sum              "S34 Si8 Sm12"
_cell_length_a       8.89944
_cell_length_b       9.85847
_cell_length_c       14.1407
_cell_angle_alpha    81.9516
_cell_angle_beta     87.4105
_cell_angle_gamma    89.0193

_space_group_name_H-M_alt    "P 1"
_space_group_IT_number       1

loop_
  _space_group_symop_operation_xyz
  'x, y, z'

loop_
  _atom_site_type_symbol
  _atom_site_label
  _atom_site_symmetry_multiplicity
  _atom_site_fract_x
  _atom_site_fract_y
  _atom_site_fract_z
  _atom_site_occupancy
  S   S1        1.0  0.67800  0.51700  0.04470  1.0000
  S   S2        1.0  0.96300  0.84900  0.04770  1.0000
  S   S3        1.0  0.34200  0.99900  0.05780  1.0000
  S   S4        1.0  0.00766  0.37400  0.11600  1.0000
  S   S5        1.0  0.74500  0.12000  0.14900  1.0000
  S   S6        1.0  0.62000  0.78500  0.16300  1.0000
  S   S7        1.0  0.37000  0.27900  0.16700  1.0000
  S   S8        1.0  0.25100  0.61700  0.17000  1.0000
  S   S9        1.0  0.93800  0.85900  0.28000  1.0000
  S   S10       1.0  0.64500  0.46600  0.29200  1.0000
  S   S11       1.0  0.31400  0.91200  0.29700  1.0000
  S   S12       1.0  0.10900  0.20300  0.34300  1.0000
  S   S13       1.0  0.98600  0.50900  0.37800  1.0000
  S   S14       1.0  0.48900  0.15400  0.39700  1.0000
  S   S15       1.0  0.30300  0.63500  0.45800  1.0000
  S   S16       1.0  0.69800  0.69500  0.45900  1.0000
  S   S17       1.0  0.81600  0.02180  0.46900  1.0000
  S   S18       1.0  0.18400  0.97800  0.53100  1.0000
  S   S19       1.0  0.30200  0.30500  0.54100  1.0000
  S   S20       1.0  0.69700  0.36500  0.54200  1.0000
  S   S21       1.0  0.51100  0.84600  0.60300  1.0000
  S   S22       1.0  0.01360  0.49100  0.62200  1.0000
  S   S23       1.0  0.89100  0.79700  0.65700  1.0000
  S   S24       1.0  0.68600  0.08750  0.70300  1.0000
  S   S25       1.0  0.35500  0.53400  0.70800  1.0000
  S   S26       1.0  0.06160  0.14100  0.72000  1.0000
  S   S27       1.0  0.74900  0.38300  0.83000  1.0000
  S   S28       1.0  0.63000  0.72100  0.83300  1.0000
  S   S29       1.0  0.38000  0.21500  0.83700  1.0000
  S   S30       1.0  0.25500  0.88000  0.85100  1.0000
  S   S31       1.0  0.99200  0.62600  0.88400  1.0000
  S   S32       1.0  0.65800  0.00051  0.94200  1.0000
  S   S33       1.0  0.03720  0.15100  0.95200  1.0000
  S   S34       1.0  0.32200  0.48300  0.95500  1.0000
  Si  Si1       1.0  0.75200  0.94100  0.07750  1.0000
  Si  Si2       1.0  0.23200  0.43900  0.09930  1.0000
  Si  Si3       1.0  0.28000  0.05600  0.39300  1.0000
  Si  Si4       1.0  0.74900  0.49900  0.41700  1.0000
  Si  Si5       1.0  0.25100  0.50100  0.58300  1.0000
  Si  Si6       1.0  0.72000  0.94400  0.60700  1.0000
  Si  Si7       1.0  0.76800  0.56100  0.90100  1.0000
  Si  Si8       1.0  0.24800  0.05940  0.92300  1.0000
  Sm  Sm1       1.0  0.45000  0.73800  0.00187  1.0000
  Sm  Sm2       1.0  0.08750  0.08140  0.16500  1.0000
  Sm  Sm3       1.0  0.89500  0.61600  0.18600  1.0000
  Sm  Sm4       1.0  0.63700  0.93900  0.32100  1.0000
  Sm  Sm5       1.0  0.33500  0.41000  0.34200  1.0000
  Sm  Sm6       1.0  0.01180  0.76600  0.46400  1.0000
  Sm  Sm7       1.0  0.98800  0.23400  0.53600  1.0000
  Sm  Sm8       1.0  0.66500  0.59000  0.65800  1.0000
  Sm  Sm9       1.0  0.36300  0.06060  0.67900  1.0000
  Sm  Sm10      1.0  0.10500  0.38400  0.81400  1.0000
  Sm  Sm11      1.0  0.91300  0.91900  0.83500  1.0000
  Sm  Sm12      1.0  0.55000  0.26200  0.99800  1.0000
