data_image0
_chemical_formula_structural       Cs12Re12Se30
_chemical_formula_sum              "Cs12 Re12 Se30"
_cell_length_a       13.0242
_cell_length_b       13.0242
_cell_length_c       13.0242
_cell_angle_alpha    111.466
_cell_angle_beta     111.466
_cell_angle_gamma    68.5338

_space_group_name_H-M_alt    "P 1"
_space_group_IT_number       1

loop_
  _space_group_symop_operation_xyz
  'x, y, z'

loop_
  _atom_site_type_symbol
  _atom_site_label
  _atom_site_symmetry_multiplicity
  _atom_site_fract_x
  _atom_site_fract_y
  _atom_site_fract_z
  _atom_site_occupancy
  Cs  Cs1       1.0  0.36700  0.20300  0.02890  1.0000
  Cs  Cs2       1.0  0.47100  0.70300  0.13300  1.0000
  Cs  Cs3       1.0  0.02890  0.63300  0.20300  1.0000
  Cs  Cs4       1.0  0.86700  0.47100  0.29700  1.0000
  Cs  Cs5       1.0  0.79700  0.02890  0.36700  1.0000
  Cs  Cs6       1.0  0.29700  0.13300  0.47100  1.0000
  Cs  Cs7       1.0  0.70300  0.86700  0.52900  1.0000
  Cs  Cs8       1.0  0.20300  0.97100  0.63300  1.0000
  Cs  Cs9       1.0  0.13300  0.52900  0.70300  1.0000
  Cs  Cs10      1.0  0.97100  0.36700  0.79700  1.0000
  Cs  Cs11      1.0  0.52900  0.29700  0.86700  1.0000
  Cs  Cs12      1.0  0.63300  0.79700  0.97100  1.0000
  Re  Re1       1.0  0.86600  0.07310  0.04830  1.0000
  Re  Re2       1.0  0.04830  0.13400  0.07310  1.0000
  Re  Re3       1.0  0.07310  0.95200  0.13400  1.0000
  Re  Re4       1.0  0.54800  0.42700  0.36600  1.0000
  Re  Re5       1.0  0.36600  0.45200  0.42700  1.0000
  Re  Re6       1.0  0.42700  0.63400  0.45200  1.0000
  Re  Re7       1.0  0.57300  0.36600  0.54800  1.0000
  Re  Re8       1.0  0.63400  0.54800  0.57300  1.0000
  Re  Re9       1.0  0.45200  0.57300  0.63400  1.0000
  Re  Re10      1.0  0.92700  0.04830  0.86600  1.0000
  Re  Re11      1.0  0.95200  0.86600  0.92700  1.0000
  Re  Re12      1.0  0.13400  0.92700  0.95200  1.0000
  Se  Se1       1.0  0.15400  0.75400  0.01210  1.0000
  Se  Se2       1.0  0.89500  0.89500  0.10500  1.0000
  Se  Se3       1.0  0.68000  0.14600  0.11800  1.0000
  Se  Se4       1.0  0.11800  0.32000  0.14600  1.0000
  Se  Se5       1.0  0.24600  0.01210  0.15400  1.0000
  Se  Se6       1.0  0.61800  0.35400  0.18000  1.0000
  Se  Se7       1.0  0.98800  0.15400  0.24600  1.0000
  Se  Se8       1.0  0.75000  0.75000  0.25000  1.0000
  Se  Se9       1.0  0.34600  0.51200  0.25400  1.0000
  Se  Se10      1.0  0.14600  0.88200  0.32000  1.0000
  Se  Se11      1.0  0.48800  0.25400  0.34600  1.0000
  Se  Se12      1.0  0.18000  0.38200  0.35400  1.0000
  Se  Se13      1.0  0.35400  0.82000  0.38200  1.0000
  Se  Se14      1.0  0.60500  0.60500  0.39500  1.0000
  Se  Se15      1.0  0.74600  0.34600  0.48800  1.0000
  Se  Se16      1.0  0.25400  0.65400  0.51200  1.0000
  Se  Se17      1.0  0.39500  0.39500  0.60500  1.0000
  Se  Se18      1.0  0.64600  0.18000  0.61800  1.0000
  Se  Se19      1.0  0.82000  0.61800  0.64600  1.0000
  Se  Se20      1.0  0.51200  0.74600  0.65400  1.0000
  Se  Se21      1.0  0.85400  0.11800  0.68000  1.0000
  Se  Se22      1.0  0.65400  0.48800  0.74600  1.0000
  Se  Se23      1.0  0.25000  0.25000  0.75000  1.0000
  Se  Se24      1.0  0.01210  0.84600  0.75400  1.0000
  Se  Se25      1.0  0.38200  0.64600  0.82000  1.0000
  Se  Se26      1.0  0.75400  0.98800  0.84600  1.0000
  Se  Se27      1.0  0.88200  0.68000  0.85400  1.0000
  Se  Se28      1.0  0.32000  0.85400  0.88200  1.0000
  Se  Se29      1.0  0.10500  0.10500  0.89500  1.0000
  Se  Se30      1.0  0.84600  0.24600  0.98800  1.0000
