data_image0
_chemical_formula_structural       In16Se32Sr8
_chemical_formula_sum              "In16 Se32 Sr8"
_cell_length_a       13.0004
_cell_length_b       13.0004
_cell_length_c       13.0276
_cell_angle_alpha    105.943
_cell_angle_beta     105.943
_cell_angle_gamma    116.712

_space_group_name_H-M_alt    "P 1"
_space_group_IT_number       1

loop_
  _space_group_symop_operation_xyz
  'x, y, z'

loop_
  _atom_site_type_symbol
  _atom_site_label
  _atom_site_symmetry_multiplicity
  _atom_site_fract_x
  _atom_site_fract_y
  _atom_site_fract_z
  _atom_site_occupancy
  In  In1       1.0  0.13600  0.13700  0.02330  1.0000
  In  In2       1.0  0.38700  0.88600  0.02330  1.0000
  In  In3       1.0  0.96600  0.46600  0.10800  1.0000
  In  In4       1.0  0.64300  0.64200  0.10800  1.0000
  In  In5       1.0  0.53400  0.03440  0.39200  1.0000
  In  In6       1.0  0.35800  0.35700  0.39200  1.0000
  In  In7       1.0  0.11400  0.61300  0.47700  1.0000
  In  In8       1.0  0.86300  0.86400  0.47700  1.0000
  In  In9       1.0  0.13700  0.13600  0.52300  1.0000
  In  In10      1.0  0.88600  0.38700  0.52300  1.0000
  In  In11      1.0  0.64200  0.64300  0.60800  1.0000
  In  In12      1.0  0.46600  0.96600  0.60800  1.0000
  In  In13      1.0  0.35700  0.35800  0.89200  1.0000
  In  In14      1.0  0.03440  0.53400  0.89200  1.0000
  In  In15      1.0  0.61300  0.11400  0.97700  1.0000
  In  In16      1.0  0.86400  0.86300  0.97700  1.0000
  Se  Se1       1.0  0.40800  0.08890  0.00000  1.0000
  Se  Se2       1.0  0.90800  0.08900  0.00000  1.0000
  Se  Se3       1.0  0.09180  0.91100  0.00000  1.0000
  Se  Se4       1.0  0.59200  0.91100  0.00000  1.0000
  Se  Se5       1.0  0.59000  0.40800  0.00022  1.0000
  Se  Se6       1.0  0.91100  0.59300  0.00022  1.0000
  Se  Se7       1.0  0.81800  0.32200  0.17800  1.0000
  Se  Se8       1.0  0.86000  0.85700  0.17800  1.0000
  Se  Se9       1.0  0.35200  0.35500  0.18500  1.0000
  Se  Se10      1.0  0.33300  0.83100  0.18500  1.0000
  Se  Se11      1.0  0.64500  0.64800  0.31500  1.0000
  Se  Se12      1.0  0.16900  0.66700  0.31500  1.0000
  Se  Se13      1.0  0.14300  0.14000  0.32200  1.0000
  Se  Se14      1.0  0.67800  0.18200  0.32200  1.0000
  Se  Se15      1.0  0.40700  0.08950  0.50000  1.0000
  Se  Se16      1.0  0.59200  0.41000  0.50000  1.0000
  Se  Se17      1.0  0.91100  0.09180  0.50000  1.0000
  Se  Se18      1.0  0.08890  0.40800  0.50000  1.0000
  Se  Se19      1.0  0.91100  0.59200  0.50000  1.0000
  Se  Se20      1.0  0.08900  0.90800  0.50000  1.0000
  Se  Se21      1.0  0.40800  0.59000  0.50000  1.0000
  Se  Se22      1.0  0.59300  0.91100  0.50000  1.0000
  Se  Se23      1.0  0.32200  0.81800  0.67800  1.0000
  Se  Se24      1.0  0.85700  0.86000  0.67800  1.0000
  Se  Se25      1.0  0.83100  0.33300  0.68500  1.0000
  Se  Se26      1.0  0.35500  0.35200  0.68500  1.0000
  Se  Se27      1.0  0.66700  0.16900  0.81500  1.0000
  Se  Se28      1.0  0.64800  0.64500  0.81500  1.0000
  Se  Se29      1.0  0.14000  0.14300  0.82200  1.0000
  Se  Se30      1.0  0.18200  0.67800  0.82200  1.0000
  Se  Se31      1.0  0.08950  0.40700  0.00000  1.0000
  Se  Se32      1.0  0.41000  0.59200  0.00000  1.0000
  Sr  Sr1       1.0  0.87500  0.12500  0.25000  1.0000
  Sr  Sr2       1.0  0.62200  0.37800  0.25000  1.0000
  Sr  Sr3       1.0  0.37500  0.62500  0.25000  1.0000
  Sr  Sr4       1.0  0.12800  0.87200  0.25000  1.0000
  Sr  Sr5       1.0  0.87200  0.12800  0.75000  1.0000
  Sr  Sr6       1.0  0.62500  0.37500  0.75000  1.0000
  Sr  Sr7       1.0  0.37800  0.62200  0.75000  1.0000
  Sr  Sr8       1.0  0.12500  0.87500  0.75000  1.0000
