data_image0
_chemical_formula_structural       Ba8Ca8O32Si8
_chemical_formula_sum              "Ba8 Ca8 O32 Si8"
_cell_length_a       11.141
_cell_length_b       11.141
_cell_length_c       7.15265
_cell_angle_alpha    90
_cell_angle_beta     90
_cell_angle_gamma    120

_space_group_name_H-M_alt    "P 1"
_space_group_IT_number       1

loop_
  _space_group_symop_operation_xyz
  'x, y, z'

loop_
  _atom_site_type_symbol
  _atom_site_label
  _atom_site_symmetry_multiplicity
  _atom_site_fract_x
  _atom_site_fract_y
  _atom_site_fract_z
  _atom_site_occupancy
  Ba  Ba1       1.0  0.66700  0.33300  0.14900  1.0000
  Ba  Ba2       1.0  0.83300  0.66700  0.44800  1.0000
  Ba  Ba3       1.0  0.33300  0.16700  0.44800  1.0000
  Ba  Ba4       1.0  0.83300  0.16700  0.44800  1.0000
  Ba  Ba5       1.0  0.33300  0.66700  0.64900  1.0000
  Ba  Ba6       1.0  0.16700  0.33300  0.94800  1.0000
  Ba  Ba7       1.0  0.16700  0.83300  0.94800  1.0000
  Ba  Ba8       1.0  0.66700  0.83300  0.94800  1.0000
  Ca  Ca1       1.0  0.00000  0.00000  0.26200  1.0000
  Ca  Ca2       1.0  0.47100  0.94100  0.28800  1.0000
  Ca  Ca3       1.0  0.05890  0.52900  0.28800  1.0000
  Ca  Ca4       1.0  0.47100  0.52900  0.28800  1.0000
  Ca  Ca5       1.0  0.00000  0.00000  0.76200  1.0000
  Ca  Ca6       1.0  0.52900  0.05890  0.78800  1.0000
  Ca  Ca7       1.0  0.52900  0.47100  0.78800  1.0000
  Ca  Ca8       1.0  0.94100  0.47100  0.78800  1.0000
  O   O1        1.0  0.17300  0.08640  0.03960  1.0000
  O   O2        1.0  0.91400  0.08640  0.03960  1.0000
  O   O3        1.0  0.91400  0.82700  0.03960  1.0000
  O   O4        1.0  0.67300  0.58900  0.09760  1.0000
  O   O5        1.0  0.91600  0.58900  0.09760  1.0000
  O   O6        1.0  0.41100  0.32700  0.09760  1.0000
  O   O7        1.0  0.91600  0.32700  0.09760  1.0000
  O   O8        1.0  0.41100  0.08430  0.09760  1.0000
  O   O9        1.0  0.67300  0.08430  0.09760  1.0000
  O   O10       1.0  0.18700  0.37400  0.28200  1.0000
  O   O11       1.0  0.18700  0.81300  0.28200  1.0000
  O   O12       1.0  0.62600  0.81300  0.28200  1.0000
  O   O13       1.0  0.33300  0.66700  0.29800  1.0000
  O   O14       1.0  0.58700  0.41300  0.48800  1.0000
  O   O15       1.0  0.82700  0.41300  0.48800  1.0000
  O   O16       1.0  0.58700  0.17300  0.48800  1.0000
  O   O17       1.0  0.08640  0.91400  0.54000  1.0000
  O   O18       1.0  0.82700  0.91400  0.54000  1.0000
  O   O19       1.0  0.08640  0.17300  0.54000  1.0000
  O   O20       1.0  0.08430  0.41100  0.59800  1.0000
  O   O21       1.0  0.32700  0.41100  0.59800  1.0000
  O   O22       1.0  0.08430  0.67300  0.59800  1.0000
  O   O23       1.0  0.58900  0.67300  0.59800  1.0000
  O   O24       1.0  0.32700  0.91600  0.59800  1.0000
  O   O25       1.0  0.58900  0.91600  0.59800  1.0000
  O   O26       1.0  0.81300  0.62600  0.78200  1.0000
  O   O27       1.0  0.37400  0.18700  0.78200  1.0000
  O   O28       1.0  0.81300  0.18700  0.78200  1.0000
  O   O29       1.0  0.66700  0.33300  0.79800  1.0000
  O   O30       1.0  0.17300  0.58700  0.98800  1.0000
  O   O31       1.0  0.41300  0.58700  0.98800  1.0000
  O   O32       1.0  0.41300  0.82700  0.98800  1.0000
  Si  Si1       1.0  0.34300  0.17200  0.00329  1.0000
  Si  Si2       1.0  0.82800  0.17200  0.00329  1.0000
  Si  Si3       1.0  0.82800  0.65700  0.00329  1.0000
  Si  Si4       1.0  0.33300  0.66700  0.07220  1.0000
  Si  Si5       1.0  0.17200  0.82800  0.50300  1.0000
  Si  Si6       1.0  0.65700  0.82800  0.50300  1.0000
  Si  Si7       1.0  0.17200  0.34300  0.50300  1.0000
  Si  Si8       1.0  0.66700  0.33300  0.57200  1.0000
