data_image0
_chemical_formula_structural       Al38Co12U4
_chemical_formula_sum              "Al38 Co12 U4"
_cell_length_a       8.14271
_cell_length_b       10.5951
_cell_length_c       10.5951
_cell_angle_alpha    68.8819
_cell_angle_beta     101.428
_cell_angle_gamma    101.428

_space_group_name_H-M_alt    "P 1"
_space_group_IT_number       1

loop_
  _space_group_symop_operation_xyz
  'x, y, z'

loop_
  _atom_site_type_symbol
  _atom_site_label
  _atom_site_symmetry_multiplicity
  _atom_site_fract_x
  _atom_site_fract_y
  _atom_site_fract_z
  _atom_site_occupancy
  Al  Al1       1.0  0.24100  0.50300  0.00175  1.0000
  Al  Al2       1.0  0.95500  0.28000  0.05530  1.0000
  Al  Al3       1.0  0.46700  0.29900  0.06930  1.0000
  Al  Al4       1.0  0.64800  0.08310  0.08310  1.0000
  Al  Al5       1.0  0.18400  0.08990  0.08990  1.0000
  Al  Al6       1.0  0.63700  0.80000  0.14600  1.0000
  Al  Al7       1.0  0.00000  0.83200  0.16800  1.0000
  Al  Al8       1.0  0.05370  0.53300  0.18500  1.0000
  Al  Al9       1.0  0.55100  0.51600  0.18500  1.0000
  Al  Al10      1.0  0.36300  0.85400  0.20000  1.0000
  Al  Al11      1.0  0.95500  0.05530  0.28000  1.0000
  Al  Al12      1.0  0.46700  0.06930  0.29900  1.0000
  Al  Al13      1.0  0.35100  0.56300  0.32800  1.0000
  Al  Al14      1.0  0.84500  0.56600  0.32900  1.0000
  Al  Al15      1.0  0.15500  0.67100  0.43400  1.0000
  Al  Al16      1.0  0.64900  0.67200  0.43700  1.0000
  Al  Al17      1.0  0.94600  0.81500  0.46700  1.0000
  Al  Al18      1.0  0.44900  0.81500  0.48400  1.0000
  Al  Al19      1.0  0.75900  0.99800  0.49700  1.0000
  Al  Al20      1.0  0.24100  0.00175  0.50300  1.0000
  Al  Al21      1.0  0.55100  0.18500  0.51600  1.0000
  Al  Al22      1.0  0.05370  0.18500  0.53300  1.0000
  Al  Al23      1.0  0.35100  0.32800  0.56300  1.0000
  Al  Al24      1.0  0.84500  0.32900  0.56600  1.0000
  Al  Al25      1.0  0.15500  0.43400  0.67100  1.0000
  Al  Al26      1.0  0.64900  0.43700  0.67200  1.0000
  Al  Al27      1.0  0.53300  0.93100  0.70100  1.0000
  Al  Al28      1.0  0.04500  0.94500  0.72000  1.0000
  Al  Al29      1.0  0.63700  0.14600  0.80000  1.0000
  Al  Al30      1.0  0.44900  0.48400  0.81500  1.0000
  Al  Al31      1.0  0.94600  0.46700  0.81500  1.0000
  Al  Al32      1.0  0.00000  0.16800  0.83200  1.0000
  Al  Al33      1.0  0.36300  0.20000  0.85400  1.0000
  Al  Al34      1.0  0.81600  0.91000  0.91000  1.0000
  Al  Al35      1.0  0.35200  0.91700  0.91700  1.0000
  Al  Al36      1.0  0.53300  0.70100  0.93100  1.0000
  Al  Al37      1.0  0.04500  0.72000  0.94500  1.0000
  Al  Al38      1.0  0.75900  0.49700  0.99800  1.0000
  Co  Co1       1.0  0.81100  0.67900  0.07830  1.0000
  Co  Co2       1.0  0.32900  0.68700  0.08160  1.0000
  Co  Co3       1.0  0.67100  0.91800  0.31300  1.0000
  Co  Co4       1.0  0.18900  0.92200  0.32100  1.0000
  Co  Co5       1.0  0.09230  0.43600  0.43600  1.0000
  Co  Co6       1.0  0.59500  0.43900  0.43900  1.0000
  Co  Co7       1.0  0.40500  0.56100  0.56100  1.0000
  Co  Co8       1.0  0.90800  0.56400  0.56400  1.0000
  Co  Co9       1.0  0.81100  0.07830  0.67900  1.0000
  Co  Co10      1.0  0.32900  0.08160  0.68700  1.0000
  Co  Co11      1.0  0.67100  0.31300  0.91800  1.0000
  Co  Co12      1.0  0.18900  0.32100  0.92200  1.0000
  U   U1        1.0  0.25500  0.28200  0.28200  1.0000
  U   U2        1.0  0.77600  0.28200  0.28200  1.0000
  U   U3        1.0  0.22400  0.71800  0.71800  1.0000
  U   U4        1.0  0.74500  0.71800  0.71800  1.0000
