data_image0
_chemical_formula_structural       Co4O4Sn4Te4
_chemical_formula_sum              "Co4 O4 Sn4 Te4"
_cell_length_a       6.26686
_cell_length_b       4.04375
_cell_length_c       13.851
_cell_angle_alpha    90
_cell_angle_beta     90
_cell_angle_gamma    90

_space_group_name_H-M_alt    "P 1"
_space_group_IT_number       1

loop_
  _space_group_symop_operation_xyz
  'x, y, z'

loop_
  _atom_site_type_symbol
  _atom_site_label
  _atom_site_symmetry_multiplicity
  _atom_site_fract_x
  _atom_site_fract_y
  _atom_site_fract_z
  _atom_site_occupancy
  Co  Co1       1.0  0.60400  0.25000  0.21000  1.0000
  Co  Co2       1.0  0.10400  0.25000  0.29000  1.0000
  Co  Co3       1.0  0.89600  0.75000  0.71000  1.0000
  Co  Co4       1.0  0.39600  0.75000  0.79000  1.0000
  O   O1        1.0  0.29200  0.25000  0.17800  1.0000
  O   O2        1.0  0.79200  0.25000  0.32200  1.0000
  O   O3        1.0  0.20800  0.75000  0.67800  1.0000
  O   O4        1.0  0.70800  0.75000  0.82200  1.0000
  Sn  Sn1       1.0  0.25900  0.75000  0.09070  1.0000
  Sn  Sn2       1.0  0.75900  0.75000  0.40900  1.0000
  Sn  Sn3       1.0  0.24100  0.25000  0.59100  1.0000
  Sn  Sn4       1.0  0.74100  0.25000  0.90900  1.0000
  Te  Te1       1.0  0.75800  0.75000  0.10500  1.0000
  Te  Te2       1.0  0.25800  0.75000  0.39500  1.0000
  Te  Te3       1.0  0.74200  0.25000  0.60500  1.0000
  Te  Te4       1.0  0.24200  0.25000  0.89500  1.0000
