data_image0
_chemical_formula_structural       Ba16Li4N28W8
_chemical_formula_sum              "Ba16 Li4 N28 W8"
_cell_length_a       15.6184
_cell_length_b       6.48722
_cell_length_c       10.4661
_cell_angle_alpha    90
_cell_angle_beta     99.1804
_cell_angle_gamma    90

_space_group_name_H-M_alt    "P 1"
_space_group_IT_number       1

loop_
  _space_group_symop_operation_xyz
  'x, y, z'

loop_
  _atom_site_type_symbol
  _atom_site_label
  _atom_site_symmetry_multiplicity
  _atom_site_fract_x
  _atom_site_fract_y
  _atom_site_fract_z
  _atom_site_occupancy
  Ba  Ba1       1.0  0.37900  0.85200  0.07560  1.0000
  Ba  Ba2       1.0  0.92500  0.77200  0.07850  1.0000
  Ba  Ba3       1.0  0.98400  0.27900  0.24300  1.0000
  Ba  Ba4       1.0  0.25000  0.30700  0.25000  1.0000
  Ba  Ba5       1.0  0.75000  0.98900  0.25000  1.0000
  Ba  Ba6       1.0  0.51600  0.27900  0.25700  1.0000
  Ba  Ba7       1.0  0.57500  0.77200  0.42200  1.0000
  Ba  Ba8       1.0  0.12100  0.85200  0.42400  1.0000
  Ba  Ba9       1.0  0.87900  0.14800  0.57600  1.0000
  Ba  Ba10      1.0  0.42500  0.22800  0.57800  1.0000
  Ba  Ba11      1.0  0.48400  0.72100  0.74300  1.0000
  Ba  Ba12      1.0  0.25000  0.01120  0.75000  1.0000
  Ba  Ba13      1.0  0.75000  0.69300  0.75000  1.0000
  Ba  Ba14      1.0  0.01570  0.72100  0.75700  1.0000
  Ba  Ba15      1.0  0.07510  0.22800  0.92200  1.0000
  Ba  Ba16      1.0  0.62100  0.14800  0.92400  1.0000
  Li  Li1       1.0  0.76100  0.46200  0.12500  1.0000
  Li  Li2       1.0  0.73900  0.46200  0.37500  1.0000
  Li  Li3       1.0  0.26100  0.53800  0.62500  1.0000
  Li  Li4       1.0  0.23900  0.53800  0.87500  1.0000
  N   N1        1.0  0.50000  0.50000  0.00000  1.0000
  N   N2        1.0  0.32400  0.28000  0.03370  1.0000
  N   N3        1.0  0.80700  0.18500  0.05170  1.0000
  N   N4        1.0  0.09050  0.52900  0.11000  1.0000
  N   N5        1.0  0.08260  0.98900  0.14000  1.0000
  N   N6        1.0  0.56600  0.92500  0.14100  1.0000
  N   N7        1.0  0.65300  0.52700  0.22200  1.0000
  N   N8        1.0  0.25000  0.75800  0.25000  1.0000
  N   N9        1.0  0.84700  0.52700  0.27800  1.0000
  N   N10       1.0  0.93400  0.92500  0.35900  1.0000
  N   N11       1.0  0.41700  0.98900  0.36000  1.0000
  N   N12       1.0  0.41000  0.52900  0.39000  1.0000
  N   N13       1.0  0.69300  0.18500  0.44800  1.0000
  N   N14       1.0  0.17600  0.28000  0.46600  1.0000
  N   N15       1.0  0.00000  0.50000  0.50000  1.0000
  N   N16       1.0  0.82400  0.72000  0.53400  1.0000
  N   N17       1.0  0.30700  0.81500  0.55200  1.0000
  N   N18       1.0  0.59000  0.47100  0.61000  1.0000
  N   N19       1.0  0.58300  0.01150  0.64000  1.0000
  N   N20       1.0  0.06580  0.07540  0.64100  1.0000
  N   N21       1.0  0.15300  0.47300  0.72200  1.0000
  N   N22       1.0  0.75000  0.24200  0.75000  1.0000
  N   N23       1.0  0.34700  0.47300  0.77800  1.0000
  N   N24       1.0  0.43400  0.07540  0.85900  1.0000
  N   N25       1.0  0.91700  0.01150  0.86000  1.0000
  N   N26       1.0  0.91000  0.47100  0.89000  1.0000
  N   N27       1.0  0.19300  0.81500  0.94800  1.0000
  N   N28       1.0  0.67600  0.72000  0.96600  1.0000
  W   W1        1.0  0.59800  0.67000  0.07910  1.0000
  W   W2        1.0  0.15400  0.77200  0.10700  1.0000
  W   W3        1.0  0.34600  0.77200  0.39300  1.0000
  W   W4        1.0  0.90200  0.67000  0.42100  1.0000
  W   W5        1.0  0.09810  0.33000  0.57900  1.0000
  W   W6        1.0  0.65400  0.22800  0.60700  1.0000
  W   W7        1.0  0.84600  0.22800  0.89300  1.0000
  W   W8        1.0  0.40200  0.33000  0.92100  1.0000
