data_image0
_chemical_formula_structural       Ni2O2Pd2Te2
_chemical_formula_sum              "Ni2 O2 Pd2 Te2"
_cell_length_a       4.84621
_cell_length_b       4.84621
_cell_length_c       6.35682
_cell_angle_alpha    90
_cell_angle_beta     90
_cell_angle_gamma    90

_space_group_name_H-M_alt    "P 1"
_space_group_IT_number       1

loop_
  _space_group_symop_operation_xyz
  'x, y, z'

loop_
  _atom_site_type_symbol
  _atom_site_label
  _atom_site_symmetry_multiplicity
  _atom_site_fract_x
  _atom_site_fract_y
  _atom_site_fract_z
  _atom_site_occupancy
  Ni  Ni1       1.0  0.25000  0.25000  0.30400  1.0000
  Ni  Ni2       1.0  0.75000  0.75000  0.69600  1.0000
  O   O1        1.0  0.25000  0.25000  0.02690  1.0000
  O   O2        1.0  0.75000  0.75000  0.97300  1.0000
  Pd  Pd1       1.0  0.75000  0.75000  0.27900  1.0000
  Pd  Pd2       1.0  0.25000  0.25000  0.72100  1.0000
  Te  Te1       1.0  0.75000  0.25000  0.50000  1.0000
  Te  Te2       1.0  0.25000  0.75000  0.50000  1.0000
