data_image0
_chemical_formula_structural       Al8B8O32Sr8
_chemical_formula_sum              "Al8 B8 O32 Sr8"
_cell_length_a       14.8935
_cell_length_b       8.91588
_cell_length_c       5.68236
_cell_angle_alpha    90
_cell_angle_beta     90
_cell_angle_gamma    90

_space_group_name_H-M_alt    "P 1"
_space_group_IT_number       1

loop_
  _space_group_symop_operation_xyz
  'x, y, z'

loop_
  _atom_site_type_symbol
  _atom_site_label
  _atom_site_symmetry_multiplicity
  _atom_site_fract_x
  _atom_site_fract_y
  _atom_site_fract_z
  _atom_site_occupancy
  Al  Al1       1.0  0.05430  0.24300  0.13800  1.0000
  Al  Al2       1.0  0.44600  0.25700  0.13800  1.0000
  Al  Al3       1.0  0.94600  0.74300  0.36200  1.0000
  Al  Al4       1.0  0.55400  0.75700  0.36200  1.0000
  Al  Al5       1.0  0.44600  0.24300  0.63800  1.0000
  Al  Al6       1.0  0.05430  0.25700  0.63800  1.0000
  Al  Al7       1.0  0.55400  0.74300  0.86200  1.0000
  Al  Al8       1.0  0.94600  0.75700  0.86200  1.0000
  B   B1        1.0  0.64500  0.52200  0.11800  1.0000
  B   B2        1.0  0.85500  0.97800  0.11800  1.0000
  B   B3        1.0  0.35500  0.02150  0.38200  1.0000
  B   B4        1.0  0.14500  0.47800  0.38200  1.0000
  B   B5        1.0  0.85500  0.52200  0.61800  1.0000
  B   B6        1.0  0.64500  0.97800  0.61800  1.0000
  B   B7        1.0  0.14500  0.02150  0.88200  1.0000
  B   B8        1.0  0.35500  0.47800  0.88200  1.0000
  O   O1        1.0  0.12200  0.08340  0.09770  1.0000
  O   O2        1.0  0.37800  0.41700  0.09770  1.0000
  O   O3        1.0  0.01320  0.72900  0.11100  1.0000
  O   O4        1.0  0.48700  0.77100  0.11100  1.0000
  O   O5        1.0  0.81200  0.11300  0.12600  1.0000
  O   O6        1.0  0.68800  0.38700  0.12600  1.0000
  O   O7        1.0  0.37700  0.09620  0.17500  1.0000
  O   O8        1.0  0.12300  0.40400  0.17500  1.0000
  O   O9        1.0  0.62300  0.59600  0.32500  1.0000
  O   O10       1.0  0.87700  0.90400  0.32500  1.0000
  O   O11       1.0  0.18800  0.61300  0.37400  1.0000
  O   O12       1.0  0.31200  0.88700  0.37400  1.0000
  O   O13       1.0  0.98700  0.22900  0.38900  1.0000
  O   O14       1.0  0.51300  0.27100  0.38900  1.0000
  O   O15       1.0  0.87800  0.58300  0.40200  1.0000
  O   O16       1.0  0.62200  0.91700  0.40200  1.0000
  O   O17       1.0  0.37800  0.08340  0.59800  1.0000
  O   O18       1.0  0.12200  0.41700  0.59800  1.0000
  O   O19       1.0  0.48700  0.72900  0.61100  1.0000
  O   O20       1.0  0.01320  0.77100  0.61100  1.0000
  O   O21       1.0  0.68800  0.11300  0.62600  1.0000
  O   O22       1.0  0.81200  0.38700  0.62600  1.0000
  O   O23       1.0  0.12300  0.09620  0.67500  1.0000
  O   O24       1.0  0.37700  0.40400  0.67500  1.0000
  O   O25       1.0  0.87700  0.59600  0.82500  1.0000
  O   O26       1.0  0.62300  0.90400  0.82500  1.0000
  O   O27       1.0  0.31200  0.61300  0.87400  1.0000
  O   O28       1.0  0.18800  0.88700  0.87400  1.0000
  O   O29       1.0  0.51300  0.22900  0.88900  1.0000
  O   O30       1.0  0.98700  0.27100  0.88900  1.0000
  O   O31       1.0  0.62200  0.58300  0.90200  1.0000
  O   O32       1.0  0.87800  0.91700  0.90200  1.0000
  Sr  Sr1       1.0  0.64700  0.11600  0.11000  1.0000
  Sr  Sr2       1.0  0.85300  0.38400  0.11000  1.0000
  Sr  Sr3       1.0  0.35300  0.61600  0.39000  1.0000
  Sr  Sr4       1.0  0.14700  0.88400  0.39000  1.0000
  Sr  Sr5       1.0  0.85300  0.11600  0.61000  1.0000
  Sr  Sr6       1.0  0.64700  0.38400  0.61000  1.0000
  Sr  Sr7       1.0  0.14700  0.61600  0.89000  1.0000
  Sr  Sr8       1.0  0.35300  0.88400  0.89000  1.0000
