data_image0
_chemical_formula_structural       As16F24S16
_chemical_formula_sum              "As16 F24 S16"
_cell_length_a       19.4556
_cell_length_b       5.67059
_cell_length_c       9.17059
_cell_angle_alpha    90
_cell_angle_beta     90
_cell_angle_gamma    90

_space_group_name_H-M_alt    "P 1"
_space_group_IT_number       1

loop_
  _space_group_symop_operation_xyz
  'x, y, z'

loop_
  _atom_site_type_symbol
  _atom_site_label
  _atom_site_symmetry_multiplicity
  _atom_site_fract_x
  _atom_site_fract_y
  _atom_site_fract_z
  _atom_site_occupancy
  As  As1       1.0  0.17600  0.00437  0.11300  1.0000
  As  As2       1.0  0.67600  0.99600  0.11300  1.0000
  As  As3       1.0  0.00445  0.06010  0.25000  1.0000
  As  As4       1.0  0.83900  0.48500  0.25000  1.0000
  As  As5       1.0  0.33900  0.51500  0.25000  1.0000
  As  As6       1.0  0.50400  0.94000  0.25000  1.0000
  As  As7       1.0  0.17600  0.00437  0.38700  1.0000
  As  As8       1.0  0.67600  0.99600  0.38700  1.0000
  As  As9       1.0  0.32400  0.00437  0.61300  1.0000
  As  As10      1.0  0.82400  0.99600  0.61300  1.0000
  As  As11      1.0  0.49600  0.06010  0.75000  1.0000
  As  As12      1.0  0.66100  0.48500  0.75000  1.0000
  As  As13      1.0  0.16100  0.51500  0.75000  1.0000
  As  As14      1.0  0.99600  0.94000  0.75000  1.0000
  As  As15      1.0  0.32400  0.00437  0.88700  1.0000
  As  As16      1.0  0.82400  0.99600  0.88700  1.0000
  F   F1        1.0  0.89200  0.36400  0.11300  1.0000
  F   F2        1.0  0.39200  0.63600  0.11300  1.0000
  F   F3        1.0  0.28400  0.39600  0.11500  1.0000
  F   F4        1.0  0.78400  0.60400  0.11500  1.0000
  F   F5        1.0  0.78900  0.21900  0.25000  1.0000
  F   F6        1.0  0.38700  0.25100  0.25000  1.0000
  F   F7        1.0  0.88700  0.74900  0.25000  1.0000
  F   F8        1.0  0.28900  0.78100  0.25000  1.0000
  F   F9        1.0  0.28400  0.39600  0.38500  1.0000
  F   F10       1.0  0.78400  0.60400  0.38500  1.0000
  F   F11       1.0  0.89200  0.36400  0.38700  1.0000
  F   F12       1.0  0.39200  0.63600  0.38700  1.0000
  F   F13       1.0  0.60800  0.36400  0.61300  1.0000
  F   F14       1.0  0.10800  0.63600  0.61300  1.0000
  F   F15       1.0  0.21600  0.39600  0.61500  1.0000
  F   F16       1.0  0.71600  0.60400  0.61500  1.0000
  F   F17       1.0  0.71100  0.21900  0.75000  1.0000
  F   F18       1.0  0.11300  0.25100  0.75000  1.0000
  F   F19       1.0  0.61300  0.74900  0.75000  1.0000
  F   F20       1.0  0.21100  0.78100  0.75000  1.0000
  F   F21       1.0  0.21600  0.39600  0.88500  1.0000
  F   F22       1.0  0.71600  0.60400  0.88500  1.0000
  F   F23       1.0  0.60800  0.36400  0.88700  1.0000
  F   F24       1.0  0.10800  0.63600  0.88700  1.0000
  S   S1        1.0  0.07450  0.15500  0.06270  1.0000
  S   S2        1.0  0.57500  0.84500  0.06270  1.0000
  S   S3        1.0  0.53400  0.33100  0.25000  1.0000
  S   S4        1.0  0.63800  0.33200  0.25000  1.0000
  S   S5        1.0  0.13800  0.66800  0.25000  1.0000
  S   S6        1.0  0.03410  0.66900  0.25000  1.0000
  S   S7        1.0  0.07450  0.15500  0.43700  1.0000
  S   S8        1.0  0.57500  0.84500  0.43700  1.0000
  S   S9        1.0  0.42500  0.15500  0.56300  1.0000
  S   S10       1.0  0.92500  0.84500  0.56300  1.0000
  S   S11       1.0  0.96600  0.33100  0.75000  1.0000
  S   S12       1.0  0.86200  0.33200  0.75000  1.0000
  S   S13       1.0  0.36200  0.66800  0.75000  1.0000
  S   S14       1.0  0.46600  0.66900  0.75000  1.0000
  S   S15       1.0  0.42500  0.15500  0.93700  1.0000
  S   S16       1.0  0.92500  0.84500  0.93700  1.0000
