data_image0
_chemical_formula_structural       H24K24Pd8
_chemical_formula_sum              "H24 K24 Pd8"
_cell_length_a       10.7037
_cell_length_b       10.7037
_cell_length_c       10.2252
_cell_angle_alpha    90
_cell_angle_beta     90
_cell_angle_gamma    90

_space_group_name_H-M_alt    "P 1"
_space_group_IT_number       1

loop_
  _space_group_symop_operation_xyz
  'x, y, z'

loop_
  _atom_site_type_symbol
  _atom_site_label
  _atom_site_symmetry_multiplicity
  _atom_site_fract_x
  _atom_site_fract_y
  _atom_site_fract_z
  _atom_site_occupancy
  H   H1        1.0  0.11200  0.11200  0.00000  1.0000
  H   H2        1.0  0.50000  0.15700  0.00000  1.0000
  H   H3        1.0  0.84300  0.50000  0.00000  1.0000
  H   H4        1.0  0.15700  0.50000  0.00000  1.0000
  H   H5        1.0  0.50000  0.84300  0.00000  1.0000
  H   H6        1.0  0.88800  0.88800  0.00000  1.0000
  H   H7        1.0  0.50000  0.50000  0.16600  1.0000
  H   H8        1.0  0.75500  0.24500  0.24500  1.0000
  H   H9        1.0  0.24500  0.75500  0.24500  1.0000
  H   H10       1.0  0.25500  0.25500  0.25500  1.0000
  H   H11       1.0  0.74500  0.74500  0.25500  1.0000
  H   H12       1.0  0.00000  0.00000  0.33400  1.0000
  H   H13       1.0  0.34300  0.00011  0.50000  1.0000
  H   H14       1.0  0.00011  0.34300  0.50000  1.0000
  H   H15       1.0  0.61200  0.38800  0.50000  1.0000
  H   H16       1.0  0.38800  0.61200  0.50000  1.0000
  H   H17       1.0  0.00000  0.65700  0.50000  1.0000
  H   H18       1.0  0.65700  0.00000  0.50000  1.0000
  H   H19       1.0  0.00000  0.00000  0.66600  1.0000
  H   H20       1.0  0.25500  0.25500  0.74500  1.0000
  H   H21       1.0  0.74500  0.74500  0.74500  1.0000
  H   H22       1.0  0.75500  0.24500  0.75500  1.0000
  H   H23       1.0  0.24500  0.75500  0.75500  1.0000
  H   H24       1.0  0.50000  0.50000  0.83400  1.0000
  K   K1        1.0  0.29200  0.29200  0.00000  1.0000
  K   K2        1.0  0.70800  0.29200  0.00000  1.0000
  K   K3        1.0  0.29200  0.70800  0.00000  1.0000
  K   K4        1.0  0.70800  0.70800  0.00000  1.0000
  K   K5        1.0  0.25100  0.00414  0.21300  1.0000
  K   K6        1.0  0.00414  0.25100  0.21300  1.0000
  K   K7        1.0  0.99600  0.74900  0.21300  1.0000
  K   K8        1.0  0.74900  0.99600  0.21300  1.0000
  K   K9        1.0  0.50400  0.24900  0.28700  1.0000
  K   K10       1.0  0.75100  0.49600  0.28700  1.0000
  K   K11       1.0  0.24900  0.50400  0.28700  1.0000
  K   K12       1.0  0.49600  0.75100  0.28700  1.0000
  K   K13       1.0  0.20800  0.20800  0.50000  1.0000
  K   K14       1.0  0.79200  0.20800  0.50000  1.0000
  K   K15       1.0  0.20800  0.79200  0.50000  1.0000
  K   K16       1.0  0.79200  0.79200  0.50000  1.0000
  K   K17       1.0  0.50400  0.24900  0.71300  1.0000
  K   K18       1.0  0.75100  0.49600  0.71300  1.0000
  K   K19       1.0  0.24900  0.50400  0.71300  1.0000
  K   K20       1.0  0.49600  0.75100  0.71300  1.0000
  K   K21       1.0  0.25100  0.00414  0.78700  1.0000
  K   K22       1.0  0.00414  0.25100  0.78700  1.0000
  K   K23       1.0  0.99600  0.74900  0.78700  1.0000
  K   K24       1.0  0.74900  0.99600  0.78700  1.0000
  Pd  Pd1       1.0  0.00000  0.00000  0.00000  1.0000
  Pd  Pd2       1.0  0.50000  0.00000  0.00000  1.0000
  Pd  Pd3       1.0  0.00000  0.50000  0.00000  1.0000
  Pd  Pd4       1.0  0.50000  0.50000  0.00000  1.0000
  Pd  Pd5       1.0  0.00000  0.00000  0.50000  1.0000
  Pd  Pd6       1.0  0.50000  0.00000  0.50000  1.0000
  Pd  Pd7       1.0  0.00000  0.50000  0.50000  1.0000
  Pd  Pd8       1.0  0.50000  0.50000  0.50000  1.0000
