data_image0
_chemical_formula_structural       Ga16Pb8Se32
_chemical_formula_sum              "Ga16 Pb8 Se32"
_cell_length_a       12.6804
_cell_length_b       12.6804
_cell_length_c       12.5703
_cell_angle_alpha    105.068
_cell_angle_beta     105.068
_cell_angle_gamma    118.986

_space_group_name_H-M_alt    "P 1"
_space_group_IT_number       1

loop_
  _space_group_symop_operation_xyz
  'x, y, z'

loop_
  _atom_site_type_symbol
  _atom_site_label
  _atom_site_symmetry_multiplicity
  _atom_site_fract_x
  _atom_site_fract_y
  _atom_site_fract_z
  _atom_site_occupancy
  Ga  Ga1       1.0  0.13500  0.13500  0.02390  1.0000
  Ga  Ga2       1.0  0.38900  0.88900  0.02390  1.0000
  Ga  Ga3       1.0  0.96900  0.47000  0.10800  1.0000
  Ga  Ga4       1.0  0.63900  0.63800  0.10800  1.0000
  Ga  Ga5       1.0  0.53000  0.03080  0.39200  1.0000
  Ga  Ga6       1.0  0.36200  0.36100  0.39200  1.0000
  Ga  Ga7       1.0  0.11100  0.61100  0.47600  1.0000
  Ga  Ga8       1.0  0.86500  0.86500  0.47600  1.0000
  Ga  Ga9       1.0  0.13500  0.13500  0.52400  1.0000
  Ga  Ga10      1.0  0.88900  0.38900  0.52400  1.0000
  Ga  Ga11      1.0  0.63800  0.63900  0.60800  1.0000
  Ga  Ga12      1.0  0.47000  0.96900  0.60800  1.0000
  Ga  Ga13      1.0  0.36100  0.36200  0.89200  1.0000
  Ga  Ga14      1.0  0.03080  0.53000  0.89200  1.0000
  Ga  Ga15      1.0  0.61100  0.11100  0.97600  1.0000
  Ga  Ga16      1.0  0.86500  0.86500  0.97600  1.0000
  Pb  Pb1       1.0  0.87500  0.12500  0.25000  1.0000
  Pb  Pb2       1.0  0.62300  0.37700  0.25000  1.0000
  Pb  Pb3       1.0  0.37500  0.62500  0.25000  1.0000
  Pb  Pb4       1.0  0.12700  0.87300  0.25000  1.0000
  Pb  Pb5       1.0  0.87300  0.12700  0.75000  1.0000
  Pb  Pb6       1.0  0.62500  0.37500  0.75000  1.0000
  Pb  Pb7       1.0  0.37700  0.62300  0.75000  1.0000
  Pb  Pb8       1.0  0.12500  0.87500  0.75000  1.0000
  Se  Se1       1.0  0.91400  0.08440  0.00010  1.0000
  Se  Se2       1.0  0.58600  0.91600  0.00010  1.0000
  Se  Se3       1.0  0.08460  0.41300  0.00075  1.0000
  Se  Se4       1.0  0.41600  0.58700  0.00075  1.0000
  Se  Se5       1.0  0.81400  0.31700  0.16300  1.0000
  Se  Se6       1.0  0.84900  0.84600  0.16300  1.0000
  Se  Se7       1.0  0.34400  0.34500  0.18800  1.0000
  Se  Se8       1.0  0.34300  0.84300  0.18800  1.0000
  Se  Se9       1.0  0.65500  0.65600  0.31200  1.0000
  Se  Se10      1.0  0.15700  0.65700  0.31200  1.0000
  Se  Se11      1.0  0.15400  0.15100  0.33700  1.0000
  Se  Se12      1.0  0.68300  0.18600  0.33700  1.0000
  Se  Se13      1.0  0.41300  0.58400  0.49900  1.0000
  Se  Se14      1.0  0.58700  0.91500  0.49900  1.0000
  Se  Se15      1.0  0.91600  0.08590  0.50000  1.0000
  Se  Se16      1.0  0.08430  0.41400  0.50000  1.0000
  Se  Se17      1.0  0.91600  0.58600  0.50000  1.0000
  Se  Se18      1.0  0.08440  0.91400  0.50000  1.0000
  Se  Se19      1.0  0.41300  0.08460  0.50100  1.0000
  Se  Se20      1.0  0.58700  0.41600  0.50100  1.0000
  Se  Se21      1.0  0.31700  0.81400  0.66300  1.0000
  Se  Se22      1.0  0.84600  0.84900  0.66300  1.0000
  Se  Se23      1.0  0.84300  0.34300  0.68800  1.0000
  Se  Se24      1.0  0.34500  0.34400  0.68800  1.0000
  Se  Se25      1.0  0.65700  0.15700  0.81200  1.0000
  Se  Se26      1.0  0.65600  0.65500  0.81200  1.0000
  Se  Se27      1.0  0.15100  0.15400  0.83700  1.0000
  Se  Se28      1.0  0.18600  0.68300  0.83700  1.0000
  Se  Se29      1.0  0.58400  0.41300  0.99900  1.0000
  Se  Se30      1.0  0.91500  0.58700  0.99900  1.0000
  Se  Se31      1.0  0.41400  0.08430  0.00000  1.0000
  Se  Se32      1.0  0.08590  0.91600  0.00000  1.0000
