data_image0
_chemical_formula_structural       Mo8O36Sb4Y4
_chemical_formula_sum              "Mo8 O36 Sb4 Y4"
_cell_length_a       9.49718
_cell_length_b       9.49718
_cell_length_c       10.6342
_cell_angle_alpha    112.429
_cell_angle_beta     112.429
_cell_angle_gamma    94.423

_space_group_name_H-M_alt    "P 1"
_space_group_IT_number       1

loop_
  _space_group_symop_operation_xyz
  'x, y, z'

loop_
  _atom_site_type_symbol
  _atom_site_label
  _atom_site_symmetry_multiplicity
  _atom_site_fract_x
  _atom_site_fract_y
  _atom_site_fract_z
  _atom_site_occupancy
  Mo  Mo1       1.0  0.04750  0.26200  0.03260  1.0000
  Mo  Mo2       1.0  0.43500  0.06210  0.19900  1.0000
  Mo  Mo3       1.0  0.93800  0.56500  0.30100  1.0000
  Mo  Mo4       1.0  0.73800  0.95200  0.46700  1.0000
  Mo  Mo5       1.0  0.26200  0.04750  0.53300  1.0000
  Mo  Mo6       1.0  0.06210  0.43500  0.69900  1.0000
  Mo  Mo7       1.0  0.56500  0.93800  0.80100  1.0000
  Mo  Mo8       1.0  0.95200  0.73800  0.96700  1.0000
  O   O1        1.0  0.30900  0.97700  0.00258  1.0000
  O   O2        1.0  0.13500  0.70000  0.06080  1.0000
  O   O3        1.0  0.22600  0.40000  0.07710  1.0000
  O   O4        1.0  0.94000  0.91000  0.09920  1.0000
  O   O5        1.0  0.46200  0.57700  0.10400  1.0000
  O   O6        1.0  0.05220  0.22800  0.18800  1.0000
  O   O7        1.0  0.79100  0.64600  0.20100  1.0000
  O   O8        1.0  0.62200  0.15900  0.23600  1.0000
  O   O9        1.0  0.09060  0.54700  0.24200  1.0000
  O   O10       1.0  0.45300  0.90900  0.25800  1.0000
  O   O11       1.0  0.84100  0.37800  0.26400  1.0000
  O   O12       1.0  0.35400  0.20900  0.29900  1.0000
  O   O13       1.0  0.77200  0.94800  0.31200  1.0000
  O   O14       1.0  0.42300  0.53800  0.39600  1.0000
  O   O15       1.0  0.09020  0.06020  0.40100  1.0000
  O   O16       1.0  0.60000  0.77400  0.42300  1.0000
  O   O17       1.0  0.30000  0.86500  0.43900  1.0000
  O   O18       1.0  0.02330  0.69100  0.49700  1.0000
  O   O19       1.0  0.97700  0.30900  0.50300  1.0000
  O   O20       1.0  0.70000  0.13500  0.56100  1.0000
  O   O21       1.0  0.40000  0.22600  0.57700  1.0000
  O   O22       1.0  0.91000  0.94000  0.59900  1.0000
  O   O23       1.0  0.57700  0.46200  0.60400  1.0000
  O   O24       1.0  0.22800  0.05220  0.68800  1.0000
  O   O25       1.0  0.64600  0.79100  0.70100  1.0000
  O   O26       1.0  0.15900  0.62200  0.73600  1.0000
  O   O27       1.0  0.54700  0.09060  0.74200  1.0000
  O   O28       1.0  0.90900  0.45300  0.75800  1.0000
  O   O29       1.0  0.37800  0.84100  0.76400  1.0000
  O   O30       1.0  0.20900  0.35400  0.79900  1.0000
  O   O31       1.0  0.94800  0.77200  0.81200  1.0000
  O   O32       1.0  0.53800  0.42300  0.89600  1.0000
  O   O33       1.0  0.06020  0.09010  0.90100  1.0000
  O   O34       1.0  0.77400  0.60000  0.92300  1.0000
  O   O35       1.0  0.86500  0.30000  0.93900  1.0000
  O   O36       1.0  0.69100  0.02330  0.99700  1.0000
  Sb  Sb1       1.0  0.61000  0.65800  0.03020  1.0000
  Sb  Sb2       1.0  0.34200  0.39000  0.47000  1.0000
  Sb  Sb3       1.0  0.65800  0.61000  0.53000  1.0000
  Sb  Sb4       1.0  0.39000  0.34200  0.97000  1.0000
  Y   Y1        1.0  0.87300  0.12700  0.25000  1.0000
  Y   Y2        1.0  0.33000  0.67000  0.25000  1.0000
  Y   Y3        1.0  0.67000  0.33000  0.75000  1.0000
  Y   Y4        1.0  0.12700  0.87300  0.75000  1.0000
