data_image0
_chemical_formula_structural       Br8Cl4Hg24I4S16
_chemical_formula_sum              "Br8 Cl4 Hg24 I4 S16"
_cell_length_a       13.2085
_cell_length_b       13.2846
_cell_length_c       9.61334
_cell_angle_alpha    90
_cell_angle_beta     90
_cell_angle_gamma    90

_space_group_name_H-M_alt    "P 1"
_space_group_IT_number       1

loop_
  _space_group_symop_operation_xyz
  'x, y, z'

loop_
  _atom_site_type_symbol
  _atom_site_label
  _atom_site_symmetry_multiplicity
  _atom_site_fract_x
  _atom_site_fract_y
  _atom_site_fract_z
  _atom_site_occupancy
  Br  Br1       1.0  0.22000  0.21700  0.25000  1.0000
  Br  Br2       1.0  0.72900  0.26900  0.25000  1.0000
  Br  Br3       1.0  0.28000  0.71700  0.25000  1.0000
  Br  Br4       1.0  0.77100  0.76900  0.25000  1.0000
  Br  Br5       1.0  0.22900  0.23100  0.75000  1.0000
  Br  Br6       1.0  0.72000  0.28300  0.75000  1.0000
  Br  Br7       1.0  0.27100  0.73100  0.75000  1.0000
  Br  Br8       1.0  0.78000  0.78300  0.75000  1.0000
  Cl  Cl1       1.0  0.50200  0.49500  0.25000  1.0000
  Cl  Cl2       1.0  0.99800  0.99500  0.25000  1.0000
  Cl  Cl3       1.0  0.00194  0.00480  0.75000  1.0000
  Cl  Cl4       1.0  0.49800  0.50500  0.75000  1.0000
  Hg  Hg1       1.0  0.62100  0.15400  0.00929  1.0000
  Hg  Hg2       1.0  0.87900  0.65400  0.00929  1.0000
  Hg  Hg3       1.0  0.84700  0.38200  0.01360  1.0000
  Hg  Hg4       1.0  0.65300  0.88200  0.01360  1.0000
  Hg  Hg5       1.0  0.97400  0.19100  0.25000  1.0000
  Hg  Hg6       1.0  0.30000  0.47500  0.25000  1.0000
  Hg  Hg7       1.0  0.52600  0.69100  0.25000  1.0000
  Hg  Hg8       1.0  0.20000  0.97500  0.25000  1.0000
  Hg  Hg9       1.0  0.84700  0.38200  0.48600  1.0000
  Hg  Hg10      1.0  0.65300  0.88200  0.48600  1.0000
  Hg  Hg11      1.0  0.62100  0.15400  0.49100  1.0000
  Hg  Hg12      1.0  0.87900  0.65400  0.49100  1.0000
  Hg  Hg13      1.0  0.12100  0.34600  0.50900  1.0000
  Hg  Hg14      1.0  0.37900  0.84600  0.50900  1.0000
  Hg  Hg15      1.0  0.34700  0.11800  0.51400  1.0000
  Hg  Hg16      1.0  0.15300  0.61800  0.51400  1.0000
  Hg  Hg17      1.0  0.80000  0.02460  0.75000  1.0000
  Hg  Hg18      1.0  0.47400  0.30900  0.75000  1.0000
  Hg  Hg19      1.0  0.70000  0.52500  0.75000  1.0000
  Hg  Hg20      1.0  0.02630  0.80900  0.75000  1.0000
  Hg  Hg21      1.0  0.34700  0.11800  0.98600  1.0000
  Hg  Hg22      1.0  0.15300  0.61800  0.98600  1.0000
  Hg  Hg23      1.0  0.12100  0.34600  0.99100  1.0000
  Hg  Hg24      1.0  0.37900  0.84600  0.99100  1.0000
  I   I1        1.0  0.50600  0.00743  0.25000  1.0000
  I   I2        1.0  0.99400  0.50700  0.25000  1.0000
  I   I3        1.0  0.00627  0.49300  0.75000  1.0000
  I   I4        1.0  0.49400  0.99300  0.75000  1.0000
  S   S1        1.0  0.76000  0.03180  0.00071  1.0000
  S   S2        1.0  0.74000  0.53200  0.00071  1.0000
  S   S3        1.0  0.96800  0.24200  0.00082  1.0000
  S   S4        1.0  0.53200  0.74200  0.00082  1.0000
  S   S5        1.0  0.96800  0.24200  0.49900  1.0000
  S   S6        1.0  0.53200  0.74200  0.49900  1.0000
  S   S7        1.0  0.76000  0.03180  0.49900  1.0000
  S   S8        1.0  0.74000  0.53200  0.49900  1.0000
  S   S9        1.0  0.26000  0.46800  0.50100  1.0000
  S   S10       1.0  0.24000  0.96800  0.50100  1.0000
  S   S11       1.0  0.46800  0.25800  0.50100  1.0000
  S   S12       1.0  0.03210  0.75800  0.50100  1.0000
  S   S13       1.0  0.46800  0.25800  0.99900  1.0000
  S   S14       1.0  0.03210  0.75800  0.99900  1.0000
  S   S15       1.0  0.26000  0.46800  0.99900  1.0000
  S   S16       1.0  0.24000  0.96800  0.99900  1.0000
