data_image0
_chemical_formula_structural       C24N24P8
_chemical_formula_sum              "C24 N24 P8"
_cell_length_a       10.4023
_cell_length_b       10.889
_cell_length_c       10.889
_cell_angle_alpha    103.188
_cell_angle_beta     118.532
_cell_angle_gamma    61.4677

_space_group_name_H-M_alt    "P 1"
_space_group_IT_number       1

loop_
  _space_group_symop_operation_xyz
  'x, y, z'

loop_
  _atom_site_type_symbol
  _atom_site_label
  _atom_site_symmetry_multiplicity
  _atom_site_fract_x
  _atom_site_fract_y
  _atom_site_fract_z
  _atom_site_occupancy
  C   C1        1.0  0.51100  0.24100  0.08380  1.0000
  C   C2        1.0  0.50100  0.71200  0.10400  1.0000
  C   C3        1.0  0.96400  0.23300  0.12600  1.0000
  C   C4        1.0  0.24900  0.60400  0.21200  1.0000
  C   C5        1.0  0.16300  0.87300  0.23300  1.0000
  C   C6        1.0  0.57300  0.91600  0.24100  1.0000
  C   C7        1.0  0.08200  0.41600  0.25900  1.0000
  C   C8        1.0  0.67900  0.37300  0.26700  1.0000
  C   C9        1.0  0.78700  0.10400  0.28800  1.0000
  C   C10       1.0  0.58700  0.73300  0.37400  1.0000
  C   C11       1.0  0.14700  0.21200  0.39600  1.0000
  C   C12       1.0  0.17700  0.74100  0.41600  1.0000
  C   C13       1.0  0.50200  0.25900  0.58400  1.0000
  C   C14       1.0  0.96300  0.78800  0.60400  1.0000
  C   C15       1.0  0.94700  0.26700  0.62600  1.0000
  C   C16       1.0  0.60300  0.89600  0.71200  1.0000
  C   C17       1.0  0.78600  0.62700  0.73300  1.0000
  C   C18       1.0  0.23900  0.58400  0.74100  1.0000
  C   C19       1.0  0.24800  0.08380  0.75900  1.0000
  C   C20       1.0  0.80300  0.12700  0.76700  1.0000
  C   C21       1.0  0.64200  0.39600  0.78800  1.0000
  C   C22       1.0  0.07060  0.76700  0.87400  1.0000
  C   C23       1.0  0.10800  0.28800  0.89600  1.0000
  C   C24       1.0  0.66800  0.75900  0.91600  1.0000
  N   N1        1.0  0.40200  0.69300  0.00012  1.0000
  N   N2        1.0  0.70400  0.77000  0.03600  1.0000
  N   N3        1.0  0.84300  0.22900  0.04340  1.0000
  N   N4        1.0  0.34800  0.50000  0.19300  1.0000
  N   N5        1.0  0.20100  0.95700  0.22900  1.0000
  N   N6        1.0  0.52500  0.03600  0.23000  1.0000
  N   N7        1.0  0.04580  0.53600  0.27000  1.0000
  N   N8        1.0  0.72200  0.45700  0.27100  1.0000
  N   N9        1.0  0.90400  0.00012  0.30700  1.0000
  N   N10       1.0  0.54900  0.72900  0.45700  1.0000
  N   N11       1.0  0.41800  0.27000  0.46400  1.0000
  N   N12       1.0  0.15200  0.19300  0.50000  1.0000
  N   N13       1.0  0.84600  0.80700  0.50000  1.0000
  N   N14       1.0  0.22500  0.73000  0.53600  1.0000
  N   N15       1.0  0.82100  0.27100  0.54300  1.0000
  N   N16       1.0  0.59800  0.00000  0.69300  1.0000
  N   N17       1.0  0.90700  0.54300  0.72900  1.0000
  N   N18       1.0  0.31100  0.46400  0.73000  1.0000
  N   N19       1.0  0.33200  0.96400  0.77000  1.0000
  N   N20       1.0  0.92900  0.04340  0.77100  1.0000
  N   N21       1.0  0.65400  0.50000  0.80700  1.0000
  N   N22       1.0  0.02790  0.77100  0.95700  1.0000
  N   N23       1.0  0.43900  0.23000  0.96400  1.0000
  N   N24       1.0  0.09560  0.30700  0.00000  1.0000
  P   P1        1.0  0.08190  0.75800  0.22900  1.0000
  P   P2        1.0  0.16000  0.22900  0.24200  1.0000
  P   P3        1.0  0.66800  0.72900  0.25800  1.0000
  P   P4        1.0  0.60300  0.25800  0.27100  1.0000
  P   P5        1.0  0.59000  0.74200  0.72900  1.0000
  P   P6        1.0  0.13900  0.27100  0.74200  1.0000
  P   P7        1.0  0.14700  0.77100  0.75800  1.0000
  P   P8        1.0  0.61100  0.24200  0.77100  1.0000
