data_image0
_chemical_formula_structural       C8F20O16Rb4Sb8
_chemical_formula_sum              "C8 F20 O16 Rb4 Sb8"
_cell_length_a       6.2314
_cell_length_b       22.4095
_cell_length_c       5.68268
_cell_angle_alpha    90
_cell_angle_beta     90
_cell_angle_gamma    90

_space_group_name_H-M_alt    "P 1"
_space_group_IT_number       1

loop_
  _space_group_symop_operation_xyz
  'x, y, z'

loop_
  _atom_site_type_symbol
  _atom_site_label
  _atom_site_symmetry_multiplicity
  _atom_site_fract_x
  _atom_site_fract_y
  _atom_site_fract_z
  _atom_site_occupancy
  C   C1        1.0  0.06340  0.76400  0.17000  1.0000
  C   C2        1.0  0.12300  0.24300  0.17300  1.0000
  C   C3        1.0  0.87700  0.74300  0.32700  1.0000
  C   C4        1.0  0.93700  0.26400  0.33000  1.0000
  C   C5        1.0  0.43700  0.23600  0.67000  1.0000
  C   C6        1.0  0.37700  0.75700  0.67300  1.0000
  C   C7        1.0  0.62300  0.25700  0.82700  1.0000
  C   C8        1.0  0.56300  0.73600  0.83000  1.0000
  F   F1        1.0  0.55700  0.02520  0.05910  1.0000
  F   F2        1.0  0.75500  0.58000  0.17800  1.0000
  F   F3        1.0  0.76700  0.42300  0.18900  1.0000
  F   F4        1.0  0.78600  0.90200  0.24100  1.0000
  F   F5        1.0  0.16900  0.60700  0.24600  1.0000
  F   F6        1.0  0.83100  0.10700  0.25400  1.0000
  F   F7        1.0  0.21400  0.40200  0.25900  1.0000
  F   F8        1.0  0.23300  0.92300  0.31100  1.0000
  F   F9        1.0  0.24500  0.07960  0.32200  1.0000
  F   F10       1.0  0.44300  0.52500  0.44100  1.0000
  F   F11       1.0  0.94300  0.97500  0.55900  1.0000
  F   F12       1.0  0.74500  0.42000  0.67800  1.0000
  F   F13       1.0  0.73300  0.57700  0.68900  1.0000
  F   F14       1.0  0.71400  0.09790  0.74100  1.0000
  F   F15       1.0  0.33100  0.39300  0.74600  1.0000
  F   F16       1.0  0.66900  0.89300  0.75400  1.0000
  F   F17       1.0  0.28600  0.59800  0.75900  1.0000
  F   F18       1.0  0.26700  0.07730  0.81100  1.0000
  F   F19       1.0  0.25500  0.92000  0.82200  1.0000
  F   F20       1.0  0.05740  0.47500  0.94100  1.0000
  O   O1        1.0  0.20800  0.27800  0.03330  1.0000
  O   O2        1.0  0.14600  0.72500  0.03380  1.0000
  O   O3        1.0  0.12200  0.81800  0.18200  1.0000
  O   O4        1.0  0.17600  0.18800  0.20200  1.0000
  O   O5        1.0  0.82400  0.68800  0.29800  1.0000
  O   O6        1.0  0.87800  0.31800  0.31800  1.0000
  O   O7        1.0  0.85400  0.22500  0.46600  1.0000
  O   O8        1.0  0.79200  0.77800  0.46700  1.0000
  O   O9        1.0  0.29200  0.72200  0.53300  1.0000
  O   O10       1.0  0.35400  0.27500  0.53400  1.0000
  O   O11       1.0  0.37800  0.18200  0.68200  1.0000
  O   O12       1.0  0.32400  0.81200  0.70200  1.0000
  O   O13       1.0  0.67600  0.31200  0.79800  1.0000
  O   O14       1.0  0.62200  0.68200  0.81800  1.0000
  O   O15       1.0  0.64600  0.77500  0.96600  1.0000
  O   O16       1.0  0.70800  0.22200  0.96700  1.0000
  Rb  Rb1       1.0  0.98900  0.00288  0.03330  1.0000
  Rb  Rb2       1.0  0.01090  0.50300  0.46700  1.0000
  Rb  Rb3       1.0  0.51100  0.99700  0.53300  1.0000
  Rb  Rb4       1.0  0.48900  0.49700  0.96700  1.0000
  Sb  Sb1       1.0  0.95500  0.63900  0.00596  1.0000
  Sb  Sb2       1.0  0.50600  0.11400  0.00601  1.0000
  Sb  Sb3       1.0  0.49400  0.61400  0.49400  1.0000
  Sb  Sb4       1.0  0.04520  0.13900  0.49400  1.0000
  Sb  Sb5       1.0  0.54500  0.36100  0.50600  1.0000
  Sb  Sb6       1.0  0.99400  0.88600  0.50600  1.0000
  Sb  Sb7       1.0  0.00636  0.38600  0.99400  1.0000
  Sb  Sb8       1.0  0.45500  0.86100  0.99400  1.0000
