data_image0
_chemical_formula_structural       Cl4Hg6O4
_chemical_formula_sum              "Cl4 Hg6 O4"
_cell_length_a       6.40446
_cell_length_b       7.01089
_cell_length_c       6.89341
_cell_angle_alpha    90
_cell_angle_beta     114.086
_cell_angle_gamma    90

_space_group_name_H-M_alt    "P 1"
_space_group_IT_number       1

loop_
  _space_group_symop_operation_xyz
  'x, y, z'

loop_
  _atom_site_type_symbol
  _atom_site_label
  _atom_site_symmetry_multiplicity
  _atom_site_fract_x
  _atom_site_fract_y
  _atom_site_fract_z
  _atom_site_occupancy
  Cl  Cl1       1.0  0.78800  0.37300  0.04980  1.0000
  Cl  Cl2       1.0  0.21200  0.87300  0.45000  1.0000
  Cl  Cl3       1.0  0.78800  0.12700  0.55000  1.0000
  Cl  Cl4       1.0  0.21200  0.62700  0.95000  1.0000
  Hg  Hg1       1.0  0.00000  0.00000  0.00000  1.0000
  Hg  Hg2       1.0  0.58500  0.86600  0.24200  1.0000
  Hg  Hg3       1.0  0.41500  0.36600  0.25800  1.0000
  Hg  Hg4       1.0  0.00000  0.50000  0.50000  1.0000
  Hg  Hg5       1.0  0.58500  0.63400  0.74200  1.0000
  Hg  Hg6       1.0  0.41500  0.13400  0.75800  1.0000
  O   O1        1.0  0.32900  0.10500  0.05920  1.0000
  O   O2        1.0  0.67100  0.60500  0.44100  1.0000
  O   O3        1.0  0.32900  0.39500  0.55900  1.0000
  O   O4        1.0  0.67100  0.89500  0.94100  1.0000
