data_image0
_chemical_formula_structural       La4Mo8O36Sb4
_chemical_formula_sum              "La4 Mo8 O36 Sb4"
_cell_length_a       9.74214
_cell_length_b       9.74214
_cell_length_c       10.868
_cell_angle_alpha    112.103
_cell_angle_beta     112.103
_cell_angle_gamma    95.0085

_space_group_name_H-M_alt    "P 1"
_space_group_IT_number       1

loop_
  _space_group_symop_operation_xyz
  'x, y, z'

loop_
  _atom_site_type_symbol
  _atom_site_label
  _atom_site_symmetry_multiplicity
  _atom_site_fract_x
  _atom_site_fract_y
  _atom_site_fract_z
  _atom_site_occupancy
  La  La1       1.0  0.87600  0.12400  0.25000  1.0000
  La  La2       1.0  0.32400  0.67600  0.25000  1.0000
  La  La3       1.0  0.67600  0.32400  0.75000  1.0000
  La  La4       1.0  0.12400  0.87600  0.75000  1.0000
  Mo  Mo1       1.0  0.05030  0.26300  0.03690  1.0000
  Mo  Mo2       1.0  0.43600  0.06730  0.20200  1.0000
  Mo  Mo3       1.0  0.93300  0.56400  0.29800  1.0000
  Mo  Mo4       1.0  0.73700  0.95000  0.46300  1.0000
  Mo  Mo5       1.0  0.26300  0.05030  0.53700  1.0000
  Mo  Mo6       1.0  0.06730  0.43600  0.70200  1.0000
  Mo  Mo7       1.0  0.56400  0.93300  0.79800  1.0000
  Mo  Mo8       1.0  0.95000  0.73700  0.96300  1.0000
  O   O1        1.0  0.30800  0.98500  0.01200  1.0000
  O   O2        1.0  0.12800  0.69900  0.04690  1.0000
  O   O3        1.0  0.22100  0.39500  0.07190  1.0000
  O   O4        1.0  0.95100  0.91200  0.09380  1.0000
  O   O5        1.0  0.46200  0.57500  0.10200  1.0000
  O   O6        1.0  0.78500  0.63500  0.19600  1.0000
  O   O7        1.0  0.06630  0.23900  0.19700  1.0000
  O   O8        1.0  0.61700  0.15500  0.22900  1.0000
  O   O9        1.0  0.08140  0.54800  0.24000  1.0000
  O   O10       1.0  0.45200  0.91900  0.26000  1.0000
  O   O11       1.0  0.84500  0.38300  0.27100  1.0000
  O   O12       1.0  0.76100  0.93400  0.30300  1.0000
  O   O13       1.0  0.36500  0.21500  0.30400  1.0000
  O   O14       1.0  0.42500  0.53800  0.39800  1.0000
  O   O15       1.0  0.08830  0.04940  0.40600  1.0000
  O   O16       1.0  0.60500  0.77900  0.42800  1.0000
  O   O17       1.0  0.30100  0.87200  0.45300  1.0000
  O   O18       1.0  0.01490  0.69200  0.48800  1.0000
  O   O19       1.0  0.98500  0.30800  0.51200  1.0000
  O   O20       1.0  0.69900  0.12800  0.54700  1.0000
  O   O21       1.0  0.39500  0.22100  0.57200  1.0000
  O   O22       1.0  0.91200  0.95100  0.59400  1.0000
  O   O23       1.0  0.57500  0.46200  0.60200  1.0000
  O   O24       1.0  0.63500  0.78500  0.69600  1.0000
  O   O25       1.0  0.23900  0.06630  0.69700  1.0000
  O   O26       1.0  0.15500  0.61700  0.72900  1.0000
  O   O27       1.0  0.54800  0.08140  0.74000  1.0000
  O   O28       1.0  0.91900  0.45200  0.76000  1.0000
  O   O29       1.0  0.38300  0.84500  0.77100  1.0000
  O   O30       1.0  0.93400  0.76100  0.80300  1.0000
  O   O31       1.0  0.21500  0.36500  0.80400  1.0000
  O   O32       1.0  0.53800  0.42500  0.89800  1.0000
  O   O33       1.0  0.04940  0.08830  0.90600  1.0000
  O   O34       1.0  0.77900  0.60500  0.92800  1.0000
  O   O35       1.0  0.87200  0.30100  0.95300  1.0000
  O   O36       1.0  0.69200  0.01490  0.98800  1.0000
  Sb  Sb1       1.0  0.61200  0.65300  0.03190  1.0000
  Sb  Sb2       1.0  0.34700  0.38800  0.46800  1.0000
  Sb  Sb3       1.0  0.65300  0.61200  0.53200  1.0000
  Sb  Sb4       1.0  0.38800  0.34700  0.96800  1.0000
