data_image0
_chemical_formula_structural       Al4H32Li4N16
_chemical_formula_sum              "Al4 H32 Li4 N16"
_cell_length_a       9.15387
_cell_length_b       7.38813
_cell_length_c       7.60921
_cell_angle_alpha    90
_cell_angle_beta     88.8592
_cell_angle_gamma    90

_space_group_name_H-M_alt    "P 1"
_space_group_IT_number       1

loop_
  _space_group_symop_operation_xyz
  'x, y, z'

loop_
  _atom_site_type_symbol
  _atom_site_label
  _atom_site_symmetry_multiplicity
  _atom_site_fract_x
  _atom_site_fract_y
  _atom_site_fract_z
  _atom_site_occupancy
  Al  Al1       1.0  0.85300  0.20600  0.05120  1.0000
  Al  Al2       1.0  0.64700  0.70600  0.44900  1.0000
  Al  Al3       1.0  0.35300  0.29400  0.55100  1.0000
  Al  Al4       1.0  0.14700  0.79400  0.94900  1.0000
  H   H1        1.0  0.25100  0.08980  0.02840  1.0000
  H   H2        1.0  0.63100  0.03200  0.08000  1.0000
  H   H3        1.0  0.37800  0.38300  0.08410  1.0000
  H   H4        1.0  0.44200  0.32300  0.10900  1.0000
  H   H5        1.0  0.55900  0.66400  0.15300  1.0000
  H   H6        1.0  0.82000  0.68900  0.16100  1.0000
  H   H7        1.0  0.80900  0.77800  0.21000  1.0000
  H   H8        1.0  0.05730  0.07530  0.21200  1.0000
  H   H9        1.0  0.44300  0.57500  0.28800  1.0000
  H   H10       1.0  0.69100  0.27800  0.29000  1.0000
  H   H11       1.0  0.68000  0.18900  0.33900  1.0000
  H   H12       1.0  0.94100  0.16400  0.34700  1.0000
  H   H13       1.0  0.05830  0.82300  0.39100  1.0000
  H   H14       1.0  0.12200  0.88300  0.41600  1.0000
  H   H15       1.0  0.86900  0.53200  0.42000  1.0000
  H   H16       1.0  0.24900  0.59000  0.47200  1.0000
  H   H17       1.0  0.75100  0.41000  0.52800  1.0000
  H   H18       1.0  0.13100  0.46800  0.58000  1.0000
  H   H19       1.0  0.87800  0.11700  0.58400  1.0000
  H   H20       1.0  0.94200  0.17700  0.60900  1.0000
  H   H21       1.0  0.05880  0.83600  0.65300  1.0000
  H   H22       1.0  0.32000  0.81100  0.66100  1.0000
  H   H23       1.0  0.30900  0.72200  0.71000  1.0000
  H   H24       1.0  0.55700  0.42500  0.71200  1.0000
  H   H25       1.0  0.94300  0.92500  0.78800  1.0000
  H   H26       1.0  0.19100  0.22200  0.79000  1.0000
  H   H27       1.0  0.18000  0.31100  0.83900  1.0000
  H   H28       1.0  0.44100  0.33600  0.84700  1.0000
  H   H29       1.0  0.55800  0.67700  0.89100  1.0000
  H   H30       1.0  0.62200  0.61700  0.91600  1.0000
  H   H31       1.0  0.36900  0.96800  0.92000  1.0000
  H   H32       1.0  0.74900  0.91000  0.97200  1.0000
  Li  Li1       1.0  0.38300  0.90700  0.24800  1.0000
  Li  Li2       1.0  0.11700  0.40700  0.25200  1.0000
  Li  Li3       1.0  0.88300  0.59300  0.74800  1.0000
  Li  Li4       1.0  0.61700  0.09320  0.75200  1.0000
  N   N1        1.0  0.28700  0.96000  0.01330  1.0000
  N   N2        1.0  0.17700  0.55800  0.03920  1.0000
  N   N3        1.0  0.08180  0.64200  0.13400  1.0000
  N   N4        1.0  0.98800  0.18400  0.22600  1.0000
  N   N5        1.0  0.51200  0.68400  0.27400  1.0000
  N   N6        1.0  0.41800  0.14200  0.36600  1.0000
  N   N7        1.0  0.32300  0.05840  0.46100  1.0000
  N   N8        1.0  0.21300  0.46000  0.48700  1.0000
  N   N9        1.0  0.78700  0.54000  0.51300  1.0000
  N   N10       1.0  0.67700  0.94200  0.53900  1.0000
  N   N11       1.0  0.58200  0.85800  0.63400  1.0000
  N   N12       1.0  0.48800  0.31600  0.72600  1.0000
  N   N13       1.0  0.01160  0.81600  0.77400  1.0000
  N   N14       1.0  0.91800  0.35800  0.86600  1.0000
  N   N15       1.0  0.82300  0.44200  0.96100  1.0000
  N   N16       1.0  0.71300  0.04050  0.98700  1.0000
