data_image0
_chemical_formula_structural       Mn40Si16
_chemical_formula_sum              "Mn40 Si16"
_cell_length_a       8.6863
_cell_length_b       8.6863
_cell_length_c       8.48407
_cell_angle_alpha    90
_cell_angle_beta     90
_cell_angle_gamma    90

_space_group_name_H-M_alt    "P 1"
_space_group_IT_number       1

loop_
  _space_group_symop_operation_xyz
  'x, y, z'

loop_
  _atom_site_type_symbol
  _atom_site_label
  _atom_site_symmetry_multiplicity
  _atom_site_fract_x
  _atom_site_fract_y
  _atom_site_fract_z
  _atom_site_occupancy
  Mn  Mn1       1.0  0.54500  0.54500  0.00000  1.0000
  Mn  Mn2       1.0  0.86600  0.86600  0.00000  1.0000
  Mn  Mn3       1.0  0.13100  0.95800  0.03500  1.0000
  Mn  Mn4       1.0  0.39900  0.00684  0.07150  1.0000
  Mn  Mn5       1.0  0.68400  0.07810  0.07990  1.0000
  Mn  Mn6       1.0  0.32600  0.72200  0.09680  1.0000
  Mn  Mn7       1.0  0.17400  0.22200  0.15300  1.0000
  Mn  Mn8       1.0  0.81600  0.57800  0.17000  1.0000
  Mn  Mn9       1.0  0.10100  0.50700  0.17800  1.0000
  Mn  Mn10      1.0  0.36900  0.45800  0.21500  1.0000
  Mn  Mn11      1.0  0.95500  0.04490  0.25000  1.0000
  Mn  Mn12      1.0  0.63400  0.36600  0.25000  1.0000
  Mn  Mn13      1.0  0.54200  0.63100  0.28500  1.0000
  Mn  Mn14      1.0  0.49300  0.89900  0.32200  1.0000
  Mn  Mn15      1.0  0.42200  0.18400  0.33000  1.0000
  Mn  Mn16      1.0  0.77800  0.82600  0.34700  1.0000
  Mn  Mn17      1.0  0.27800  0.67400  0.40300  1.0000
  Mn  Mn18      1.0  0.92200  0.31600  0.42000  1.0000
  Mn  Mn19      1.0  0.99300  0.60100  0.42800  1.0000
  Mn  Mn20      1.0  0.04230  0.86900  0.46500  1.0000
  Mn  Mn21      1.0  0.13400  0.13400  0.50000  1.0000
  Mn  Mn22      1.0  0.45500  0.45500  0.50000  1.0000
  Mn  Mn23      1.0  0.86900  0.04230  0.53500  1.0000
  Mn  Mn24      1.0  0.60100  0.99300  0.57200  1.0000
  Mn  Mn25      1.0  0.31600  0.92200  0.58000  1.0000
  Mn  Mn26      1.0  0.67400  0.27800  0.59700  1.0000
  Mn  Mn27      1.0  0.82600  0.77800  0.65300  1.0000
  Mn  Mn28      1.0  0.18400  0.42200  0.67000  1.0000
  Mn  Mn29      1.0  0.89900  0.49300  0.67800  1.0000
  Mn  Mn30      1.0  0.63100  0.54200  0.71500  1.0000
  Mn  Mn31      1.0  0.36600  0.63400  0.75000  1.0000
  Mn  Mn32      1.0  0.04490  0.95500  0.75000  1.0000
  Mn  Mn33      1.0  0.45800  0.36900  0.78500  1.0000
  Mn  Mn34      1.0  0.50700  0.10100  0.82200  1.0000
  Mn  Mn35      1.0  0.57800  0.81600  0.83000  1.0000
  Mn  Mn36      1.0  0.22200  0.17400  0.84700  1.0000
  Mn  Mn37      1.0  0.72200  0.32600  0.90300  1.0000
  Mn  Mn38      1.0  0.07810  0.68400  0.92000  1.0000
  Mn  Mn39      1.0  0.00684  0.39900  0.92800  1.0000
  Mn  Mn40      1.0  0.95800  0.13100  0.96500  1.0000
  Si  Si1       1.0  0.46500  0.26400  0.04850  1.0000
  Si  Si2       1.0  0.61900  0.80500  0.09930  1.0000
  Si  Si3       1.0  0.88100  0.30500  0.15100  1.0000
  Si  Si4       1.0  0.03550  0.76400  0.20200  1.0000
  Si  Si5       1.0  0.23600  0.96500  0.29800  1.0000
  Si  Si6       1.0  0.69500  0.11900  0.34900  1.0000
  Si  Si7       1.0  0.19500  0.38100  0.40100  1.0000
  Si  Si8       1.0  0.73600  0.53500  0.45200  1.0000
  Si  Si9       1.0  0.53500  0.73600  0.54800  1.0000
  Si  Si10      1.0  0.38100  0.19500  0.59900  1.0000
  Si  Si11      1.0  0.11900  0.69500  0.65100  1.0000
  Si  Si12      1.0  0.96500  0.23600  0.70200  1.0000
  Si  Si13      1.0  0.76400  0.03550  0.79800  1.0000
  Si  Si14      1.0  0.30500  0.88100  0.84900  1.0000
  Si  Si15      1.0  0.80500  0.61900  0.90100  1.0000
  Si  Si16      1.0  0.26400  0.46500  0.95200  1.0000
