data_image0
_chemical_formula_structural       K8Mo4O32P4Sm4
_chemical_formula_sum              "K8 Mo4 O32 P4 Sm4"
_cell_length_a       6.96893
_cell_length_b       12.0529
_cell_length_c       12.0529
_cell_angle_alpha    61.1238
_cell_angle_beta     106.804
_cell_angle_gamma    106.804

_space_group_name_H-M_alt    "P 1"
_space_group_IT_number       1

loop_
  _space_group_symop_operation_xyz
  'x, y, z'

loop_
  _atom_site_type_symbol
  _atom_site_label
  _atom_site_symmetry_multiplicity
  _atom_site_fract_x
  _atom_site_fract_y
  _atom_site_fract_z
  _atom_site_occupancy
  K   K1        1.0  0.69200  0.73500  0.07810  1.0000
  K   K2        1.0  0.19200  0.57800  0.23500  1.0000
  K   K3        1.0  0.37800  0.92200  0.26500  1.0000
  K   K4        1.0  0.87800  0.76500  0.42200  1.0000
  K   K5        1.0  0.12200  0.23500  0.57800  1.0000
  K   K6        1.0  0.62200  0.07810  0.73500  1.0000
  K   K7        1.0  0.80800  0.42200  0.76500  1.0000
  K   K8        1.0  0.30800  0.26500  0.92200  1.0000
  Mo  Mo1       1.0  0.83100  0.08130  0.08130  1.0000
  Mo  Mo2       1.0  0.66900  0.41900  0.41900  1.0000
  Mo  Mo3       1.0  0.33100  0.58100  0.58100  1.0000
  Mo  Mo4       1.0  0.16900  0.91900  0.91900  1.0000
  O   O1        1.0  0.33700  0.56700  0.05920  1.0000
  O   O2        1.0  0.83700  0.55900  0.06670  1.0000
  O   O3        1.0  0.15900  0.85300  0.08460  1.0000
  O   O4        1.0  0.67300  0.16300  0.10200  1.0000
  O   O5        1.0  0.41100  0.34000  0.14000  1.0000
  O   O6        1.0  0.72100  0.91500  0.14700  1.0000
  O   O7        1.0  0.08900  0.36000  0.16000  1.0000
  O   O8        1.0  0.09140  0.10200  0.16300  1.0000
  O   O9        1.0  0.82700  0.39800  0.33700  1.0000
  O   O10       1.0  0.56800  0.14000  0.34000  1.0000
  O   O11       1.0  0.65900  0.58500  0.35300  1.0000
  O   O12       1.0  0.93200  0.16000  0.36000  1.0000
  O   O13       1.0  0.40900  0.33700  0.39800  1.0000
  O   O14       1.0  0.22100  0.64700  0.41500  1.0000
  O   O15       1.0  0.21100  0.94100  0.43300  1.0000
  O   O16       1.0  0.71100  0.93300  0.44100  1.0000
  O   O17       1.0  0.28900  0.06670  0.55900  1.0000
  O   O18       1.0  0.78900  0.05920  0.56700  1.0000
  O   O19       1.0  0.77900  0.35300  0.58500  1.0000
  O   O20       1.0  0.59100  0.66300  0.60200  1.0000
  O   O21       1.0  0.06850  0.84000  0.64000  1.0000
  O   O22       1.0  0.34100  0.41500  0.64700  1.0000
  O   O23       1.0  0.43200  0.86000  0.66000  1.0000
  O   O24       1.0  0.17300  0.60200  0.66300  1.0000
  O   O25       1.0  0.90900  0.89800  0.83700  1.0000
  O   O26       1.0  0.91100  0.64000  0.84000  1.0000
  O   O27       1.0  0.27900  0.08460  0.85300  1.0000
  O   O28       1.0  0.58900  0.66000  0.86000  1.0000
  O   O29       1.0  0.32700  0.83700  0.89800  1.0000
  O   O30       1.0  0.84100  0.14700  0.91500  1.0000
  O   O31       1.0  0.16300  0.44100  0.93300  1.0000
  O   O32       1.0  0.66300  0.43300  0.94100  1.0000
  P   P1        1.0  0.25000  0.43000  0.07020  1.0000
  P   P2        1.0  0.75000  0.07020  0.43000  1.0000
  P   P3        1.0  0.25000  0.93000  0.57000  1.0000
  P   P4        1.0  0.75000  0.57000  0.93000  1.0000
  Sm  Sm1       1.0  0.75000  0.32500  0.17500  1.0000
  Sm  Sm2       1.0  0.25000  0.17500  0.32500  1.0000
  Sm  Sm3       1.0  0.75000  0.82500  0.67500  1.0000
  Sm  Sm4       1.0  0.25000  0.67500  0.82500  1.0000
