data_image0
_chemical_formula_structural       C4Cd2H16N8O16Re4S4
_chemical_formula_sum              "C4 Cd2 H16 N8 O16 Re4 S4"
_cell_length_a       5.85733
_cell_length_b       11.0857
_cell_length_c       10.1259
_cell_angle_alpha    90
_cell_angle_beta     95.1374
_cell_angle_gamma    90

_space_group_name_H-M_alt    "P 1"
_space_group_IT_number       1

loop_
  _space_group_symop_operation_xyz
  'x, y, z'

loop_
  _atom_site_type_symbol
  _atom_site_label
  _atom_site_symmetry_multiplicity
  _atom_site_fract_x
  _atom_site_fract_y
  _atom_site_fract_z
  _atom_site_occupancy
  C   C1        1.0  0.05630  0.46800  0.19500  1.0000
  C   C2        1.0  0.94400  0.96800  0.30500  1.0000
  C   C3        1.0  0.05630  0.03240  0.69500  1.0000
  C   C4        1.0  0.94400  0.53200  0.80500  1.0000
  Cd  Cd1       1.0  0.00000  0.00000  0.00000  1.0000
  Cd  Cd2       1.0  0.00000  0.50000  0.50000  1.0000
  H   H1        1.0  0.10100  0.31100  0.08830  1.0000
  H   H2        1.0  0.82800  0.33600  0.14200  1.0000
  H   H3        1.0  0.39000  0.46000  0.14800  1.0000
  H   H4        1.0  0.31500  0.58600  0.24200  1.0000
  H   H5        1.0  0.68500  0.08550  0.25800  1.0000
  H   H6        1.0  0.61000  0.96000  0.35200  1.0000
  H   H7        1.0  0.17200  0.83600  0.35800  1.0000
  H   H8        1.0  0.89900  0.81100  0.41200  1.0000
  H   H9        1.0  0.10100  0.18900  0.58800  1.0000
  H   H10       1.0  0.82800  0.16400  0.64200  1.0000
  H   H11       1.0  0.39000  0.03990  0.64800  1.0000
  H   H12       1.0  0.31500  0.91400  0.74200  1.0000
  H   H13       1.0  0.68500  0.41400  0.75800  1.0000
  H   H14       1.0  0.61000  0.54000  0.85200  1.0000
  H   H15       1.0  0.17200  0.66400  0.85800  1.0000
  H   H16       1.0  0.89900  0.68900  0.91200  1.0000
  N   N1        1.0  0.99100  0.36600  0.13300  1.0000
  N   N2        1.0  0.27200  0.50500  0.19900  1.0000
  N   N3        1.0  0.72800  0.00473  0.30100  1.0000
  N   N4        1.0  0.00937  0.86600  0.36700  1.0000
  N   N5        1.0  0.99100  0.13400  0.63300  1.0000
  N   N6        1.0  0.27200  0.99500  0.69900  1.0000
  N   N7        1.0  0.72800  0.49500  0.80100  1.0000
  N   N8        1.0  0.00937  0.63400  0.86700  1.0000
  O   O1        1.0  0.51000  0.36700  0.01520  1.0000
  O   O2        1.0  0.66500  0.12300  0.02440  1.0000
  O   O3        1.0  0.80700  0.82100  0.05870  1.0000
  O   O4        1.0  0.44300  0.76000  0.22500  1.0000
  O   O5        1.0  0.55700  0.26000  0.27500  1.0000
  O   O6        1.0  0.19300  0.32100  0.44100  1.0000
  O   O7        1.0  0.33500  0.62300  0.47600  1.0000
  O   O8        1.0  0.49000  0.86700  0.48500  1.0000
  O   O9        1.0  0.51000  0.13300  0.51500  1.0000
  O   O10       1.0  0.66500  0.37700  0.52400  1.0000
  O   O11       1.0  0.80700  0.67900  0.55900  1.0000
  O   O12       1.0  0.44300  0.74000  0.72500  1.0000
  O   O13       1.0  0.55700  0.24000  0.77500  1.0000
  O   O14       1.0  0.19300  0.17900  0.94100  1.0000
  O   O15       1.0  0.33500  0.87700  0.97600  1.0000
  O   O16       1.0  0.49000  0.63300  0.98500  1.0000
  Re  Re1       1.0  0.52000  0.77400  0.06310  1.0000
  Re  Re2       1.0  0.48000  0.27400  0.43700  1.0000
  Re  Re3       1.0  0.52000  0.72600  0.56300  1.0000
  Re  Re4       1.0  0.48000  0.22600  0.93700  1.0000
  S   S1        1.0  0.14700  0.05210  0.23200  1.0000
  S   S2        1.0  0.85300  0.55200  0.26800  1.0000
  S   S3        1.0  0.14700  0.44800  0.73200  1.0000
  S   S4        1.0  0.85300  0.94800  0.76800  1.0000
