data_image0
_chemical_formula_structural       Mo20O32Sm4
_chemical_formula_sum              "Mo20 O32 Sm4"
_cell_length_a       7.57985
_cell_length_b       9.0544
_cell_length_c       9.91714
_cell_angle_alpha    90
_cell_angle_beta     109.76
_cell_angle_gamma    90

_space_group_name_H-M_alt    "P 1"
_space_group_IT_number       1

loop_
  _space_group_symop_operation_xyz
  'x, y, z'

loop_
  _atom_site_type_symbol
  _atom_site_label
  _atom_site_symmetry_multiplicity
  _atom_site_fract_x
  _atom_site_fract_y
  _atom_site_fract_z
  _atom_site_occupancy
  Mo  Mo1       1.0  0.39600  0.38500  0.01270  1.0000
  Mo  Mo2       1.0  0.99800  0.62300  0.08600  1.0000
  Mo  Mo3       1.0  0.82900  0.37200  0.11800  1.0000
  Mo  Mo4       1.0  0.38500  0.61800  0.17600  1.0000
  Mo  Mo5       1.0  0.19300  0.37000  0.20100  1.0000
  Mo  Mo6       1.0  0.80700  0.87000  0.29900  1.0000
  Mo  Mo7       1.0  0.61500  0.11800  0.32400  1.0000
  Mo  Mo8       1.0  0.17100  0.87200  0.38200  1.0000
  Mo  Mo9       1.0  0.00221  0.12300  0.41400  1.0000
  Mo  Mo10      1.0  0.60400  0.88500  0.48700  1.0000
  Mo  Mo11      1.0  0.39600  0.11500  0.51300  1.0000
  Mo  Mo12      1.0  0.99800  0.87700  0.58600  1.0000
  Mo  Mo13      1.0  0.82900  0.12800  0.61800  1.0000
  Mo  Mo14      1.0  0.38500  0.88200  0.67600  1.0000
  Mo  Mo15      1.0  0.19300  0.13000  0.70100  1.0000
  Mo  Mo16      1.0  0.80700  0.63000  0.79900  1.0000
  Mo  Mo17      1.0  0.61500  0.38200  0.82400  1.0000
  Mo  Mo18      1.0  0.17100  0.62800  0.88200  1.0000
  Mo  Mo19      1.0  0.00221  0.37700  0.91400  1.0000
  Mo  Mo20      1.0  0.60400  0.61500  0.98700  1.0000
  O   O1        1.0  0.39000  0.75800  0.01230  1.0000
  O   O2        1.0  0.00091  0.21800  0.06600  1.0000
  O   O3        1.0  0.79500  0.76100  0.11300  1.0000
  O   O4        1.0  0.59800  0.99400  0.14900  1.0000
  O   O5        1.0  0.39200  0.23200  0.16800  1.0000
  O   O6        1.0  0.62100  0.49300  0.17600  1.0000
  O   O7        1.0  0.20200  0.76100  0.20900  1.0000
  O   O8        1.0  0.98100  0.00315  0.22900  1.0000
  O   O9        1.0  0.01850  0.50300  0.27100  1.0000
  O   O10       1.0  0.79800  0.26100  0.29100  1.0000
  O   O11       1.0  0.37900  0.99300  0.32400  1.0000
  O   O12       1.0  0.60800  0.73200  0.33200  1.0000
  O   O13       1.0  0.40200  0.49400  0.35100  1.0000
  O   O14       1.0  0.20500  0.26100  0.38700  1.0000
  O   O15       1.0  0.99900  0.71800  0.43400  1.0000
  O   O16       1.0  0.61000  0.25800  0.48800  1.0000
  O   O17       1.0  0.39000  0.74200  0.51200  1.0000
  O   O18       1.0  0.00091  0.28200  0.56600  1.0000
  O   O19       1.0  0.79500  0.73900  0.61300  1.0000
  O   O20       1.0  0.59800  0.50600  0.64900  1.0000
  O   O21       1.0  0.39200  0.26800  0.66800  1.0000
  O   O22       1.0  0.62100  0.00737  0.67600  1.0000
  O   O23       1.0  0.20200  0.73900  0.70900  1.0000
  O   O24       1.0  0.98100  0.49700  0.72900  1.0000
  O   O25       1.0  0.01850  0.99700  0.77100  1.0000
  O   O26       1.0  0.79800  0.23900  0.79100  1.0000
  O   O27       1.0  0.37900  0.50700  0.82400  1.0000
  O   O28       1.0  0.60800  0.76800  0.83200  1.0000
  O   O29       1.0  0.40200  0.00579  0.85100  1.0000
  O   O30       1.0  0.20500  0.23900  0.88700  1.0000
  O   O31       1.0  0.99900  0.78200  0.93400  1.0000
  O   O32       1.0  0.61000  0.24200  0.98800  1.0000
  Sm  Sm1       1.0  0.26800  0.99800  0.03170  1.0000
  Sm  Sm2       1.0  0.73200  0.49800  0.46800  1.0000
  Sm  Sm3       1.0  0.26800  0.50200  0.53200  1.0000
  Sm  Sm4       1.0  0.73200  0.00214  0.96800  1.0000
