data_image0
_chemical_formula_structural       H20O28P4V4
_chemical_formula_sum              "H20 O28 P4 V4"
_cell_length_a       7.36347
_cell_length_b       7.10751
_cell_length_c       9.36372
_cell_angle_alpha    90
_cell_angle_beta     94.9328
_cell_angle_gamma    90

_space_group_name_H-M_alt    "P 1"
_space_group_IT_number       1

loop_
  _space_group_symop_operation_xyz
  'x, y, z'

loop_
  _atom_site_type_symbol
  _atom_site_label
  _atom_site_symmetry_multiplicity
  _atom_site_fract_x
  _atom_site_fract_y
  _atom_site_fract_z
  _atom_site_occupancy
  H   H1        1.0  0.68800  0.51300  0.04120  1.0000
  H   H2        1.0  0.01540  0.82900  0.11300  1.0000
  H   H3        1.0  0.04570  0.32500  0.15100  1.0000
  H   H4        1.0  0.84300  0.52500  0.17400  1.0000
  H   H5        1.0  0.86200  0.98500  0.24200  1.0000
  H   H6        1.0  0.13800  0.48500  0.25800  1.0000
  H   H7        1.0  0.15700  0.02510  0.32600  1.0000
  H   H8        1.0  0.95400  0.82500  0.34900  1.0000
  H   H9        1.0  0.98500  0.32900  0.38700  1.0000
  H   H10       1.0  0.31200  0.01270  0.45900  1.0000
  H   H11       1.0  0.68800  0.98700  0.54100  1.0000
  H   H12       1.0  0.01540  0.67100  0.61300  1.0000
  H   H13       1.0  0.04570  0.17500  0.65100  1.0000
  H   H14       1.0  0.84300  0.97500  0.67400  1.0000
  H   H15       1.0  0.86200  0.51500  0.74200  1.0000
  H   H16       1.0  0.13800  0.01510  0.75800  1.0000
  H   H17       1.0  0.15700  0.47500  0.82600  1.0000
  H   H18       1.0  0.95400  0.67500  0.84900  1.0000
  H   H19       1.0  0.98500  0.17100  0.88700  1.0000
  H   H20       1.0  0.31200  0.48700  0.95900  1.0000
  O   O1        1.0  0.05800  0.80300  0.01450  1.0000
  O   O2        1.0  0.37700  0.67400  0.06450  1.0000
  O   O3        1.0  0.31800  0.02780  0.08890  1.0000
  O   O4        1.0  0.73100  0.59000  0.12700  1.0000
  O   O5        1.0  0.71500  0.13300  0.15500  1.0000
  O   O6        1.0  0.44100  0.36200  0.21200  1.0000
  O   O7        1.0  0.02580  0.40900  0.23200  1.0000
  O   O8        1.0  0.97400  0.90900  0.26800  1.0000
  O   O9        1.0  0.55900  0.86200  0.28800  1.0000
  O   O10       1.0  0.28500  0.63300  0.34500  1.0000
  O   O11       1.0  0.26900  0.08970  0.37300  1.0000
  O   O12       1.0  0.68200  0.52800  0.41100  1.0000
  O   O13       1.0  0.62300  0.17400  0.43600  1.0000
  O   O14       1.0  0.94200  0.30300  0.48500  1.0000
  O   O15       1.0  0.05800  0.69700  0.51500  1.0000
  O   O16       1.0  0.37700  0.82600  0.56400  1.0000
  O   O17       1.0  0.31800  0.47200  0.58900  1.0000
  O   O18       1.0  0.73100  0.91000  0.62700  1.0000
  O   O19       1.0  0.71500  0.36700  0.65500  1.0000
  O   O20       1.0  0.44100  0.13800  0.71200  1.0000
  O   O21       1.0  0.02580  0.09150  0.73200  1.0000
  O   O22       1.0  0.97400  0.59100  0.76800  1.0000
  O   O23       1.0  0.55900  0.63800  0.78800  1.0000
  O   O24       1.0  0.28500  0.86700  0.84500  1.0000
  O   O25       1.0  0.26900  0.41000  0.87300  1.0000
  O   O26       1.0  0.68200  0.97200  0.91100  1.0000
  O   O27       1.0  0.62300  0.32600  0.93600  1.0000
  O   O28       1.0  0.94200  0.19700  0.98500  1.0000
  P   P1        1.0  0.26800  0.84800  0.00720  1.0000
  P   P2        1.0  0.73200  0.34800  0.49300  1.0000
  P   P3        1.0  0.26800  0.65200  0.50700  1.0000
  P   P4        1.0  0.73200  0.15200  0.99300  1.0000
  V   V1        1.0  0.47800  0.13100  0.24900  1.0000
  V   V2        1.0  0.52200  0.63100  0.25100  1.0000
  V   V3        1.0  0.47800  0.36900  0.74900  1.0000
  V   V4        1.0  0.52200  0.86900  0.75100  1.0000
