data_image0
_chemical_formula_structural       K4S32Sb20
_chemical_formula_sum              "K4 S32 Sb20"
_cell_length_a       8.38423
_cell_length_b       19.654
_cell_length_c       9.14719
_cell_angle_alpha    90
_cell_angle_beta     90.8997
_cell_angle_gamma    90

_space_group_name_H-M_alt    "P 1"
_space_group_IT_number       1

loop_
  _space_group_symop_operation_xyz
  'x, y, z'

loop_
  _atom_site_type_symbol
  _atom_site_label
  _atom_site_symmetry_multiplicity
  _atom_site_fract_x
  _atom_site_fract_y
  _atom_site_fract_z
  _atom_site_occupancy
  K   K1        1.0  0.00256  0.44700  0.00044  1.0000
  K   K2        1.0  0.31300  0.95000  0.23600  1.0000
  K   K3        1.0  0.50300  0.55300  0.50000  1.0000
  K   K4        1.0  0.81300  0.04990  0.73600  1.0000
  S   S1        1.0  0.60200  0.40400  0.00421  1.0000
  S   S2        1.0  0.57100  0.03670  0.01360  1.0000
  S   S3        1.0  0.46400  0.83300  0.04420  1.0000
  S   S4        1.0  0.25000  0.29200  0.08840  1.0000
  S   S5        1.0  0.10500  0.60200  0.09100  1.0000
  S   S6        1.0  0.84200  0.91700  0.19300  1.0000
  S   S7        1.0  0.64400  0.19700  0.20300  1.0000
  S   S8        1.0  0.45700  0.67700  0.24500  1.0000
  S   S9        1.0  0.27500  0.11200  0.27800  1.0000
  S   S10       1.0  0.26000  0.46000  0.28600  1.0000
  S   S11       1.0  0.81900  0.50900  0.29000  1.0000
  S   S12       1.0  0.09320  0.77300  0.31900  1.0000
  S   S13       1.0  0.90000  0.34100  0.34000  1.0000
  S   S14       1.0  0.62100  0.01930  0.42400  1.0000
  S   S15       1.0  0.48400  0.83900  0.45300  1.0000
  S   S16       1.0  0.29100  0.27700  0.47000  1.0000
  S   S17       1.0  0.10200  0.59600  0.50400  1.0000
  S   S18       1.0  0.07110  0.96300  0.51400  1.0000
  S   S19       1.0  0.96400  0.16700  0.54400  1.0000
  S   S20       1.0  0.75000  0.70800  0.58800  1.0000
  S   S21       1.0  0.60500  0.39800  0.59100  1.0000
  S   S22       1.0  0.34200  0.08290  0.69300  1.0000
  S   S23       1.0  0.14400  0.80300  0.70300  1.0000
  S   S24       1.0  0.95700  0.32300  0.74500  1.0000
  S   S25       1.0  0.77500  0.88800  0.77800  1.0000
  S   S26       1.0  0.76000  0.54000  0.78600  1.0000
  S   S27       1.0  0.31900  0.49100  0.79000  1.0000
  S   S28       1.0  0.59300  0.22700  0.81900  1.0000
  S   S29       1.0  0.40000  0.65900  0.84000  1.0000
  S   S30       1.0  0.12100  0.98100  0.92400  1.0000
  S   S31       1.0  0.98400  0.16100  0.95300  1.0000
  S   S32       1.0  0.79100  0.72300  0.97000  1.0000
  Sb  Sb1       1.0  0.43200  0.15300  0.03530  1.0000
  Sb  Sb2       1.0  0.25400  0.71300  0.05320  1.0000
  Sb  Sb3       1.0  0.78200  0.04540  0.20200  1.0000
  Sb  Sb4       1.0  0.63000  0.78600  0.24100  1.0000
  Sb  Sb5       1.0  0.42300  0.35100  0.27000  1.0000
  Sb  Sb6       1.0  0.09060  0.22800  0.29900  1.0000
  Sb  Sb7       1.0  0.92800  0.63100  0.29900  1.0000
  Sb  Sb8       1.0  0.02520  0.45700  0.45300  1.0000
  Sb  Sb9       1.0  0.48100  0.13100  0.47100  1.0000
  Sb  Sb10      1.0  0.30200  0.73700  0.49200  1.0000
  Sb  Sb11      1.0  0.93200  0.84700  0.53500  1.0000
  Sb  Sb12      1.0  0.75400  0.28700  0.55300  1.0000
  Sb  Sb13      1.0  0.28200  0.95500  0.70200  1.0000
  Sb  Sb14      1.0  0.13000  0.21400  0.74100  1.0000
  Sb  Sb15      1.0  0.92300  0.64900  0.77000  1.0000
  Sb  Sb16      1.0  0.59100  0.77200  0.79900  1.0000
  Sb  Sb17      1.0  0.42800  0.36900  0.79900  1.0000
  Sb  Sb18      1.0  0.52500  0.54300  0.95300  1.0000
  Sb  Sb19      1.0  0.98100  0.86900  0.97100  1.0000
  Sb  Sb20      1.0  0.80200  0.26300  0.99200  1.0000
