data_image0
_chemical_formula_structural       O21Sm32
_chemical_formula_sum              "O21 Sm32"
_cell_length_a       10.8364
_cell_length_b       10.8364
_cell_length_c       10.8364
_cell_angle_alpha    90.1861
_cell_angle_beta     90.1861
_cell_angle_gamma    90.1861

_space_group_name_H-M_alt    "P 1"
_space_group_IT_number       1

loop_
  _space_group_symop_operation_xyz
  'x, y, z'

loop_
  _atom_site_type_symbol
  _atom_site_label
  _atom_site_symmetry_multiplicity
  _atom_site_fract_x
  _atom_site_fract_y
  _atom_site_fract_z
  _atom_site_occupancy
  O   O1        1.0  0.87500  0.37800  0.12800  1.0000
  O   O2        1.0  0.37800  0.87500  0.12800  1.0000
  O   O3        1.0  0.61800  0.13000  0.13000  1.0000
  O   O4        1.0  0.13000  0.61800  0.13000  1.0000
  O   O5        1.0  0.62500  0.37000  0.37000  1.0000
  O   O6        1.0  0.37000  0.62500  0.37000  1.0000
  O   O7        1.0  0.88100  0.62900  0.37100  1.0000
  O   O8        1.0  0.62900  0.88100  0.37100  1.0000
  O   O9        1.0  0.12800  0.87500  0.37800  1.0000
  O   O10       1.0  0.87500  0.12800  0.37800  1.0000
  O   O11       1.0  0.87300  0.87300  0.61700  1.0000
  O   O12       1.0  0.13000  0.13000  0.61800  1.0000
  O   O13       1.0  0.37000  0.37000  0.62500  1.0000
  O   O14       1.0  0.37100  0.88100  0.62900  1.0000
  O   O15       1.0  0.88100  0.37100  0.62900  1.0000
  O   O16       1.0  0.87300  0.61700  0.87300  1.0000
  O   O17       1.0  0.61700  0.87300  0.87300  1.0000
  O   O18       1.0  0.12800  0.37800  0.87500  1.0000
  O   O19       1.0  0.37800  0.12800  0.87500  1.0000
  O   O20       1.0  0.37100  0.62900  0.88100  1.0000
  O   O21       1.0  0.62900  0.37100  0.88100  1.0000
  Sm  Sm1       1.0  0.74700  0.25200  0.00760  1.0000
  Sm  Sm2       1.0  0.25200  0.74700  0.00760  1.0000
  Sm  Sm3       1.0  0.99400  0.24700  0.24700  1.0000
  Sm  Sm4       1.0  0.24700  0.99400  0.24700  1.0000
  Sm  Sm5       1.0  0.49800  0.25100  0.25100  1.0000
  Sm  Sm6       1.0  0.25100  0.49800  0.25100  1.0000
  Sm  Sm7       1.0  0.00760  0.74700  0.25200  1.0000
  Sm  Sm8       1.0  0.74700  0.00760  0.25200  1.0000
  Sm  Sm9       1.0  0.75500  0.49600  0.25900  1.0000
  Sm  Sm10      1.0  0.49600  0.75500  0.25900  1.0000
  Sm  Sm11      1.0  0.75400  0.75400  0.49000  1.0000
  Sm  Sm12      1.0  0.49300  0.49300  0.49300  1.0000
  Sm  Sm13      1.0  0.25900  0.75500  0.49600  1.0000
  Sm  Sm14      1.0  0.75500  0.25900  0.49600  1.0000
  Sm  Sm15      1.0  0.25100  0.25100  0.49800  1.0000
  Sm  Sm16      1.0  0.00000  0.00000  0.50000  1.0000
  Sm  Sm17      1.0  0.99000  0.50100  0.50100  1.0000
  Sm  Sm18      1.0  0.50100  0.99000  0.50100  1.0000
  Sm  Sm19      1.0  0.00760  0.25200  0.74700  1.0000
  Sm  Sm20      1.0  0.25200  0.00760  0.74700  1.0000
  Sm  Sm21      1.0  0.98700  0.75300  0.75300  1.0000
  Sm  Sm22      1.0  0.75300  0.98700  0.75300  1.0000
  Sm  Sm23      1.0  0.49000  0.75400  0.75400  1.0000
  Sm  Sm24      1.0  0.75400  0.49000  0.75400  1.0000
  Sm  Sm25      1.0  0.25900  0.49600  0.75500  1.0000
  Sm  Sm26      1.0  0.49600  0.25900  0.75500  1.0000
  Sm  Sm27      1.0  0.75300  0.75300  0.98700  1.0000
  Sm  Sm28      1.0  0.50100  0.50100  0.99000  1.0000
  Sm  Sm29      1.0  0.99300  0.99300  0.99300  1.0000
  Sm  Sm30      1.0  0.24700  0.24700  0.99400  1.0000
  Sm  Sm31      1.0  0.00000  0.50000  0.00000  1.0000
  Sm  Sm32      1.0  0.50000  0.00000  0.00000  1.0000
