data_image0
_chemical_formula_structural       Fe4Ge32Tb16
_chemical_formula_sum              "Fe4 Ge32 Tb16"
_cell_length_a       5.76073
_cell_length_b       15.866
_cell_length_c       11.4919
_cell_angle_alpha    90
_cell_angle_beta     91.5527
_cell_angle_gamma    90

_space_group_name_H-M_alt    "P 1"
_space_group_IT_number       1

loop_
  _space_group_symop_operation_xyz
  'x, y, z'

loop_
  _atom_site_type_symbol
  _atom_site_label
  _atom_site_symmetry_multiplicity
  _atom_site_fract_x
  _atom_site_fract_y
  _atom_site_fract_z
  _atom_site_occupancy
  Fe  Fe1       1.0  0.37500  0.19800  0.18800  1.0000
  Fe  Fe2       1.0  0.12500  0.69800  0.31200  1.0000
  Fe  Fe3       1.0  0.87500  0.30200  0.68800  1.0000
  Fe  Fe4       1.0  0.62500  0.80200  0.81200  1.0000
  Ge  Ge1       1.0  0.09610  0.25000  0.05130  1.0000
  Ge  Ge2       1.0  0.64500  0.25400  0.05310  1.0000
  Ge  Ge3       1.0  0.12400  0.94500  0.06100  1.0000
  Ge  Ge4       1.0  0.62500  0.55200  0.06410  1.0000
  Ge  Ge5       1.0  0.84800  0.75000  0.17500  1.0000
  Ge  Ge6       1.0  0.39400  0.75400  0.17700  1.0000
  Ge  Ge7       1.0  0.87400  0.44200  0.18700  1.0000
  Ge  Ge8       1.0  0.37500  0.04750  0.18900  1.0000
  Ge  Ge9       1.0  0.12500  0.54800  0.31100  1.0000
  Ge  Ge10      1.0  0.62600  0.94200  0.31300  1.0000
  Ge  Ge11      1.0  0.10600  0.25400  0.32300  1.0000
  Ge  Ge12      1.0  0.65200  0.25000  0.32500  1.0000
  Ge  Ge13      1.0  0.87500  0.05200  0.43600  1.0000
  Ge  Ge14      1.0  0.37600  0.44500  0.43900  1.0000
  Ge  Ge15      1.0  0.85500  0.75400  0.44700  1.0000
  Ge  Ge16      1.0  0.40400  0.75000  0.44900  1.0000
  Ge  Ge17      1.0  0.59600  0.25000  0.55100  1.0000
  Ge  Ge18      1.0  0.14500  0.24600  0.55300  1.0000
  Ge  Ge19      1.0  0.62400  0.55500  0.56100  1.0000
  Ge  Ge20      1.0  0.12500  0.94800  0.56400  1.0000
  Ge  Ge21      1.0  0.34800  0.75000  0.67500  1.0000
  Ge  Ge22      1.0  0.89400  0.74600  0.67700  1.0000
  Ge  Ge23      1.0  0.37400  0.05830  0.68700  1.0000
  Ge  Ge24      1.0  0.87500  0.45200  0.68900  1.0000
  Ge  Ge25      1.0  0.62500  0.95200  0.81100  1.0000
  Ge  Ge26      1.0  0.12600  0.55800  0.81300  1.0000
  Ge  Ge27      1.0  0.60600  0.24600  0.82300  1.0000
  Ge  Ge28      1.0  0.15200  0.25000  0.82500  1.0000
  Ge  Ge29      1.0  0.37500  0.44800  0.93600  1.0000
  Ge  Ge30      1.0  0.87600  0.05460  0.93900  1.0000
  Ge  Ge31      1.0  0.35500  0.74600  0.94700  1.0000
  Ge  Ge32      1.0  0.90400  0.75000  0.94900  1.0000
  Tb  Tb1       1.0  0.62400  0.89800  0.05840  1.0000
  Tb  Tb2       1.0  0.12500  0.60100  0.06560  1.0000
  Tb  Tb3       1.0  0.37500  0.39300  0.18700  1.0000
  Tb  Tb4       1.0  0.87500  0.10400  0.18800  1.0000
  Tb  Tb5       1.0  0.62500  0.60400  0.31200  1.0000
  Tb  Tb6       1.0  0.12500  0.89300  0.31300  1.0000
  Tb  Tb7       1.0  0.37500  0.10100  0.43400  1.0000
  Tb  Tb8       1.0  0.87600  0.39800  0.44200  1.0000
  Tb  Tb9       1.0  0.12400  0.60200  0.55800  1.0000
  Tb  Tb10      1.0  0.62500  0.89900  0.56600  1.0000
  Tb  Tb11      1.0  0.87500  0.10700  0.68700  1.0000
  Tb  Tb12      1.0  0.37500  0.39600  0.68800  1.0000
  Tb  Tb13      1.0  0.12500  0.89600  0.81200  1.0000
  Tb  Tb14      1.0  0.62500  0.60700  0.81300  1.0000
  Tb  Tb15      1.0  0.87500  0.39900  0.93400  1.0000
  Tb  Tb16      1.0  0.37600  0.10200  0.94200  1.0000
