data_image0
_chemical_formula_structural       H8K6Mo6O30V2
_chemical_formula_sum              "H8 K6 Mo6 O30 V2"
_cell_length_a       9.14653
_cell_length_b       9.60966
_cell_length_c       9.60966
_cell_angle_alpha    97.508
_cell_angle_beta     117.87
_cell_angle_gamma    62.1301

_space_group_name_H-M_alt    "P 1"
_space_group_IT_number       1

loop_
  _space_group_symop_operation_xyz
  'x, y, z'

loop_
  _atom_site_type_symbol
  _atom_site_label
  _atom_site_symmetry_multiplicity
  _atom_site_fract_x
  _atom_site_fract_y
  _atom_site_fract_z
  _atom_site_occupancy
  H   H1        1.0  0.18100  0.57900  0.25200  1.0000
  H   H2        1.0  0.22800  0.42000  0.32800  1.0000
  H   H3        1.0  0.77200  0.32800  0.42000  1.0000
  H   H4        1.0  0.18100  0.74800  0.42100  1.0000
  H   H5        1.0  0.81900  0.25200  0.57900  1.0000
  H   H6        1.0  0.22800  0.67200  0.58000  1.0000
  H   H7        1.0  0.77200  0.58000  0.67200  1.0000
  H   H8        1.0  0.81900  0.42100  0.74800  1.0000
  K   K1        1.0  0.50000  0.00000  0.00000  1.0000
  K   K2        1.0  0.77600  0.59400  0.01830  1.0000
  K   K3        1.0  0.77600  0.98200  0.40600  1.0000
  K   K4        1.0  0.00000  0.50000  0.50000  1.0000
  K   K5        1.0  0.22400  0.01830  0.59400  1.0000
  K   K6        1.0  0.22400  0.40600  0.98200  1.0000
  Mo  Mo1       1.0  0.76900  0.24900  0.11100  1.0000
  Mo  Mo2       1.0  0.23100  0.11100  0.24900  1.0000
  Mo  Mo3       1.0  0.47100  0.72200  0.27800  1.0000
  Mo  Mo4       1.0  0.52900  0.27800  0.72200  1.0000
  Mo  Mo5       1.0  0.76900  0.88900  0.75100  1.0000
  Mo  Mo6       1.0  0.23100  0.75100  0.88900  1.0000
  O   O1        1.0  0.00091  0.23900  0.05870  1.0000
  O   O2        1.0  0.19400  0.93800  0.06180  1.0000
  O   O3        1.0  0.39100  0.62100  0.08900  1.0000
  O   O4        1.0  0.61100  0.21800  0.13800  1.0000
  O   O5        1.0  0.85700  0.84700  0.15300  1.0000
  O   O6        1.0  0.38900  0.13800  0.21800  1.0000
  O   O7        1.0  0.14300  0.49400  0.23100  1.0000
  O   O8        1.0  0.80300  0.39500  0.23100  1.0000
  O   O9        1.0  0.99900  0.05870  0.23900  1.0000
  O   O10       1.0  0.61900  0.76100  0.23900  1.0000
  O   O11       1.0  0.21600  0.74100  0.25900  1.0000
  O   O12       1.0  0.39100  0.91100  0.37900  1.0000
  O   O13       1.0  0.19700  0.23100  0.39500  1.0000
  O   O14       1.0  0.61800  0.56800  0.43200  1.0000
  O   O15       1.0  0.85700  0.23100  0.49400  1.0000
  O   O16       1.0  0.14300  0.76900  0.50600  1.0000
  O   O17       1.0  0.38200  0.43200  0.56800  1.0000
  O   O18       1.0  0.80300  0.76900  0.60500  1.0000
  O   O19       1.0  0.60900  0.08900  0.62100  1.0000
  O   O20       1.0  0.78400  0.25900  0.74100  1.0000
  O   O21       1.0  0.38100  0.23900  0.76100  1.0000
  O   O22       1.0  0.00091  0.94100  0.76100  1.0000
  O   O23       1.0  0.19700  0.60500  0.76900  1.0000
  O   O24       1.0  0.85700  0.50600  0.76900  1.0000
  O   O25       1.0  0.61100  0.86200  0.78200  1.0000
  O   O26       1.0  0.14300  0.15300  0.84700  1.0000
  O   O27       1.0  0.38900  0.78200  0.86200  1.0000
  O   O28       1.0  0.60900  0.37900  0.91100  1.0000
  O   O29       1.0  0.80600  0.06180  0.93800  1.0000
  O   O30       1.0  0.99900  0.76100  0.94100  1.0000
  V   V1        1.0  0.99600  0.88300  0.11700  1.0000
  V   V2        1.0  0.00369  0.11700  0.88300  1.0000
