data_image0
_chemical_formula_structural       La2Nb14O38
_chemical_formula_sum              "La2 Nb14 O38"
_cell_length_a       6.26951
_cell_length_b       6.26952
_cell_length_c       20.1615
_cell_angle_alpha    90
_cell_angle_beta     90
_cell_angle_gamma    120

_space_group_name_H-M_alt    "P 1"
_space_group_IT_number       1

loop_
  _space_group_symop_operation_xyz
  'x, y, z'

loop_
  _atom_site_type_symbol
  _atom_site_label
  _atom_site_symmetry_multiplicity
  _atom_site_fract_x
  _atom_site_fract_y
  _atom_site_fract_z
  _atom_site_occupancy
  La  La1       1.0  0.00000  0.00000  0.00000  1.0000
  La  La2       1.0  0.66700  0.33300  0.30600  1.0000
  Nb  Nb1       1.0  0.33300  0.30900  0.15300  1.0000
  Nb  Nb2       1.0  0.69100  0.02410  0.15300  1.0000
  Nb  Nb3       1.0  0.97600  0.66700  0.15300  1.0000
  Nb  Nb4       1.0  0.00000  0.00000  0.31200  1.0000
  Nb  Nb5       1.0  0.33600  0.02940  0.46500  1.0000
  Nb  Nb6       1.0  0.69400  0.66400  0.46500  1.0000
  Nb  Nb7       1.0  0.97100  0.30600  0.46500  1.0000
  Nb  Nb8       1.0  0.33300  0.02900  0.65300  1.0000
  Nb  Nb9       1.0  0.69600  0.66700  0.65300  1.0000
  Nb  Nb10      1.0  0.97100  0.30400  0.65300  1.0000
  Nb  Nb11      1.0  0.97300  0.30400  0.84200  1.0000
  Nb  Nb12      1.0  0.33100  0.02700  0.84200  1.0000
  Nb  Nb13      1.0  0.69600  0.66900  0.84200  1.0000
  Nb  Nb14      1.0  0.66700  0.33300  0.99400  1.0000
  O   O1        1.0  0.90100  0.61100  0.05800  1.0000
  O   O2        1.0  0.38900  0.29000  0.05800  1.0000
  O   O3        1.0  0.71000  0.09940  0.05800  1.0000
  O   O4        1.0  0.00000  0.00000  0.12900  1.0000
  O   O5        1.0  0.33300  0.91300  0.15300  1.0000
  O   O6        1.0  0.57900  0.66700  0.15300  1.0000
  O   O7        1.0  0.08720  0.42100  0.15300  1.0000
  O   O8        1.0  0.66700  0.33300  0.17700  1.0000
  O   O9        1.0  0.76600  0.04360  0.24800  1.0000
  O   O10       1.0  0.27800  0.23400  0.24800  1.0000
  O   O11       1.0  0.95600  0.72200  0.24800  1.0000
  O   O12       1.0  0.96300  0.24600  0.36100  1.0000
  O   O13       1.0  0.28300  0.03690  0.36100  1.0000
  O   O14       1.0  0.75400  0.71700  0.36100  1.0000
  O   O15       1.0  0.66700  0.33300  0.43500  1.0000
  O   O16       1.0  0.08480  0.66700  0.46000  1.0000
  O   O17       1.0  0.58200  0.91500  0.46000  1.0000
  O   O18       1.0  0.33300  0.41800  0.46000  1.0000
  O   O19       1.0  0.00000  0.00000  0.47200  1.0000
  O   O20       1.0  0.91300  0.28900  0.55600  1.0000
  O   O21       1.0  0.37700  0.08720  0.55600  1.0000
  O   O22       1.0  0.71100  0.62300  0.55600  1.0000
  O   O23       1.0  0.00000  0.00000  0.63800  1.0000
  O   O24       1.0  0.08760  0.66700  0.65300  1.0000
  O   O25       1.0  0.33300  0.42100  0.65300  1.0000
  O   O26       1.0  0.57900  0.91200  0.65300  1.0000
  O   O27       1.0  0.66700  0.33300  0.66800  1.0000
  O   O28       1.0  0.75400  0.71000  0.75000  1.0000
  O   O29       1.0  0.95600  0.24600  0.75000  1.0000
  O   O30       1.0  0.29000  0.04400  0.75000  1.0000
  O   O31       1.0  0.66700  0.33300  0.83500  1.0000
  O   O32       1.0  0.58200  0.91500  0.84700  1.0000
  O   O33       1.0  0.08460  0.66600  0.84700  1.0000
  O   O34       1.0  0.33400  0.41800  0.84700  1.0000
  O   O35       1.0  0.00000  0.00000  0.87100  1.0000
  O   O36       1.0  0.70400  0.61700  0.94500  1.0000
  O   O37       1.0  0.91300  0.29600  0.94500  1.0000
  O   O38       1.0  0.38300  0.08720  0.94500  1.0000
