data_image0
_chemical_formula_structural       Ba10Na4O28Ru6
_chemical_formula_sum              "Ba10 Na4 O28 Ru6"
_cell_length_a       5.90116
_cell_length_b       5.85805
_cell_length_c       24.2296
_cell_angle_alpha    90
_cell_angle_beta     90
_cell_angle_gamma    59.7563

_space_group_name_H-M_alt    "P 1"
_space_group_IT_number       1

loop_
  _space_group_symop_operation_xyz
  'x, y, z'

loop_
  _atom_site_type_symbol
  _atom_site_label
  _atom_site_symmetry_multiplicity
  _atom_site_fract_x
  _atom_site_fract_y
  _atom_site_fract_z
  _atom_site_occupancy
  Ba  Ba1       1.0  0.65600  0.68800  0.05880  1.0000
  Ba  Ba2       1.0  0.99900  0.00223  0.16900  1.0000
  Ba  Ba3       1.0  0.32700  0.34500  0.25600  1.0000
  Ba  Ba4       1.0  0.98600  0.02880  0.34800  1.0000
  Ba  Ba5       1.0  0.66200  0.67600  0.45200  1.0000
  Ba  Ba6       1.0  0.34400  0.31200  0.55900  1.0000
  Ba  Ba7       1.0  0.00112  0.99800  0.66900  1.0000
  Ba  Ba8       1.0  0.67300  0.65500  0.75600  1.0000
  Ba  Ba9       1.0  0.01440  0.97100  0.84800  1.0000
  Ba  Ba10      1.0  0.33800  0.32400  0.95200  1.0000
  Na  Na1       1.0  0.33200  0.33700  0.10200  1.0000
  Na  Na2       1.0  0.33100  0.33700  0.40800  1.0000
  Na  Na3       1.0  0.66800  0.66300  0.60200  1.0000
  Na  Na4       1.0  0.66900  0.66300  0.90800  1.0000
  O   O1        1.0  0.10400  0.24000  0.03540  1.0000
  O   O2        1.0  0.65600  0.24000  0.03540  1.0000
  O   O3        1.0  0.12200  0.75700  0.06710  1.0000
  O   O4        1.0  0.51500  0.97000  0.15500  1.0000
  O   O5        1.0  0.51900  0.49100  0.16100  1.0000
  O   O6        1.0  0.98900  0.49100  0.16100  1.0000
  O   O7        1.0  0.35800  0.82800  0.25500  1.0000
  O   O8        1.0  0.81400  0.82800  0.25500  1.0000
  O   O9        1.0  0.81500  0.36900  0.26000  1.0000
  O   O10       1.0  0.49200  0.01510  0.35000  1.0000
  O   O11       1.0  0.48600  0.54700  0.35700  1.0000
  O   O12       1.0  0.96700  0.54700  0.35700  1.0000
  O   O13       1.0  0.15200  0.14800  0.46100  1.0000
  O   O14       1.0  0.70100  0.14800  0.46100  1.0000
  O   O15       1.0  0.34400  0.76000  0.53500  1.0000
  O   O16       1.0  0.89600  0.76000  0.53500  1.0000
  O   O17       1.0  0.87800  0.24300  0.56700  1.0000
  O   O18       1.0  0.48500  0.03050  0.65500  1.0000
  O   O19       1.0  0.01070  0.50900  0.66100  1.0000
  O   O20       1.0  0.48100  0.50900  0.66100  1.0000
  O   O21       1.0  0.18600  0.17200  0.75500  1.0000
  O   O22       1.0  0.64200  0.17200  0.75500  1.0000
  O   O23       1.0  0.18500  0.63100  0.76000  1.0000
  O   O24       1.0  0.50800  0.98500  0.85000  1.0000
  O   O25       1.0  0.03310  0.45300  0.85700  1.0000
  O   O26       1.0  0.51400  0.45300  0.85700  1.0000
  O   O27       1.0  0.29900  0.85200  0.96100  1.0000
  O   O28       1.0  0.84800  0.85200  0.96100  1.0000
  Ru  Ru1       1.0  0.00322  0.99400  0.01050  1.0000
  Ru  Ru2       1.0  0.66900  0.66300  0.19900  1.0000
  Ru  Ru3       1.0  0.65600  0.68800  0.31300  1.0000
  Ru  Ru4       1.0  0.99700  0.00644  0.51100  1.0000
  Ru  Ru5       1.0  0.33100  0.33700  0.69900  1.0000
  Ru  Ru6       1.0  0.34400  0.31200  0.81300  1.0000
