data_image0
_chemical_formula_structural       Mo20Nd4O32
_chemical_formula_sum              "Mo20 Nd4 O32"
_cell_length_a       7.58311
_cell_length_b       9.08309
_cell_length_c       9.91382
_cell_angle_alpha    90
_cell_angle_beta     109.514
_cell_angle_gamma    90

_space_group_name_H-M_alt    "P 1"
_space_group_IT_number       1

loop_
  _space_group_symop_operation_xyz
  'x, y, z'

loop_
  _atom_site_type_symbol
  _atom_site_label
  _atom_site_symmetry_multiplicity
  _atom_site_fract_x
  _atom_site_fract_y
  _atom_site_fract_z
  _atom_site_occupancy
  Mo  Mo1       1.0  0.39600  0.38500  0.01300  1.0000
  Mo  Mo2       1.0  0.99700  0.62300  0.08580  1.0000
  Mo  Mo3       1.0  0.82800  0.37200  0.11700  1.0000
  Mo  Mo4       1.0  0.38400  0.61800  0.17600  1.0000
  Mo  Mo5       1.0  0.19300  0.37000  0.20100  1.0000
  Mo  Mo6       1.0  0.80700  0.87000  0.29900  1.0000
  Mo  Mo7       1.0  0.61600  0.11800  0.32400  1.0000
  Mo  Mo8       1.0  0.17200  0.87200  0.38300  1.0000
  Mo  Mo9       1.0  0.00264  0.12300  0.41400  1.0000
  Mo  Mo10      1.0  0.60400  0.88500  0.48700  1.0000
  Mo  Mo11      1.0  0.39600  0.11500  0.51300  1.0000
  Mo  Mo12      1.0  0.99700  0.87700  0.58600  1.0000
  Mo  Mo13      1.0  0.82800  0.12800  0.61700  1.0000
  Mo  Mo14      1.0  0.38400  0.88200  0.67600  1.0000
  Mo  Mo15      1.0  0.19300  0.13000  0.70100  1.0000
  Mo  Mo16      1.0  0.80700  0.63000  0.79900  1.0000
  Mo  Mo17      1.0  0.61600  0.38200  0.82400  1.0000
  Mo  Mo18      1.0  0.17200  0.62800  0.88300  1.0000
  Mo  Mo19      1.0  0.00264  0.37700  0.91400  1.0000
  Mo  Mo20      1.0  0.60400  0.61500  0.98700  1.0000
  Nd  Nd1       1.0  0.26500  0.99700  0.03530  1.0000
  Nd  Nd2       1.0  0.73500  0.49700  0.46500  1.0000
  Nd  Nd3       1.0  0.26500  0.50300  0.53500  1.0000
  Nd  Nd4       1.0  0.73500  0.00304  0.96500  1.0000
  O   O1        1.0  0.39100  0.75600  0.01200  1.0000
  O   O2        1.0  0.00122  0.21900  0.06620  1.0000
  O   O3        1.0  0.79500  0.76000  0.11300  1.0000
  O   O4        1.0  0.60000  0.99500  0.15000  1.0000
  O   O5        1.0  0.39300  0.23400  0.17000  1.0000
  O   O6        1.0  0.62000  0.49300  0.17600  1.0000
  O   O7        1.0  0.20100  0.76100  0.20800  1.0000
  O   O8        1.0  0.98400  0.00295  0.22900  1.0000
  O   O9        1.0  0.01620  0.50300  0.27100  1.0000
  O   O10       1.0  0.79900  0.26100  0.29200  1.0000
  O   O11       1.0  0.38000  0.99300  0.32400  1.0000
  O   O12       1.0  0.60700  0.73400  0.33000  1.0000
  O   O13       1.0  0.40000  0.49500  0.35000  1.0000
  O   O14       1.0  0.20500  0.26000  0.38700  1.0000
  O   O15       1.0  0.99900  0.71900  0.43400  1.0000
  O   O16       1.0  0.60900  0.25600  0.48800  1.0000
  O   O17       1.0  0.39100  0.74400  0.51200  1.0000
  O   O18       1.0  0.00122  0.28100  0.56600  1.0000
  O   O19       1.0  0.79500  0.74000  0.61300  1.0000
  O   O20       1.0  0.60000  0.50500  0.65000  1.0000
  O   O21       1.0  0.39300  0.26600  0.67000  1.0000
  O   O22       1.0  0.62000  0.00722  0.67600  1.0000
  O   O23       1.0  0.20100  0.73900  0.70800  1.0000
  O   O24       1.0  0.98400  0.49700  0.72900  1.0000
  O   O25       1.0  0.01620  0.99700  0.77100  1.0000
  O   O26       1.0  0.79900  0.23900  0.79200  1.0000
  O   O27       1.0  0.38000  0.50700  0.82400  1.0000
  O   O28       1.0  0.60700  0.76600  0.83000  1.0000
  O   O29       1.0  0.40000  0.00547  0.85000  1.0000
  O   O30       1.0  0.20500  0.24000  0.88700  1.0000
  O   O31       1.0  0.99900  0.78100  0.93400  1.0000
  O   O32       1.0  0.60900  0.24400  0.98800  1.0000
