data_image0
_chemical_formula_structural       Nb10O34Sr10
_chemical_formula_sum              "Nb10 O34 Sr10"
_cell_length_a       32.5594
_cell_length_b       5.69226
_cell_length_c       4.02963
_cell_angle_alpha    90
_cell_angle_beta     90
_cell_angle_gamma    90

_space_group_name_H-M_alt    "P 1"
_space_group_IT_number       1

loop_
  _space_group_symop_operation_xyz
  'x, y, z'

loop_
  _atom_site_type_symbol
  _atom_site_label
  _atom_site_symmetry_multiplicity
  _atom_site_fract_x
  _atom_site_fract_y
  _atom_site_fract_z
  _atom_site_occupancy
  Nb  Nb1       1.0  0.00000  0.00000  0.00000  1.0000
  Nb  Nb2       1.0  0.17800  0.03300  0.00000  1.0000
  Nb  Nb3       1.0  0.90900  0.49600  0.00000  1.0000
  Nb  Nb4       1.0  0.09070  0.50400  0.00000  1.0000
  Nb  Nb5       1.0  0.82200  0.96700  0.00000  1.0000
  Nb  Nb6       1.0  0.40900  0.00379  0.50000  1.0000
  Nb  Nb7       1.0  0.67800  0.46700  0.50000  1.0000
  Nb  Nb8       1.0  0.50000  0.50000  0.50000  1.0000
  Nb  Nb9       1.0  0.32200  0.53300  0.50000  1.0000
  Nb  Nb10      1.0  0.59100  0.99600  0.50000  1.0000
  O   O1        1.0  0.58400  0.00887  0.00000  1.0000
  O   O2        1.0  0.77800  0.18400  0.00000  1.0000
  O   O3        1.0  0.12000  0.20000  0.00000  1.0000
  O   O4        1.0  0.95100  0.21900  0.00000  1.0000
  O   O5        1.0  0.86600  0.28100  0.00000  1.0000
  O   O6        1.0  0.03600  0.28600  0.00000  1.0000
  O   O7        1.0  0.21000  0.30100  0.00000  1.0000
  O   O8        1.0  0.67000  0.49900  0.00000  1.0000
  O   O9        1.0  0.50000  0.50000  0.00000  1.0000
  O   O10       1.0  0.33000  0.50100  0.00000  1.0000
  O   O11       1.0  0.79000  0.69900  0.00000  1.0000
  O   O12       1.0  0.96400  0.71400  0.00000  1.0000
  O   O13       1.0  0.13400  0.71900  0.00000  1.0000
  O   O14       1.0  0.04930  0.78100  0.00000  1.0000
  O   O15       1.0  0.88000  0.80000  0.00000  1.0000
  O   O16       1.0  0.22200  0.81600  0.00000  1.0000
  O   O17       1.0  0.41600  0.99100  0.00000  1.0000
  O   O18       1.0  0.00000  0.00000  0.50000  1.0000
  O   O19       1.0  0.17000  0.00136  0.50000  1.0000
  O   O20       1.0  0.71000  0.19900  0.50000  1.0000
  O   O21       1.0  0.53600  0.21400  0.50000  1.0000
  O   O22       1.0  0.36600  0.21900  0.50000  1.0000
  O   O23       1.0  0.45100  0.28100  0.50000  1.0000
  O   O24       1.0  0.62000  0.30000  0.50000  1.0000
  O   O25       1.0  0.27800  0.31600  0.50000  1.0000
  O   O26       1.0  0.08390  0.49100  0.50000  1.0000
  O   O27       1.0  0.91600  0.50900  0.50000  1.0000
  O   O28       1.0  0.72200  0.68400  0.50000  1.0000
  O   O29       1.0  0.38000  0.70000  0.50000  1.0000
  O   O30       1.0  0.54900  0.71900  0.50000  1.0000
  O   O31       1.0  0.63400  0.78100  0.50000  1.0000
  O   O32       1.0  0.46400  0.78600  0.50000  1.0000
  O   O33       1.0  0.29000  0.80100  0.50000  1.0000
  O   O34       1.0  0.83000  0.99900  0.50000  1.0000
  Sr  Sr1       1.0  0.50000  0.00000  0.00000  1.0000
  Sr  Sr2       1.0  0.28500  0.06730  0.00000  1.0000
  Sr  Sr3       1.0  0.41000  0.49500  0.00000  1.0000
  Sr  Sr4       1.0  0.59000  0.50500  0.00000  1.0000
  Sr  Sr5       1.0  0.71500  0.93300  0.00000  1.0000
  Sr  Sr6       1.0  0.91000  0.00518  0.50000  1.0000
  Sr  Sr7       1.0  0.78500  0.43300  0.50000  1.0000
  Sr  Sr8       1.0  0.00000  0.50000  0.50000  1.0000
  Sr  Sr9       1.0  0.21500  0.56700  0.50000  1.0000
  Sr  Sr10      1.0  0.09020  0.99500  0.50000  1.0000
