data_image0
_chemical_formula_structural       Ce4Mo20O32
_chemical_formula_sum              "Ce4 Mo20 O32"
_cell_length_a       7.59007
_cell_length_b       9.11878
_cell_length_c       9.92585
_cell_angle_alpha    90
_cell_angle_beta     109.223
_cell_angle_gamma    90

_space_group_name_H-M_alt    "P 1"
_space_group_IT_number       1

loop_
  _space_group_symop_operation_xyz
  'x, y, z'

loop_
  _atom_site_type_symbol
  _atom_site_label
  _atom_site_symmetry_multiplicity
  _atom_site_fract_x
  _atom_site_fract_y
  _atom_site_fract_z
  _atom_site_occupancy
  Ce  Ce1       1.0  0.26100  0.99700  0.03880  1.0000
  Ce  Ce2       1.0  0.73900  0.49700  0.46100  1.0000
  Ce  Ce3       1.0  0.26100  0.50300  0.53900  1.0000
  Ce  Ce4       1.0  0.73900  0.00335  0.96100  1.0000
  Mo  Mo1       1.0  0.39600  0.38500  0.01330  1.0000
  Mo  Mo2       1.0  0.99700  0.62200  0.08570  1.0000
  Mo  Mo3       1.0  0.82800  0.37200  0.11700  1.0000
  Mo  Mo4       1.0  0.38300  0.61800  0.17600  1.0000
  Mo  Mo5       1.0  0.19200  0.37100  0.20100  1.0000
  Mo  Mo6       1.0  0.80800  0.87100  0.29900  1.0000
  Mo  Mo7       1.0  0.61700  0.11800  0.32400  1.0000
  Mo  Mo8       1.0  0.17200  0.87200  0.38300  1.0000
  Mo  Mo9       1.0  0.00311  0.12200  0.41400  1.0000
  Mo  Mo10      1.0  0.60400  0.88500  0.48700  1.0000
  Mo  Mo11      1.0  0.39600  0.11500  0.51300  1.0000
  Mo  Mo12      1.0  0.99700  0.87800  0.58600  1.0000
  Mo  Mo13      1.0  0.82800  0.12800  0.61700  1.0000
  Mo  Mo14      1.0  0.38300  0.88200  0.67600  1.0000
  Mo  Mo15      1.0  0.19200  0.12900  0.70100  1.0000
  Mo  Mo16      1.0  0.80800  0.62900  0.79900  1.0000
  Mo  Mo17      1.0  0.61700  0.38200  0.82400  1.0000
  Mo  Mo18      1.0  0.17200  0.62800  0.88300  1.0000
  Mo  Mo19      1.0  0.00311  0.37800  0.91400  1.0000
  Mo  Mo20      1.0  0.60400  0.61500  0.98700  1.0000
  O   O1        1.0  0.39200  0.75500  0.01190  1.0000
  O   O2        1.0  0.00157  0.22000  0.06620  1.0000
  O   O3        1.0  0.79400  0.75800  0.11400  1.0000
  O   O4        1.0  0.60200  0.99500  0.15100  1.0000
  O   O5        1.0  0.39500  0.23600  0.17100  1.0000
  O   O6        1.0  0.61900  0.49300  0.17500  1.0000
  O   O7        1.0  0.20000  0.76000  0.20900  1.0000
  O   O8        1.0  0.98700  0.00248  0.23000  1.0000
  O   O9        1.0  0.01340  0.50200  0.27000  1.0000
  O   O10       1.0  0.80000  0.26000  0.29100  1.0000
  O   O11       1.0  0.38100  0.99300  0.32500  1.0000
  O   O12       1.0  0.60500  0.73600  0.32900  1.0000
  O   O13       1.0  0.39800  0.49500  0.34900  1.0000
  O   O14       1.0  0.20600  0.25800  0.38600  1.0000
  O   O15       1.0  0.99800  0.72000  0.43400  1.0000
  O   O16       1.0  0.60800  0.25500  0.48800  1.0000
  O   O17       1.0  0.39200  0.74500  0.51200  1.0000
  O   O18       1.0  0.00157  0.28000  0.56600  1.0000
  O   O19       1.0  0.79400  0.74200  0.61400  1.0000
  O   O20       1.0  0.60200  0.50500  0.65100  1.0000
  O   O21       1.0  0.39500  0.26400  0.67100  1.0000
  O   O22       1.0  0.61900  0.00710  0.67500  1.0000
  O   O23       1.0  0.20000  0.74000  0.70900  1.0000
  O   O24       1.0  0.98700  0.49800  0.73000  1.0000
  O   O25       1.0  0.01340  0.99800  0.77000  1.0000
  O   O26       1.0  0.80000  0.24000  0.79100  1.0000
  O   O27       1.0  0.38100  0.50700  0.82500  1.0000
  O   O28       1.0  0.60500  0.76400  0.82900  1.0000
  O   O29       1.0  0.39800  0.00527  0.84900  1.0000
  O   O30       1.0  0.20600  0.24200  0.88600  1.0000
  O   O31       1.0  0.99800  0.78000  0.93400  1.0000
  O   O32       1.0  0.60800  0.24500  0.98800  1.0000
