data_image0
_chemical_formula_structural       Ce4K12P8S32
_chemical_formula_sum              "Ce4 K12 P8 S32"
_cell_length_a       9.19054
_cell_length_b       17.1899
_cell_length_c       9.57507
_cell_angle_alpha    90
_cell_angle_beta     89.9223
_cell_angle_gamma    90

_space_group_name_H-M_alt    "P 1"
_space_group_IT_number       1

loop_
  _space_group_symop_operation_xyz
  'x, y, z'

loop_
  _atom_site_type_symbol
  _atom_site_label
  _atom_site_symmetry_multiplicity
  _atom_site_fract_x
  _atom_site_fract_y
  _atom_site_fract_z
  _atom_site_occupancy
  Ce  Ce1       1.0  0.77400  0.01370  0.02980  1.0000
  Ce  Ce2       1.0  0.22600  0.51400  0.47000  1.0000
  Ce  Ce3       1.0  0.77400  0.48600  0.53000  1.0000
  Ce  Ce4       1.0  0.22600  0.98600  0.97000  1.0000
  K   K1        1.0  0.27000  0.47100  0.01420  1.0000
  K   K2        1.0  0.88000  0.29500  0.12500  1.0000
  K   K3        1.0  0.38500  0.21100  0.13100  1.0000
  K   K4        1.0  0.61500  0.71100  0.36900  1.0000
  K   K5        1.0  0.12000  0.79500  0.37500  1.0000
  K   K6        1.0  0.73000  0.97100  0.48600  1.0000
  K   K7        1.0  0.27000  0.02860  0.51400  1.0000
  K   K8        1.0  0.88000  0.20500  0.62500  1.0000
  K   K9        1.0  0.38500  0.28900  0.63100  1.0000
  K   K10       1.0  0.61500  0.78900  0.86900  1.0000
  K   K11       1.0  0.12000  0.70500  0.87500  1.0000
  K   K12       1.0  0.73000  0.52900  0.98600  1.0000
  P   P1        1.0  0.47600  0.90000  0.22200  1.0000
  P   P2        1.0  0.00694  0.10300  0.24600  1.0000
  P   P3        1.0  0.99300  0.60300  0.25400  1.0000
  P   P4        1.0  0.52400  0.40000  0.27800  1.0000
  P   P5        1.0  0.47600  0.60000  0.72200  1.0000
  P   P6        1.0  0.00694  0.39700  0.74600  1.0000
  P   P7        1.0  0.99300  0.89700  0.75400  1.0000
  P   P8        1.0  0.52400  0.09960  0.77800  1.0000
  S   S1        1.0  0.03810  0.12600  0.03560  1.0000
  S   S2        1.0  0.56500  0.37300  0.07660  1.0000
  S   S3        1.0  0.33600  0.84200  0.09130  1.0000
  S   S4        1.0  0.87300  0.67400  0.13200  1.0000
  S   S5        1.0  0.68700  0.87000  0.17500  1.0000
  S   S6        1.0  0.46100  0.01920  0.18200  1.0000
  S   S7        1.0  0.21100  0.61800  0.22100  1.0000
  S   S8        1.0  0.95100  0.48500  0.24600  1.0000
  S   S9        1.0  0.04860  0.98500  0.25400  1.0000
  S   S10       1.0  0.78900  0.11800  0.27900  1.0000
  S   S11       1.0  0.53900  0.51900  0.31800  1.0000
  S   S12       1.0  0.31300  0.37000  0.32500  1.0000
  S   S13       1.0  0.12700  0.17400  0.36800  1.0000
  S   S14       1.0  0.66400  0.34200  0.40900  1.0000
  S   S15       1.0  0.43500  0.87300  0.42300  1.0000
  S   S16       1.0  0.96200  0.62600  0.46400  1.0000
  S   S17       1.0  0.03810  0.37400  0.53600  1.0000
  S   S18       1.0  0.56500  0.12700  0.57700  1.0000
  S   S19       1.0  0.33600  0.65800  0.59100  1.0000
  S   S20       1.0  0.87300  0.82600  0.63200  1.0000
  S   S21       1.0  0.68700  0.63000  0.67500  1.0000
  S   S22       1.0  0.46100  0.48100  0.68200  1.0000
  S   S23       1.0  0.21100  0.88200  0.72100  1.0000
  S   S24       1.0  0.95100  0.01540  0.74600  1.0000
  S   S25       1.0  0.04860  0.51500  0.75400  1.0000
  S   S26       1.0  0.78900  0.38200  0.77900  1.0000
  S   S27       1.0  0.53900  0.98100  0.81800  1.0000
  S   S28       1.0  0.31300  0.13000  0.82500  1.0000
  S   S29       1.0  0.12700  0.32600  0.86800  1.0000
  S   S30       1.0  0.66400  0.15800  0.90900  1.0000
  S   S31       1.0  0.43500  0.62700  0.92300  1.0000
  S   S32       1.0  0.96200  0.87400  0.96400  1.0000
