data_image0
_chemical_formula_structural       Al4H32N16Na4
_chemical_formula_sum              "Al4 H32 N16 Na4"
_cell_length_a       6.81866
_cell_length_b       6.4557
_cell_length_c       14.0114
_cell_angle_alpha    90
_cell_angle_beta     88.6656
_cell_angle_gamma    90

_space_group_name_H-M_alt    "P 1"
_space_group_IT_number       1

loop_
  _space_group_symop_operation_xyz
  'x, y, z'

loop_
  _atom_site_type_symbol
  _atom_site_label
  _atom_site_symmetry_multiplicity
  _atom_site_fract_x
  _atom_site_fract_y
  _atom_site_fract_z
  _atom_site_occupancy
  Al  Al1       1.0  0.24700  0.28800  0.06700  1.0000
  Al  Al2       1.0  0.75300  0.78800  0.43300  1.0000
  Al  Al3       1.0  0.24700  0.21200  0.56700  1.0000
  Al  Al4       1.0  0.75300  0.71200  0.93300  1.0000
  H   H1        1.0  0.95700  0.52200  0.01100  1.0000
  H   H2        1.0  0.90300  0.32400  0.04870  1.0000
  H   H3        1.0  0.44600  0.14600  0.06470  1.0000
  H   H4        1.0  0.94600  0.82900  0.06710  1.0000
  H   H5        1.0  0.28900  0.77100  0.06820  1.0000
  H   H6        1.0  0.90800  0.09330  0.07640  1.0000
  H   H7        1.0  0.81500  0.64300  0.12200  1.0000
  H   H8        1.0  0.74900  0.88700  0.13100  1.0000
  H   H9        1.0  0.25100  0.38700  0.36900  1.0000
  H   H10       1.0  0.18500  0.14300  0.37800  1.0000
  H   H11       1.0  0.09250  0.59300  0.42400  1.0000
  H   H12       1.0  0.71100  0.27100  0.43200  1.0000
  H   H13       1.0  0.05410  0.32900  0.43300  1.0000
  H   H14       1.0  0.55400  0.64600  0.43500  1.0000
  H   H15       1.0  0.09730  0.82400  0.45100  1.0000
  H   H16       1.0  0.04350  0.02250  0.48900  1.0000
  H   H17       1.0  0.95700  0.97800  0.51100  1.0000
  H   H18       1.0  0.90300  0.17600  0.54900  1.0000
  H   H19       1.0  0.44600  0.35400  0.56500  1.0000
  H   H20       1.0  0.94600  0.67100  0.56700  1.0000
  H   H21       1.0  0.28900  0.72900  0.56800  1.0000
  H   H22       1.0  0.90800  0.40700  0.57600  1.0000
  H   H23       1.0  0.81500  0.85700  0.62200  1.0000
  H   H24       1.0  0.74900  0.61300  0.63100  1.0000
  H   H25       1.0  0.25100  0.11300  0.86900  1.0000
  H   H26       1.0  0.18500  0.35700  0.87800  1.0000
  H   H27       1.0  0.09250  0.90700  0.92400  1.0000
  H   H28       1.0  0.71100  0.22900  0.93200  1.0000
  H   H29       1.0  0.05410  0.17100  0.93300  1.0000
  H   H30       1.0  0.55400  0.85400  0.93500  1.0000
  H   H31       1.0  0.09730  0.67600  0.95100  1.0000
  H   H32       1.0  0.04350  0.47800  0.98900  1.0000
  N   N1        1.0  0.80000  0.78100  0.07610  1.0000
  N   N2        1.0  0.97300  0.22700  0.09620  1.0000
  N   N3        1.0  0.05370  0.98300  0.22100  1.0000
  N   N4        1.0  0.81100  0.56900  0.24800  1.0000
  N   N5        1.0  0.18900  0.06860  0.25200  1.0000
  N   N6        1.0  0.94600  0.48300  0.27900  1.0000
  N   N7        1.0  0.02660  0.72700  0.40400  1.0000
  N   N8        1.0  0.20000  0.28100  0.42400  1.0000
  N   N9        1.0  0.80000  0.71900  0.57600  1.0000
  N   N10       1.0  0.97300  0.27300  0.59600  1.0000
  N   N11       1.0  0.05370  0.51700  0.72100  1.0000
  N   N12       1.0  0.81100  0.93100  0.74800  1.0000
  N   N13       1.0  0.18900  0.43100  0.75200  1.0000
  N   N14       1.0  0.94600  0.01700  0.77900  1.0000
  N   N15       1.0  0.02660  0.77300  0.90400  1.0000
  N   N16       1.0  0.20000  0.21900  0.92400  1.0000
  Na  Na1       1.0  0.67400  0.23300  0.21200  1.0000
  Na  Na2       1.0  0.32600  0.73300  0.28800  1.0000
  Na  Na3       1.0  0.67400  0.26700  0.71200  1.0000
  Na  Na4       1.0  0.32600  0.76700  0.78800  1.0000
