data_image0
_chemical_formula_structural       B4Fe2O8
_chemical_formula_sum              "B4 Fe2 O8"
_cell_length_a       4.44567
_cell_length_b       5.53107
_cell_length_c       5.53107
_cell_angle_alpha    60.9475
_cell_angle_beta     106.27
_cell_angle_gamma    106.27

_space_group_name_H-M_alt    "P 1"
_space_group_IT_number       1

loop_
  _space_group_symop_operation_xyz
  'x, y, z'

loop_
  _atom_site_type_symbol
  _atom_site_label
  _atom_site_symmetry_multiplicity
  _atom_site_fract_x
  _atom_site_fract_y
  _atom_site_fract_z
  _atom_site_occupancy
  B   B1        1.0  0.37700  0.29500  0.08030  1.0000
  B   B2        1.0  0.87700  0.08030  0.29500  1.0000
  B   B3        1.0  0.12300  0.92000  0.70500  1.0000
  B   B4        1.0  0.62300  0.70500  0.92000  1.0000
  Fe  Fe1       1.0  0.25000  0.65700  0.34300  1.0000
  Fe  Fe2       1.0  0.75000  0.34300  0.65700  1.0000
  O   O1        1.0  0.03440  0.22700  0.05330  1.0000
  O   O2        1.0  0.52600  0.50600  0.20200  1.0000
  O   O3        1.0  0.53400  0.05330  0.22700  1.0000
  O   O4        1.0  0.97400  0.79800  0.49400  1.0000
  O   O5        1.0  0.02620  0.20200  0.50600  1.0000
  O   O6        1.0  0.46600  0.94700  0.77300  1.0000
  O   O7        1.0  0.47400  0.49400  0.79800  1.0000
  O   O8        1.0  0.96600  0.77300  0.94700  1.0000
