data_image0
_chemical_formula_structural       Al12Gd4O32Pb8
_chemical_formula_sum              "Al12 Gd4 O32 Pb8"
_cell_length_a       9.4522
_cell_length_b       9.4522
_cell_length_c       9.4522
_cell_angle_alpha    90
_cell_angle_beta     90
_cell_angle_gamma    90

_space_group_name_H-M_alt    "P 1"
_space_group_IT_number       1

loop_
  _space_group_symop_operation_xyz
  'x, y, z'

loop_
  _atom_site_type_symbol
  _atom_site_label
  _atom_site_symmetry_multiplicity
  _atom_site_fract_x
  _atom_site_fract_y
  _atom_site_fract_z
  _atom_site_occupancy
  Al  Al1       1.0  0.75000  0.25000  0.00000  1.0000
  Al  Al2       1.0  0.25000  0.75000  0.00000  1.0000
  Al  Al3       1.0  0.75000  0.00000  0.25000  1.0000
  Al  Al4       1.0  0.75000  0.50000  0.25000  1.0000
  Al  Al5       1.0  0.00000  0.75000  0.25000  1.0000
  Al  Al6       1.0  0.50000  0.75000  0.25000  1.0000
  Al  Al7       1.0  0.75000  0.25000  0.50000  1.0000
  Al  Al8       1.0  0.25000  0.75000  0.50000  1.0000
  Al  Al9       1.0  0.25000  0.00000  0.75000  1.0000
  Al  Al10      1.0  0.00000  0.25000  0.75000  1.0000
  Al  Al11      1.0  0.50000  0.25000  0.75000  1.0000
  Al  Al12      1.0  0.25000  0.50000  0.75000  1.0000
  Gd  Gd1       1.0  0.00000  0.00000  0.00000  1.0000
  Gd  Gd2       1.0  0.50000  0.50000  0.00000  1.0000
  Gd  Gd3       1.0  0.50000  0.00000  0.50000  1.0000
  Gd  Gd4       1.0  0.00000  0.50000  0.50000  1.0000
  O   O1        1.0  0.76400  0.09040  0.09040  1.0000
  O   O2        1.0  0.73600  0.41000  0.09040  1.0000
  O   O3        1.0  0.41000  0.73600  0.09040  1.0000
  O   O4        1.0  0.09040  0.76400  0.09040  1.0000
  O   O5        1.0  0.13800  0.13800  0.13800  1.0000
  O   O6        1.0  0.36200  0.36200  0.13800  1.0000
  O   O7        1.0  0.59000  0.59000  0.23600  1.0000
  O   O8        1.0  0.91000  0.91000  0.23600  1.0000
  O   O9        1.0  0.91000  0.59000  0.26400  1.0000
  O   O10       1.0  0.59000  0.91000  0.26400  1.0000
  O   O11       1.0  0.36200  0.13800  0.36200  1.0000
  O   O12       1.0  0.13800  0.36200  0.36200  1.0000
  O   O13       1.0  0.73600  0.09040  0.41000  1.0000
  O   O14       1.0  0.76400  0.41000  0.41000  1.0000
  O   O15       1.0  0.09040  0.73600  0.41000  1.0000
  O   O16       1.0  0.41000  0.76400  0.41000  1.0000
  O   O17       1.0  0.59000  0.23600  0.59000  1.0000
  O   O18       1.0  0.91000  0.26400  0.59000  1.0000
  O   O19       1.0  0.23600  0.59000  0.59000  1.0000
  O   O20       1.0  0.26400  0.91000  0.59000  1.0000
  O   O21       1.0  0.86200  0.63800  0.63800  1.0000
  O   O22       1.0  0.63800  0.86200  0.63800  1.0000
  O   O23       1.0  0.41000  0.09040  0.73600  1.0000
  O   O24       1.0  0.09040  0.41000  0.73600  1.0000
  O   O25       1.0  0.09040  0.09040  0.76400  1.0000
  O   O26       1.0  0.41000  0.41000  0.76400  1.0000
  O   O27       1.0  0.63800  0.63800  0.86200  1.0000
  O   O28       1.0  0.86200  0.86200  0.86200  1.0000
  O   O29       1.0  0.91000  0.23600  0.91000  1.0000
  O   O30       1.0  0.59000  0.26400  0.91000  1.0000
  O   O31       1.0  0.26400  0.59000  0.91000  1.0000
  O   O32       1.0  0.23600  0.91000  0.91000  1.0000
  Pb  Pb1       1.0  0.38500  0.11500  0.11500  1.0000
  Pb  Pb2       1.0  0.11500  0.38500  0.11500  1.0000
  Pb  Pb3       1.0  0.11500  0.11500  0.38500  1.0000
  Pb  Pb4       1.0  0.38500  0.38500  0.38500  1.0000
  Pb  Pb5       1.0  0.61500  0.61500  0.61500  1.0000
  Pb  Pb6       1.0  0.88500  0.88500  0.61500  1.0000
  Pb  Pb7       1.0  0.88500  0.61500  0.88500  1.0000
  Pb  Pb8       1.0  0.61500  0.88500  0.88500  1.0000
