data_image0
_chemical_formula_structural       F4H32K4O16
_chemical_formula_sum              "F4 H32 K4 O16"
_cell_length_a       6.5652
_cell_length_b       12.7646
_cell_length_c       6.40841
_cell_angle_alpha    90
_cell_angle_beta     90.6147
_cell_angle_gamma    90

_space_group_name_H-M_alt    "P 1"
_space_group_IT_number       1

loop_
  _space_group_symop_operation_xyz
  'x, y, z'

loop_
  _atom_site_type_symbol
  _atom_site_label
  _atom_site_symmetry_multiplicity
  _atom_site_fract_x
  _atom_site_fract_y
  _atom_site_fract_z
  _atom_site_occupancy
  F   F1        1.0  0.84100  0.86800  0.00763  1.0000
  F   F2        1.0  0.15900  0.36800  0.49200  1.0000
  F   F3        1.0  0.84100  0.63200  0.50800  1.0000
  F   F4        1.0  0.15900  0.13200  0.99200  1.0000
  H   H1        1.0  0.63100  0.12900  0.01490  1.0000
  H   H2        1.0  0.18700  0.39300  0.02020  1.0000
  H   H3        1.0  0.40400  0.16200  0.05970  1.0000
  H   H4        1.0  0.20100  0.01180  0.08830  1.0000
  H   H5        1.0  0.06840  0.91000  0.08990  1.0000
  H   H6        1.0  0.91200  0.75300  0.09730  1.0000
  H   H7        1.0  0.07830  0.16600  0.22500  1.0000
  H   H8        1.0  0.75100  0.91100  0.24600  1.0000
  H   H9        1.0  0.24900  0.41100  0.25400  1.0000
  H   H10       1.0  0.92200  0.66600  0.27500  1.0000
  H   H11       1.0  0.08800  0.25300  0.40300  1.0000
  H   H12       1.0  0.93200  0.41000  0.41000  1.0000
  H   H13       1.0  0.79900  0.51200  0.41200  1.0000
  H   H14       1.0  0.59600  0.66200  0.44000  1.0000
  H   H15       1.0  0.81300  0.89300  0.48000  1.0000
  H   H16       1.0  0.36900  0.62900  0.48500  1.0000
  H   H17       1.0  0.63100  0.37100  0.51500  1.0000
  H   H18       1.0  0.18700  0.10700  0.52000  1.0000
  H   H19       1.0  0.40400  0.33800  0.56000  1.0000
  H   H20       1.0  0.20100  0.48800  0.58800  1.0000
  H   H21       1.0  0.06840  0.59000  0.59000  1.0000
  H   H22       1.0  0.91200  0.74700  0.59700  1.0000
  H   H23       1.0  0.07830  0.33400  0.72500  1.0000
  H   H24       1.0  0.75100  0.58900  0.74600  1.0000
  H   H25       1.0  0.24900  0.08910  0.75400  1.0000
  H   H26       1.0  0.92200  0.83400  0.77500  1.0000
  H   H27       1.0  0.08800  0.24700  0.90300  1.0000
  H   H28       1.0  0.93200  0.08960  0.91000  1.0000
  H   H29       1.0  0.79900  0.98800  0.91200  1.0000
  H   H30       1.0  0.59600  0.83800  0.94000  1.0000
  H   H31       1.0  0.81300  0.60700  0.98000  1.0000
  H   H32       1.0  0.36900  0.87100  0.98500  1.0000
  K   K1        1.0  0.34000  0.63100  0.00347  1.0000
  K   K2        1.0  0.66000  0.13100  0.49700  1.0000
  K   K3        1.0  0.34000  0.86900  0.50300  1.0000
  K   K4        1.0  0.66000  0.36900  0.99700  1.0000
  O   O1        1.0  0.54600  0.17400  0.10600  1.0000
  O   O2        1.0  0.28600  0.43100  0.11200  1.0000
  O   O3        1.0  0.96600  0.68200  0.13100  1.0000
  O   O4        1.0  0.20400  0.93800  0.13200  1.0000
  O   O5        1.0  0.79600  0.43800  0.36800  1.0000
  O   O6        1.0  0.03360  0.18200  0.36900  1.0000
  O   O7        1.0  0.71400  0.93100  0.38800  1.0000
  O   O8        1.0  0.45400  0.67400  0.39400  1.0000
  O   O9        1.0  0.54600  0.32600  0.60600  1.0000
  O   O10       1.0  0.28600  0.06880  0.61200  1.0000
  O   O11       1.0  0.96600  0.81800  0.63100  1.0000
  O   O12       1.0  0.20400  0.56200  0.63200  1.0000
  O   O13       1.0  0.79600  0.06240  0.86800  1.0000
  O   O14       1.0  0.03360  0.31800  0.86900  1.0000
  O   O15       1.0  0.71400  0.56900  0.88800  1.0000
  O   O16       1.0  0.45400  0.82600  0.89400  1.0000
