data_image0
_chemical_formula_structural       Eu2Ga4Se8
_chemical_formula_sum              "Eu2 Ga4 Se8"
_cell_length_a       6.24016
_cell_length_b       6.24016
_cell_length_c       10.8465
_cell_angle_alpha    90
_cell_angle_beta     90
_cell_angle_gamma    118.925

_space_group_name_H-M_alt    "P 1"
_space_group_IT_number       1

loop_
  _space_group_symop_operation_xyz
  'x, y, z'

loop_
  _atom_site_type_symbol
  _atom_site_label
  _atom_site_symmetry_multiplicity
  _atom_site_fract_x
  _atom_site_fract_y
  _atom_site_fract_z
  _atom_site_occupancy
  Eu  Eu1       1.0  0.50000  0.50000  0.25000  1.0000
  Eu  Eu2       1.0  0.50000  0.50000  0.75000  1.0000
  Ga  Ga1       1.0  0.76000  0.23600  0.00000  1.0000
  Ga  Ga2       1.0  0.24000  0.76400  0.00000  1.0000
  Ga  Ga3       1.0  0.76400  0.24000  0.50000  1.0000
  Ga  Ga4       1.0  0.23600  0.76000  0.50000  1.0000
  Se  Se1       1.0  0.19200  0.34700  0.00000  1.0000
  Se  Se2       1.0  0.80800  0.65300  0.00000  1.0000
  Se  Se3       1.0  0.50000  0.00000  0.17300  1.0000
  Se  Se4       1.0  0.00000  0.50000  0.32700  1.0000
  Se  Se5       1.0  0.34700  0.19200  0.50000  1.0000
  Se  Se6       1.0  0.65300  0.80800  0.50000  1.0000
  Se  Se7       1.0  0.00000  0.50000  0.67300  1.0000
  Se  Se8       1.0  0.50000  0.00000  0.82700  1.0000
