data_image0
_chemical_formula_structural       Be8Ga8H40
_chemical_formula_sum              "Be8 Ga8 H40"
_cell_length_a       8.19891
_cell_length_b       5.55448
_cell_length_c       13.6715
_cell_angle_alpha    90
_cell_angle_beta     86.0651
_cell_angle_gamma    90

_space_group_name_H-M_alt    "P 1"
_space_group_IT_number       1

loop_
  _space_group_symop_operation_xyz
  'x, y, z'

loop_
  _atom_site_type_symbol
  _atom_site_label
  _atom_site_symmetry_multiplicity
  _atom_site_fract_x
  _atom_site_fract_y
  _atom_site_fract_z
  _atom_site_occupancy
  Be  Be1       1.0  0.70000  0.85700  0.03300  1.0000
  Be  Be2       1.0  0.91400  0.58300  0.03990  1.0000
  Be  Be3       1.0  0.58600  0.08280  0.46000  1.0000
  Be  Be4       1.0  0.80000  0.35700  0.46700  1.0000
  Be  Be5       1.0  0.20000  0.64300  0.53300  1.0000
  Be  Be6       1.0  0.41400  0.91700  0.54000  1.0000
  Be  Be7       1.0  0.08590  0.41700  0.96000  1.0000
  Be  Be8       1.0  0.30000  0.14300  0.96700  1.0000
  Ga  Ga1       1.0  0.39300  0.90900  0.13100  1.0000
  Ga  Ga2       1.0  0.88100  0.86500  0.19400  1.0000
  Ga  Ga3       1.0  0.61900  0.36500  0.30600  1.0000
  Ga  Ga4       1.0  0.10700  0.40900  0.36900  1.0000
  Ga  Ga5       1.0  0.89300  0.59100  0.63100  1.0000
  Ga  Ga6       1.0  0.38100  0.63500  0.69400  1.0000
  Ga  Ga7       1.0  0.11900  0.13500  0.80600  1.0000
  Ga  Ga8       1.0  0.60700  0.09140  0.86900  1.0000
  H   H1        1.0  0.22900  0.35700  0.00768  1.0000
  H   H2        1.0  0.94100  0.33000  0.01680  1.0000
  H   H3        1.0  0.27800  0.94800  0.03620  1.0000
  H   H4        1.0  0.54000  0.76400  0.06080  1.0000
  H   H5        1.0  0.77900  0.99600  0.10500  1.0000
  H   H6        1.0  0.93600  0.59700  0.14300  1.0000
  H   H7        1.0  0.45600  0.15100  0.17000  1.0000
  H   H8        1.0  0.30600  0.69800  0.18600  1.0000
  H   H9        1.0  0.03570  0.02170  0.19600  1.0000
  H   H10       1.0  0.75200  0.29500  0.22500  1.0000
  H   H11       1.0  0.74800  0.79500  0.27500  1.0000
  H   H12       1.0  0.46400  0.52200  0.30400  1.0000
  H   H13       1.0  0.19400  0.19800  0.31400  1.0000
  H   H14       1.0  0.04440  0.65100  0.33000  1.0000
  H   H15       1.0  0.56400  0.09710  0.35700  1.0000
  H   H16       1.0  0.72100  0.49600  0.39500  1.0000
  H   H17       1.0  0.96000  0.26400  0.43900  1.0000
  H   H18       1.0  0.22200  0.44800  0.46400  1.0000
  H   H19       1.0  0.55900  0.83000  0.48300  1.0000
  H   H20       1.0  0.27100  0.85700  0.49200  1.0000
  H   H21       1.0  0.72900  0.14300  0.50800  1.0000
  H   H22       1.0  0.44100  0.17000  0.51700  1.0000
  H   H23       1.0  0.77800  0.55200  0.53600  1.0000
  H   H24       1.0  0.04040  0.73600  0.56100  1.0000
  H   H25       1.0  0.27900  0.50400  0.60500  1.0000
  H   H26       1.0  0.43600  0.90300  0.64300  1.0000
  H   H27       1.0  0.95600  0.34900  0.67000  1.0000
  H   H28       1.0  0.80600  0.80200  0.68600  1.0000
  H   H29       1.0  0.53600  0.47800  0.69600  1.0000
  H   H30       1.0  0.25200  0.20500  0.72500  1.0000
  H   H31       1.0  0.24800  0.70500  0.77500  1.0000
  H   H32       1.0  0.96400  0.97800  0.80400  1.0000
  H   H33       1.0  0.69400  0.30200  0.81400  1.0000
  H   H34       1.0  0.54400  0.84900  0.83000  1.0000
  H   H35       1.0  0.06370  0.40300  0.85700  1.0000
  H   H36       1.0  0.22100  0.00444  0.89500  1.0000
  H   H37       1.0  0.46000  0.23600  0.93900  1.0000
  H   H38       1.0  0.72200  0.05190  0.96400  1.0000
  H   H39       1.0  0.05910  0.67000  0.98300  1.0000
  H   H40       1.0  0.77100  0.64300  0.99200  1.0000
