data_image0
_chemical_formula_structural       Bi4Cs8O32P4W4
_chemical_formula_sum              "Bi4 Cs8 O32 P4 W4"
_cell_length_a       7.13501
_cell_length_b       12.5812
_cell_length_c       12.8163
_cell_angle_alpha    119.395
_cell_angle_beta     106.162
_cell_angle_gamma    90

_space_group_name_H-M_alt    "P 1"
_space_group_IT_number       1

loop_
  _space_group_symop_operation_xyz
  'x, y, z'

loop_
  _atom_site_type_symbol
  _atom_site_label
  _atom_site_symmetry_multiplicity
  _atom_site_fract_x
  _atom_site_fract_y
  _atom_site_fract_z
  _atom_site_occupancy
  Bi  Bi1       1.0  0.25000  0.16700  0.50000  1.0000
  Bi  Bi2       1.0  0.75000  0.33300  0.50000  1.0000
  Bi  Bi3       1.0  0.25000  0.66700  0.50000  1.0000
  Bi  Bi4       1.0  0.75000  0.83300  0.50000  1.0000
  Cs  Cs1       1.0  0.87200  0.25500  0.17900  1.0000
  Cs  Cs2       1.0  0.37200  0.42400  0.17900  1.0000
  Cs  Cs3       1.0  0.30800  0.75500  0.17900  1.0000
  Cs  Cs4       1.0  0.80800  0.92400  0.17900  1.0000
  Cs  Cs5       1.0  0.19200  0.07580  0.82100  1.0000
  Cs  Cs6       1.0  0.69200  0.24500  0.82100  1.0000
  Cs  Cs7       1.0  0.62800  0.57600  0.82100  1.0000
  Cs  Cs8       1.0  0.12800  0.74500  0.82100  1.0000
  O   O1        1.0  0.22900  0.15300  0.08510  1.0000
  O   O2        1.0  0.72900  0.43200  0.08510  1.0000
  O   O3        1.0  0.85600  0.65300  0.08510  1.0000
  O   O4        1.0  0.35600  0.93200  0.08510  1.0000
  O   O5        1.0  0.18600  0.10500  0.27700  1.0000
  O   O6        1.0  0.59100  0.17300  0.27700  1.0000
  O   O7        1.0  0.09140  0.60500  0.27700  1.0000
  O   O8        1.0  0.68600  0.67300  0.27700  1.0000
  O   O9        1.0  0.71600  0.44100  0.38400  1.0000
  O   O10       1.0  0.21600  0.44300  0.38400  1.0000
  O   O11       1.0  0.66800  0.94100  0.38400  1.0000
  O   O12       1.0  0.16800  0.94300  0.38400  1.0000
  O   O13       1.0  0.91000  0.14300  0.48300  1.0000
  O   O14       1.0  0.07270  0.34000  0.48300  1.0000
  O   O15       1.0  0.57300  0.64300  0.48300  1.0000
  O   O16       1.0  0.41000  0.84000  0.48300  1.0000
  O   O17       1.0  0.59000  0.16000  0.51700  1.0000
  O   O18       1.0  0.42700  0.35700  0.51700  1.0000
  O   O19       1.0  0.92700  0.66000  0.51700  1.0000
  O   O20       1.0  0.09000  0.85700  0.51700  1.0000
  O   O21       1.0  0.83200  0.05730  0.61600  1.0000
  O   O22       1.0  0.33200  0.05850  0.61600  1.0000
  O   O23       1.0  0.78400  0.55700  0.61600  1.0000
  O   O24       1.0  0.28400  0.55900  0.61600  1.0000
  O   O25       1.0  0.31400  0.32700  0.72300  1.0000
  O   O26       1.0  0.90900  0.39500  0.72300  1.0000
  O   O27       1.0  0.40900  0.82700  0.72300  1.0000
  O   O28       1.0  0.81400  0.89500  0.72300  1.0000
  O   O29       1.0  0.64400  0.06790  0.91500  1.0000
  O   O30       1.0  0.14400  0.34700  0.91500  1.0000
  O   O31       1.0  0.27100  0.56800  0.91500  1.0000
  O   O32       1.0  0.77100  0.84700  0.91500  1.0000
  P   P1        1.0  0.75000  0.07340  0.50000  1.0000
  P   P2        1.0  0.25000  0.42700  0.50000  1.0000
  P   P3        1.0  0.75000  0.57300  0.50000  1.0000
  P   P4        1.0  0.25000  0.92700  0.50000  1.0000
  W   W1        1.0  0.34100  0.09120  0.18200  1.0000
  W   W2        1.0  0.84100  0.59100  0.18200  1.0000
  W   W3        1.0  0.15900  0.40900  0.81800  1.0000
  W   W4        1.0  0.65900  0.90900  0.81800  1.0000
