data_image0
_chemical_formula_structural       Mg4O32Si8Sr12
_chemical_formula_sum              "Mg4 O32 Si8 Sr12"
_cell_length_a       13.8647
_cell_length_b       5.44725
_cell_length_c       9.41336
_cell_angle_alpha    90
_cell_angle_beta     90.5656
_cell_angle_gamma    90

_space_group_name_H-M_alt    "P 1"
_space_group_IT_number       1

loop_
  _space_group_symop_operation_xyz
  'x, y, z'

loop_
  _atom_site_type_symbol
  _atom_site_label
  _atom_site_symmetry_multiplicity
  _atom_site_fract_x
  _atom_site_fract_y
  _atom_site_fract_z
  _atom_site_occupancy
  Mg  Mg1       1.0  0.50000  0.25000  0.25000  1.0000
  Mg  Mg2       1.0  0.00000  0.25000  0.25000  1.0000
  Mg  Mg3       1.0  0.50000  0.75000  0.75000  1.0000
  Mg  Mg4       1.0  0.00037  0.75000  0.75000  1.0000
  O   O1        1.0  0.41800  0.21900  0.06820  1.0000
  O   O2        1.0  0.91800  0.28100  0.06820  1.0000
  O   O3        1.0  0.24700  0.82300  0.07750  1.0000
  O   O4        1.0  0.74700  0.67700  0.07750  1.0000
  O   O5        1.0  0.07720  0.96200  0.17300  1.0000
  O   O6        1.0  0.57700  0.53800  0.17300  1.0000
  O   O7        1.0  0.11200  0.48400  0.17500  1.0000
  O   O8        1.0  0.61200  0.01630  0.17500  1.0000
  O   O9        1.0  0.38700  0.48300  0.32500  1.0000
  O   O10       1.0  0.88700  0.01650  0.32500  1.0000
  O   O11       1.0  0.92200  0.53700  0.32800  1.0000
  O   O12       1.0  0.42200  0.96300  0.32800  1.0000
  O   O13       1.0  0.25200  0.82000  0.42200  1.0000
  O   O14       1.0  0.75200  0.68000  0.42200  1.0000
  O   O15       1.0  0.08290  0.21900  0.43200  1.0000
  O   O16       1.0  0.58300  0.28100  0.43200  1.0000
  O   O17       1.0  0.41700  0.71900  0.56800  1.0000
  O   O18       1.0  0.91700  0.78100  0.56800  1.0000
  O   O19       1.0  0.24800  0.32000  0.57800  1.0000
  O   O20       1.0  0.74800  0.18000  0.57800  1.0000
  O   O21       1.0  0.07800  0.46300  0.67200  1.0000
  O   O22       1.0  0.57800  0.03740  0.67200  1.0000
  O   O23       1.0  0.11300  0.98300  0.67500  1.0000
  O   O24       1.0  0.61300  0.51700  0.67500  1.0000
  O   O25       1.0  0.38800  0.98400  0.82500  1.0000
  O   O26       1.0  0.88800  0.51600  0.82500  1.0000
  O   O27       1.0  0.42300  0.46200  0.82700  1.0000
  O   O28       1.0  0.92300  0.03800  0.82700  1.0000
  O   O29       1.0  0.25300  0.32300  0.92200  1.0000
  O   O30       1.0  0.75300  0.17700  0.92200  1.0000
  O   O31       1.0  0.08230  0.71900  0.93200  1.0000
  O   O32       1.0  0.58200  0.78100  0.93200  1.0000
  Si  Si1       1.0  0.13500  0.73900  0.08880  1.0000
  Si  Si2       1.0  0.63500  0.76100  0.08880  1.0000
  Si  Si3       1.0  0.36400  0.73900  0.41100  1.0000
  Si  Si4       1.0  0.86400  0.76100  0.41100  1.0000
  Si  Si5       1.0  0.63600  0.26100  0.58900  1.0000
  Si  Si6       1.0  0.13600  0.23900  0.58900  1.0000
  Si  Si7       1.0  0.36500  0.23900  0.91100  1.0000
  Si  Si8       1.0  0.86500  0.26100  0.91100  1.0000
  Sr  Sr1       1.0  0.91400  0.76500  0.07800  1.0000
  Sr  Sr2       1.0  0.41400  0.73500  0.07800  1.0000
  Sr  Sr3       1.0  0.24900  0.19700  0.25100  1.0000
  Sr  Sr4       1.0  0.74900  0.30300  0.25100  1.0000
  Sr  Sr5       1.0  0.08570  0.73400  0.42200  1.0000
  Sr  Sr6       1.0  0.58600  0.76600  0.42200  1.0000
  Sr  Sr7       1.0  0.41400  0.23400  0.57800  1.0000
  Sr  Sr8       1.0  0.91400  0.26600  0.57800  1.0000
  Sr  Sr9       1.0  0.25100  0.69700  0.74900  1.0000
  Sr  Sr10      1.0  0.75100  0.80300  0.74900  1.0000
  Sr  Sr11      1.0  0.08640  0.23500  0.92200  1.0000
  Sr  Sr12      1.0  0.58600  0.26500  0.92200  1.0000
