data_image0
_chemical_formula_structural       In2Na6O16P4
_chemical_formula_sum              "In2 Na6 O16 P4"
_cell_length_a       8.62186
_cell_length_b       5.44081
_cell_length_c       6.9996
_cell_angle_alpha    90
_cell_angle_beta     89.9155
_cell_angle_gamma    90

_space_group_name_H-M_alt    "P 1"
_space_group_IT_number       1

loop_
  _space_group_symop_operation_xyz
  'x, y, z'

loop_
  _atom_site_type_symbol
  _atom_site_label
  _atom_site_symmetry_multiplicity
  _atom_site_fract_x
  _atom_site_fract_y
  _atom_site_fract_z
  _atom_site_occupancy
  In  In1       1.0  0.24900  0.25000  0.00018  1.0000
  In  In2       1.0  0.75100  0.75000  0.00000  1.0000
  Na  Na1       1.0  0.55900  0.25000  0.28300  1.0000
  Na  Na2       1.0  0.06010  0.75000  0.28900  1.0000
  Na  Na3       1.0  0.74800  0.75000  0.50000  1.0000
  Na  Na4       1.0  0.25200  0.25000  0.50000  1.0000
  Na  Na5       1.0  0.94000  0.25000  0.71100  1.0000
  Na  Na6       1.0  0.44100  0.75000  0.71700  1.0000
  O   O1        1.0  0.00066  0.25000  0.03790  1.0000
  O   O2        1.0  0.50400  0.75000  0.04240  1.0000
  O   O3        1.0  0.29400  0.51800  0.22500  1.0000
  O   O4        1.0  0.29400  0.98200  0.22500  1.0000
  O   O5        1.0  0.79300  0.01840  0.22600  1.0000
  O   O6        1.0  0.79300  0.48200  0.22600  1.0000
  O   O7        1.0  0.00378  0.25000  0.40000  1.0000
  O   O8        1.0  0.50000  0.75000  0.40500  1.0000
  O   O9        1.0  0.50000  0.25000  0.59500  1.0000
  O   O10       1.0  0.99600  0.75000  0.60000  1.0000
  O   O11       1.0  0.20700  0.51800  0.77400  1.0000
  O   O12       1.0  0.20700  0.98200  0.77400  1.0000
  O   O13       1.0  0.70600  0.01830  0.77500  1.0000
  O   O14       1.0  0.70600  0.48200  0.77500  1.0000
  O   O15       1.0  0.49600  0.25000  0.95800  1.0000
  O   O16       1.0  0.99900  0.75000  0.96200  1.0000
  P   P1        1.0  0.90200  0.25000  0.22300  1.0000
  P   P2        1.0  0.40200  0.75000  0.22500  1.0000
  P   P3        1.0  0.59800  0.25000  0.77500  1.0000
  P   P4        1.0  0.09760  0.75000  0.77700  1.0000
