data_image0
_chemical_formula_structural       B8C8F24K8N8
_chemical_formula_sum              "B8 C8 F24 K8 N8"
_cell_length_a       12.7816
_cell_length_b       6.31829
_cell_length_c       9.52637
_cell_angle_alpha    90
_cell_angle_beta     90
_cell_angle_gamma    90

_space_group_name_H-M_alt    "P 1"
_space_group_IT_number       1

loop_
  _space_group_symop_operation_xyz
  'x, y, z'

loop_
  _atom_site_type_symbol
  _atom_site_label
  _atom_site_symmetry_multiplicity
  _atom_site_fract_x
  _atom_site_fract_y
  _atom_site_fract_z
  _atom_site_occupancy
  B   B1        1.0  0.65100  0.13300  0.12900  1.0000
  B   B2        1.0  0.84900  0.63300  0.12900  1.0000
  B   B3        1.0  0.34900  0.13300  0.37100  1.0000
  B   B4        1.0  0.15100  0.63300  0.37100  1.0000
  B   B5        1.0  0.84900  0.36700  0.62900  1.0000
  B   B6        1.0  0.65100  0.86700  0.62900  1.0000
  B   B7        1.0  0.15100  0.36700  0.87100  1.0000
  B   B8        1.0  0.34900  0.86700  0.87100  1.0000
  C   C1        1.0  0.90800  0.41100  0.11700  1.0000
  C   C2        1.0  0.59200  0.91100  0.11700  1.0000
  C   C3        1.0  0.09190  0.41100  0.38300  1.0000
  C   C4        1.0  0.40800  0.91100  0.38300  1.0000
  C   C5        1.0  0.59200  0.08860  0.61700  1.0000
  C   C6        1.0  0.90800  0.58900  0.61700  1.0000
  C   C7        1.0  0.40800  0.08860  0.88300  1.0000
  C   C8        1.0  0.09190  0.58900  0.88300  1.0000
  F   F1        1.0  0.71200  0.16600  0.00842  1.0000
  F   F2        1.0  0.78800  0.66600  0.00842  1.0000
  F   F3        1.0  0.57700  0.29900  0.14100  1.0000
  F   F4        1.0  0.92300  0.79900  0.14100  1.0000
  F   F5        1.0  0.28600  0.13400  0.24900  1.0000
  F   F6        1.0  0.21400  0.63400  0.24900  1.0000
  F   F7        1.0  0.71400  0.13400  0.25100  1.0000
  F   F8        1.0  0.78600  0.63400  0.25100  1.0000
  F   F9        1.0  0.42300  0.29900  0.35900  1.0000
  F   F10       1.0  0.07710  0.79900  0.35900  1.0000
  F   F11       1.0  0.28800  0.16600  0.49200  1.0000
  F   F12       1.0  0.21200  0.66600  0.49200  1.0000
  F   F13       1.0  0.78800  0.33400  0.50800  1.0000
  F   F14       1.0  0.71200  0.83400  0.50800  1.0000
  F   F15       1.0  0.92300  0.20100  0.64100  1.0000
  F   F16       1.0  0.57700  0.70100  0.64100  1.0000
  F   F17       1.0  0.21400  0.36600  0.74900  1.0000
  F   F18       1.0  0.28600  0.86600  0.74900  1.0000
  F   F19       1.0  0.78600  0.36600  0.75100  1.0000
  F   F20       1.0  0.71400  0.86600  0.75100  1.0000
  F   F21       1.0  0.07710  0.20100  0.85900  1.0000
  F   F22       1.0  0.42300  0.70100  0.85900  1.0000
  F   F23       1.0  0.21200  0.33400  0.99200  1.0000
  F   F24       1.0  0.28800  0.83400  0.99200  1.0000
  K   K1        1.0  0.37800  0.49200  0.11900  1.0000
  K   K2        1.0  0.12200  0.99200  0.11900  1.0000
  K   K3        1.0  0.62200  0.49200  0.38100  1.0000
  K   K4        1.0  0.87800  0.99200  0.38100  1.0000
  K   K5        1.0  0.12200  0.00798  0.61900  1.0000
  K   K6        1.0  0.37800  0.50800  0.61900  1.0000
  K   K7        1.0  0.87800  0.00798  0.88100  1.0000
  K   K8        1.0  0.62200  0.50800  0.88100  1.0000
  N   N1        1.0  0.95100  0.25000  0.10900  1.0000
  N   N2        1.0  0.54900  0.75000  0.10900  1.0000
  N   N3        1.0  0.04880  0.25000  0.39100  1.0000
  N   N4        1.0  0.45100  0.75000  0.39100  1.0000
  N   N5        1.0  0.54900  0.25000  0.60900  1.0000
  N   N6        1.0  0.95100  0.75000  0.60900  1.0000
  N   N7        1.0  0.45100  0.25000  0.89100  1.0000
  N   N8        1.0  0.04880  0.75000  0.89100  1.0000
