data_image0
_chemical_formula_structural       In16Na16Sb24
_chemical_formula_sum              "In16 Na16 Sb24"
_cell_length_a       14.7246
_cell_length_b       7.61056
_cell_length_c       15.6806
_cell_angle_alpha    90
_cell_angle_beta     90.0557
_cell_angle_gamma    90

_space_group_name_H-M_alt    "P 1"
_space_group_IT_number       1

loop_
  _space_group_symop_operation_xyz
  'x, y, z'

loop_
  _atom_site_type_symbol
  _atom_site_label
  _atom_site_symmetry_multiplicity
  _atom_site_fract_x
  _atom_site_fract_y
  _atom_site_fract_z
  _atom_site_occupancy
  In  In1       1.0  0.31900  0.71200  0.14900  1.0000
  In  In2       1.0  0.18400  0.24100  0.16100  1.0000
  In  In3       1.0  0.09190  0.71600  0.22600  1.0000
  In  In4       1.0  0.41400  0.22900  0.24300  1.0000
  In  In5       1.0  0.58600  0.72900  0.25700  1.0000
  In  In6       1.0  0.90800  0.21600  0.27400  1.0000
  In  In7       1.0  0.81600  0.74100  0.33900  1.0000
  In  In8       1.0  0.68100  0.21200  0.35100  1.0000
  In  In9       1.0  0.31900  0.78800  0.64900  1.0000
  In  In10      1.0  0.18400  0.25900  0.66100  1.0000
  In  In11      1.0  0.09190  0.78400  0.72600  1.0000
  In  In12      1.0  0.41400  0.27100  0.74300  1.0000
  In  In13      1.0  0.58600  0.77100  0.75700  1.0000
  In  In14      1.0  0.90800  0.28400  0.77400  1.0000
  In  In15      1.0  0.81600  0.75900  0.83900  1.0000
  In  In16      1.0  0.68100  0.28800  0.85100  1.0000
  Na  Na1       1.0  0.85700  0.04810  0.01230  1.0000
  Na  Na2       1.0  0.65900  0.57700  0.02510  1.0000
  Na  Na3       1.0  0.56200  0.08980  0.08880  1.0000
  Na  Na4       1.0  0.91900  0.54900  0.11800  1.0000
  Na  Na5       1.0  0.08120  0.04880  0.38200  1.0000
  Na  Na6       1.0  0.43800  0.59000  0.41100  1.0000
  Na  Na7       1.0  0.34100  0.07710  0.47500  1.0000
  Na  Na8       1.0  0.14300  0.54800  0.48800  1.0000
  Na  Na9       1.0  0.85700  0.45200  0.51200  1.0000
  Na  Na10      1.0  0.65900  0.92300  0.52500  1.0000
  Na  Na11      1.0  0.56200  0.41000  0.58900  1.0000
  Na  Na12      1.0  0.91900  0.95100  0.61800  1.0000
  Na  Na13      1.0  0.08120  0.45100  0.88200  1.0000
  Na  Na14      1.0  0.43800  0.91000  0.91100  1.0000
  Na  Na15      1.0  0.34100  0.42300  0.97500  1.0000
  Na  Na16      1.0  0.14300  0.95200  0.98800  1.0000
  Sb  Sb1       1.0  0.15300  0.55700  0.06820  1.0000
  Sb  Sb2       1.0  0.34400  0.06010  0.08670  1.0000
  Sb  Sb3       1.0  0.48600  0.51100  0.14200  1.0000
  Sb  Sb4       1.0  0.02120  0.03290  0.15600  1.0000
  Sb  Sb5       1.0  0.75300  0.83900  0.16900  1.0000
  Sb  Sb6       1.0  0.74100  0.22000  0.17600  1.0000
  Sb  Sb7       1.0  0.25900  0.72000  0.32400  1.0000
  Sb  Sb8       1.0  0.24700  0.33900  0.33100  1.0000
  Sb  Sb9       1.0  0.97900  0.53300  0.34400  1.0000
  Sb  Sb10      1.0  0.51400  0.01080  0.35800  1.0000
  Sb  Sb11      1.0  0.65600  0.56000  0.41300  1.0000
  Sb  Sb12      1.0  0.84700  0.05690  0.43200  1.0000
  Sb  Sb13      1.0  0.15300  0.94300  0.56800  1.0000
  Sb  Sb14      1.0  0.34400  0.44000  0.58700  1.0000
  Sb  Sb15      1.0  0.48600  0.98900  0.64200  1.0000
  Sb  Sb16      1.0  0.02120  0.46700  0.65600  1.0000
  Sb  Sb17      1.0  0.75300  0.66100  0.66900  1.0000
  Sb  Sb18      1.0  0.74100  0.28000  0.67600  1.0000
  Sb  Sb19      1.0  0.25900  0.78000  0.82400  1.0000
  Sb  Sb20      1.0  0.24700  0.16100  0.83100  1.0000
  Sb  Sb21      1.0  0.97900  0.96700  0.84400  1.0000
  Sb  Sb22      1.0  0.51400  0.48900  0.85800  1.0000
  Sb  Sb23      1.0  0.65600  0.94000  0.91300  1.0000
  Sb  Sb24      1.0  0.84700  0.44300  0.93200  1.0000
