data_image0
_chemical_formula_structural       F28H16N4Sn4Zr4
_chemical_formula_sum              "F28 H16 N4 Sn4 Zr4"
_cell_length_a       8.22169
_cell_length_b       5.91861
_cell_length_c       12.0865
_cell_angle_alpha    90
_cell_angle_beta     90
_cell_angle_gamma    90

_space_group_name_H-M_alt    "P 1"
_space_group_IT_number       1

loop_
  _space_group_symop_operation_xyz
  'x, y, z'

loop_
  _atom_site_type_symbol
  _atom_site_label
  _atom_site_symmetry_multiplicity
  _atom_site_fract_x
  _atom_site_fract_y
  _atom_site_fract_z
  _atom_site_occupancy
  F   F1        1.0  0.15000  0.50000  0.00000  1.0000
  F   F2        1.0  0.85000  0.50000  0.00000  1.0000
  F   F3        1.0  0.00000  0.87200  0.07640  1.0000
  F   F4        1.0  0.50000  0.87800  0.08470  1.0000
  F   F5        1.0  0.24000  0.15100  0.10600  1.0000
  F   F6        1.0  0.76000  0.15100  0.10600  1.0000
  F   F7        1.0  0.00000  0.50600  0.19800  1.0000
  F   F8        1.0  0.00000  0.10600  0.24400  1.0000
  F   F9        1.0  0.50000  0.10600  0.25600  1.0000
  F   F10       1.0  0.50000  0.50600  0.30200  1.0000
  F   F11       1.0  0.26000  0.15100  0.39400  1.0000
  F   F12       1.0  0.74000  0.15100  0.39400  1.0000
  F   F13       1.0  0.00000  0.87800  0.41500  1.0000
  F   F14       1.0  0.50000  0.87200  0.42400  1.0000
  F   F15       1.0  0.35000  0.50000  0.50000  1.0000
  F   F16       1.0  0.65000  0.50000  0.50000  1.0000
  F   F17       1.0  0.50000  0.12800  0.57600  1.0000
  F   F18       1.0  0.00000  0.12200  0.58500  1.0000
  F   F19       1.0  0.26000  0.84900  0.60600  1.0000
  F   F20       1.0  0.74000  0.84900  0.60600  1.0000
  F   F21       1.0  0.50000  0.49400  0.69800  1.0000
  F   F22       1.0  0.50000  0.89400  0.74400  1.0000
  F   F23       1.0  0.00000  0.89400  0.75600  1.0000
  F   F24       1.0  0.00000  0.49400  0.80200  1.0000
  F   F25       1.0  0.24000  0.84900  0.89400  1.0000
  F   F26       1.0  0.76000  0.84900  0.89400  1.0000
  F   F27       1.0  0.50000  0.12200  0.91500  1.0000
  F   F28       1.0  0.00000  0.12800  0.92400  1.0000
  H   H1        1.0  0.29700  0.87400  0.18900  1.0000
  H   H2        1.0  0.70300  0.87400  0.18900  1.0000
  H   H3        1.0  0.15700  0.67500  0.21900  1.0000
  H   H4        1.0  0.84300  0.67500  0.21900  1.0000
  H   H5        1.0  0.34300  0.67500  0.28100  1.0000
  H   H6        1.0  0.65700  0.67500  0.28100  1.0000
  H   H7        1.0  0.20300  0.87400  0.31100  1.0000
  H   H8        1.0  0.79700  0.87400  0.31100  1.0000
  H   H9        1.0  0.20300  0.12600  0.68900  1.0000
  H   H10       1.0  0.79700  0.12600  0.68900  1.0000
  H   H11       1.0  0.34300  0.32500  0.71900  1.0000
  H   H12       1.0  0.65700  0.32500  0.71900  1.0000
  H   H13       1.0  0.15700  0.32500  0.78100  1.0000
  H   H14       1.0  0.84300  0.32500  0.78100  1.0000
  H   H15       1.0  0.29700  0.12600  0.81100  1.0000
  H   H16       1.0  0.70300  0.12600  0.81100  1.0000
  N   N1        1.0  0.25000  0.77300  0.25000  1.0000
  N   N2        1.0  0.75000  0.77300  0.25000  1.0000
  N   N3        1.0  0.25000  0.22700  0.75000  1.0000
  N   N4        1.0  0.75000  0.22700  0.75000  1.0000
  Sn  Sn1       1.0  0.50000  0.26200  0.08460  1.0000
  Sn  Sn2       1.0  0.00000  0.26200  0.41500  1.0000
  Sn  Sn3       1.0  0.00000  0.73800  0.58500  1.0000
  Sn  Sn4       1.0  0.50000  0.73800  0.91500  1.0000
  Zr  Zr1       1.0  0.00000  0.24700  0.08570  1.0000
  Zr  Zr2       1.0  0.50000  0.24700  0.41400  1.0000
  Zr  Zr3       1.0  0.50000  0.75300  0.58600  1.0000
  Zr  Zr4       1.0  0.00000  0.75300  0.91400  1.0000
