data_image0
_chemical_formula_structural       C20Fe4O20Te4W2
_chemical_formula_sum              "C20 Fe4 O20 Te4 W2"
_cell_length_a       6.75466
_cell_length_b       9.30813
_cell_length_c       13.2822
_cell_angle_alpha    80.533
_cell_angle_beta     82.8255
_cell_angle_gamma    84.5278

_space_group_name_H-M_alt    "P 1"
_space_group_IT_number       1

loop_
  _space_group_symop_operation_xyz
  'x, y, z'

loop_
  _atom_site_type_symbol
  _atom_site_label
  _atom_site_symmetry_multiplicity
  _atom_site_fract_x
  _atom_site_fract_y
  _atom_site_fract_z
  _atom_site_occupancy
  C   C1        1.0  0.70300  0.23800  0.00404  1.0000
  C   C2        1.0  0.77600  0.60100  0.10900  1.0000
  C   C3        1.0  0.43100  0.07880  0.12400  1.0000
  C   C4        1.0  0.79800  0.99900  0.13900  1.0000
  C   C5        1.0  0.54600  0.64200  0.28000  1.0000
  C   C6        1.0  0.91500  0.55400  0.29300  1.0000
  C   C7        1.0  0.36200  0.11000  0.36600  1.0000
  C   C8        1.0  0.72500  0.02000  0.36800  1.0000
  C   C9        1.0  0.42300  0.34800  0.43100  1.0000
  C   C10       1.0  0.78700  0.25000  0.44400  1.0000
  C   C11       1.0  0.21300  0.75000  0.55600  1.0000
  C   C12       1.0  0.57700  0.65200  0.56900  1.0000
  C   C13       1.0  0.27500  0.98000  0.63200  1.0000
  C   C14       1.0  0.63800  0.89000  0.63400  1.0000
  C   C15       1.0  0.08510  0.44600  0.70700  1.0000
  C   C16       1.0  0.45400  0.35800  0.72000  1.0000
  C   C17       1.0  0.20200  0.00080  0.86100  1.0000
  C   C18       1.0  0.56900  0.92100  0.87600  1.0000
  C   C19       1.0  0.22400  0.39900  0.89100  1.0000
  C   C20       1.0  0.29700  0.76200  0.99600  1.0000
  Fe  Fe1       1.0  0.64700  0.16600  0.13300  1.0000
  Fe  Fe2       1.0  0.71800  0.50800  0.23100  1.0000
  Fe  Fe3       1.0  0.28200  0.49200  0.76900  1.0000
  Fe  Fe4       1.0  0.35300  0.83400  0.86700  1.0000
  O   O1        1.0  0.81200  0.66300  0.02560  1.0000
  O   O2        1.0  0.26100  0.71300  0.08220  1.0000
  O   O3        1.0  0.29100  0.02100  0.11400  1.0000
  O   O4        1.0  0.89500  0.88900  0.14300  1.0000
  O   O5        1.0  0.44100  0.73500  0.31100  1.0000
  O   O6        1.0  0.04540  0.58400  0.33300  1.0000
  O   O7        1.0  0.22400  0.04070  0.38100  1.0000
  O   O8        1.0  0.78800  0.90000  0.38800  1.0000
  O   O9        1.0  0.32100  0.41400  0.48700  1.0000
  O   O10       1.0  0.10700  0.73600  0.49700  1.0000
  O   O11       1.0  0.89300  0.26400  0.50300  1.0000
  O   O12       1.0  0.67900  0.58600  0.51300  1.0000
  O   O13       1.0  0.21200  0.10000  0.61200  1.0000
  O   O14       1.0  0.77600  0.95900  0.61900  1.0000
  O   O15       1.0  0.95500  0.41600  0.66700  1.0000
  O   O16       1.0  0.55900  0.26500  0.68900  1.0000
  O   O17       1.0  0.10500  0.11100  0.85700  1.0000
  O   O18       1.0  0.70900  0.97900  0.88600  1.0000
  O   O19       1.0  0.73900  0.28700  0.91800  1.0000
  O   O20       1.0  0.18800  0.33700  0.97400  1.0000
  Te  Te1       1.0  0.43400  0.39100  0.17500  1.0000
  Te  Te2       1.0  0.92800  0.27900  0.19400  1.0000
  Te  Te3       1.0  0.07240  0.72100  0.80600  1.0000
  Te  Te4       1.0  0.56600  0.60900  0.82500  1.0000
  W   W1        1.0  0.60400  0.22800  0.33800  1.0000
  W   W2        1.0  0.39600  0.77200  0.66200  1.0000
