data_image0
_chemical_formula_structural       K12Nd4P8S32
_chemical_formula_sum              "K12 Nd4 P8 S32"
_cell_length_a       9.18352
_cell_length_b       17.0372
_cell_length_c       9.59588
_cell_angle_alpha    90
_cell_angle_beta     90.7026
_cell_angle_gamma    90

_space_group_name_H-M_alt    "P 1"
_space_group_IT_number       1

loop_
  _space_group_symop_operation_xyz
  'x, y, z'

loop_
  _atom_site_type_symbol
  _atom_site_label
  _atom_site_symmetry_multiplicity
  _atom_site_fract_x
  _atom_site_fract_y
  _atom_site_fract_z
  _atom_site_occupancy
  K   K1        1.0  0.73300  0.46900  0.01360  1.0000
  K   K2        1.0  0.12200  0.29300  0.12600  1.0000
  K   K3        1.0  0.61800  0.21200  0.12900  1.0000
  K   K4        1.0  0.38200  0.71200  0.37100  1.0000
  K   K5        1.0  0.87800  0.79300  0.37400  1.0000
  K   K6        1.0  0.26700  0.96900  0.48600  1.0000
  K   K7        1.0  0.73300  0.03120  0.51400  1.0000
  K   K8        1.0  0.12200  0.20700  0.62600  1.0000
  K   K9        1.0  0.61800  0.28800  0.62900  1.0000
  K   K10       1.0  0.38200  0.78800  0.87100  1.0000
  K   K11       1.0  0.87800  0.70700  0.87400  1.0000
  K   K12       1.0  0.26700  0.53100  0.98600  1.0000
  Nd  Nd1       1.0  0.22700  0.01440  0.02600  1.0000
  Nd  Nd2       1.0  0.77300  0.51400  0.47400  1.0000
  Nd  Nd3       1.0  0.22700  0.48600  0.52600  1.0000
  Nd  Nd4       1.0  0.77300  0.98600  0.97400  1.0000
  P   P1        1.0  0.52500  0.90200  0.22000  1.0000
  P   P2        1.0  0.99600  0.10000  0.24500  1.0000
  P   P3        1.0  0.00392  0.60000  0.25500  1.0000
  P   P4        1.0  0.47500  0.40200  0.28000  1.0000
  P   P5        1.0  0.52500  0.59800  0.72000  1.0000
  P   P6        1.0  0.99600  0.40000  0.74500  1.0000
  P   P7        1.0  0.00392  0.90000  0.75500  1.0000
  P   P8        1.0  0.47500  0.09830  0.78000  1.0000
  S   S1        1.0  0.96500  0.12100  0.03290  1.0000
  S   S2        1.0  0.43300  0.37500  0.07820  1.0000
  S   S3        1.0  0.66300  0.84200  0.09120  1.0000
  S   S4        1.0  0.11900  0.67600  0.13900  1.0000
  S   S5        1.0  0.31300  0.87200  0.17100  1.0000
  S   S6        1.0  0.54200  0.02120  0.17900  1.0000
  S   S7        1.0  0.78400  0.61400  0.22500  1.0000
  S   S8        1.0  0.05400  0.48300  0.24200  1.0000
  S   S9        1.0  0.94600  0.98300  0.25800  1.0000
  S   S10       1.0  0.21600  0.11400  0.27500  1.0000
  S   S11       1.0  0.45800  0.52100  0.32100  1.0000
  S   S12       1.0  0.68700  0.37200  0.32900  1.0000
  S   S13       1.0  0.88100  0.17600  0.36100  1.0000
  S   S14       1.0  0.33700  0.34200  0.40900  1.0000
  S   S15       1.0  0.56700  0.87500  0.42200  1.0000
  S   S16       1.0  0.03480  0.62100  0.46700  1.0000
  S   S17       1.0  0.96500  0.37900  0.53300  1.0000
  S   S18       1.0  0.43300  0.12500  0.57800  1.0000
  S   S19       1.0  0.66300  0.65800  0.59100  1.0000
  S   S20       1.0  0.11900  0.82400  0.63900  1.0000
  S   S21       1.0  0.31300  0.62800  0.67100  1.0000
  S   S22       1.0  0.54200  0.47900  0.67900  1.0000
  S   S23       1.0  0.78400  0.88600  0.72500  1.0000
  S   S24       1.0  0.05400  0.01740  0.74200  1.0000
  S   S25       1.0  0.94600  0.51700  0.75800  1.0000
  S   S26       1.0  0.21600  0.38600  0.77500  1.0000
  S   S27       1.0  0.45800  0.97900  0.82100  1.0000
  S   S28       1.0  0.68700  0.12800  0.82900  1.0000
  S   S29       1.0  0.88100  0.32400  0.86100  1.0000
  S   S30       1.0  0.33700  0.15800  0.90900  1.0000
  S   S31       1.0  0.56700  0.62500  0.92200  1.0000
  S   S32       1.0  0.03480  0.87900  0.96700  1.0000
