data_image0
_chemical_formula_structural       Ge4N24Sr28
_chemical_formula_sum              "Ge4 N24 Sr28"
_cell_length_a       11.5569
_cell_length_b       6.57221
_cell_length_c       13.8332
_cell_angle_alpha    90
_cell_angle_beta     90
_cell_angle_gamma    90

_space_group_name_H-M_alt    "P 1"
_space_group_IT_number       1

loop_
  _space_group_symop_operation_xyz
  'x, y, z'

loop_
  _atom_site_type_symbol
  _atom_site_label
  _atom_site_symmetry_multiplicity
  _atom_site_fract_x
  _atom_site_fract_y
  _atom_site_fract_z
  _atom_site_occupancy
  Ge  Ge1       1.0  0.00000  0.07000  0.25000  1.0000
  Ge  Ge2       1.0  0.50000  0.57000  0.25000  1.0000
  Ge  Ge3       1.0  0.50000  0.43000  0.75000  1.0000
  Ge  Ge4       1.0  0.00000  0.93000  0.75000  1.0000
  N   N1        1.0  0.16600  0.40600  0.00255  1.0000
  N   N2        1.0  0.33400  0.90600  0.00255  1.0000
  N   N3        1.0  0.45400  0.40100  0.14400  1.0000
  N   N4        1.0  0.04630  0.90100  0.14400  1.0000
  N   N5        1.0  0.87300  0.24200  0.20900  1.0000
  N   N6        1.0  0.62700  0.74200  0.20900  1.0000
  N   N7        1.0  0.12700  0.24200  0.29100  1.0000
  N   N8        1.0  0.37300  0.74200  0.29100  1.0000
  N   N9        1.0  0.54600  0.40100  0.35600  1.0000
  N   N10       1.0  0.95400  0.90100  0.35600  1.0000
  N   N11       1.0  0.83400  0.40600  0.49700  1.0000
  N   N12       1.0  0.66600  0.90600  0.49700  1.0000
  N   N13       1.0  0.33400  0.09370  0.50300  1.0000
  N   N14       1.0  0.16600  0.59400  0.50300  1.0000
  N   N15       1.0  0.04630  0.09930  0.64400  1.0000
  N   N16       1.0  0.45400  0.59900  0.64400  1.0000
  N   N17       1.0  0.62700  0.25800  0.70900  1.0000
  N   N18       1.0  0.87300  0.75800  0.70900  1.0000
  N   N19       1.0  0.37300  0.25800  0.79100  1.0000
  N   N20       1.0  0.12700  0.75800  0.79100  1.0000
  N   N21       1.0  0.95400  0.09930  0.85600  1.0000
  N   N22       1.0  0.54600  0.59900  0.85600  1.0000
  N   N23       1.0  0.66600  0.09370  0.99700  1.0000
  N   N24       1.0  0.83400  0.59400  0.99700  1.0000
  Sr  Sr1       1.0  0.96200  0.26400  0.02120  1.0000
  Sr  Sr2       1.0  0.53800  0.76400  0.02120  1.0000
  Sr  Sr3       1.0  0.70500  0.38900  0.12300  1.0000
  Sr  Sr4       1.0  0.79500  0.88900  0.12300  1.0000
  Sr  Sr5       1.0  0.22600  0.14500  0.12600  1.0000
  Sr  Sr6       1.0  0.27400  0.64500  0.12600  1.0000
  Sr  Sr7       1.0  0.50000  0.06030  0.25000  1.0000
  Sr  Sr8       1.0  0.00000  0.56000  0.25000  1.0000
  Sr  Sr9       1.0  0.77400  0.14500  0.37400  1.0000
  Sr  Sr10      1.0  0.72600  0.64500  0.37400  1.0000
  Sr  Sr11      1.0  0.29500  0.38900  0.37700  1.0000
  Sr  Sr12      1.0  0.20500  0.88900  0.37700  1.0000
  Sr  Sr13      1.0  0.03800  0.26400  0.47900  1.0000
  Sr  Sr14      1.0  0.46200  0.76400  0.47900  1.0000
  Sr  Sr15      1.0  0.53800  0.23600  0.52100  1.0000
  Sr  Sr16      1.0  0.96200  0.73600  0.52100  1.0000
  Sr  Sr17      1.0  0.79500  0.11100  0.62300  1.0000
  Sr  Sr18      1.0  0.70500  0.61100  0.62300  1.0000
  Sr  Sr19      1.0  0.27400  0.35500  0.62600  1.0000
  Sr  Sr20      1.0  0.22600  0.85500  0.62600  1.0000
  Sr  Sr21      1.0  0.00000  0.44000  0.75000  1.0000
  Sr  Sr22      1.0  0.50000  0.94000  0.75000  1.0000
  Sr  Sr23      1.0  0.72600  0.35500  0.87400  1.0000
  Sr  Sr24      1.0  0.77400  0.85500  0.87400  1.0000
  Sr  Sr25      1.0  0.20500  0.11100  0.87700  1.0000
  Sr  Sr26      1.0  0.29500  0.61100  0.87700  1.0000
  Sr  Sr27      1.0  0.46200  0.23600  0.97900  1.0000
  Sr  Sr28      1.0  0.03800  0.73600  0.97900  1.0000
