data_image0
_chemical_formula_structural       Fe16Ni7O32Zn
_chemical_formula_sum              "Fe16 Ni7 O32 Zn1"
_cell_length_a       8.37334
_cell_length_b       8.38433
_cell_length_c       8.36892
_cell_angle_alpha    89.9784
_cell_angle_beta     89.95
_cell_angle_gamma    90.2982

_space_group_name_H-M_alt    "P 1"
_space_group_IT_number       1

loop_
  _space_group_symop_operation_xyz
  'x, y, z'

loop_
  _atom_site_type_symbol
  _atom_site_label
  _atom_site_symmetry_multiplicity
  _atom_site_fract_x
  _atom_site_fract_y
  _atom_site_fract_z
  _atom_site_occupancy
  Fe  Fe1       1.0  0.49800  0.50000  0.00330  1.0000
  Fe  Fe2       1.0  0.62800  0.12500  0.12500  1.0000
  Fe  Fe3       1.0  0.24900  0.25100  0.24500  1.0000
  Fe  Fe4       1.0  0.75200  0.75100  0.24600  1.0000
  Fe  Fe5       1.0  0.12500  0.87400  0.37100  1.0000
  Fe  Fe6       1.0  0.87800  0.12600  0.37600  1.0000
  Fe  Fe7       1.0  0.37400  0.62500  0.37600  1.0000
  Fe  Fe8       1.0  0.62600  0.37800  0.37900  1.0000
  Fe  Fe9       1.0  0.49900  0.99900  0.50400  1.0000
  Fe  Fe10      1.0  0.00022  0.50000  0.50500  1.0000
  Fe  Fe11      1.0  0.24900  0.75100  0.74600  1.0000
  Fe  Fe12      1.0  0.75200  0.25000  0.74700  1.0000
  Fe  Fe13      1.0  0.62600  0.87200  0.87100  1.0000
  Fe  Fe14      1.0  0.36900  0.12300  0.87200  1.0000
  Fe  Fe15      1.0  0.87600  0.62800  0.87500  1.0000
  Fe  Fe16      1.0  0.12400  0.37300  0.87500  1.0000
  Ni  Ni1       1.0  0.37400  0.87400  0.12500  1.0000
  Ni  Ni2       1.0  0.12600  0.62500  0.12600  1.0000
  Ni  Ni3       1.0  0.87500  0.37600  0.12600  1.0000
  Ni  Ni4       1.0  0.87600  0.87400  0.62500  1.0000
  Ni  Ni5       1.0  0.12500  0.12500  0.62500  1.0000
  Ni  Ni6       1.0  0.62500  0.62500  0.62500  1.0000
  Ni  Ni7       1.0  0.37500  0.37600  0.62500  1.0000
  O   O1        1.0  0.62000  0.88400  0.11600  1.0000
  O   O2        1.0  0.12000  0.38000  0.11600  1.0000
  O   O3        1.0  0.87900  0.61900  0.11600  1.0000
  O   O4        1.0  0.38500  0.12100  0.11600  1.0000
  O   O5        1.0  0.62800  0.36700  0.13500  1.0000
  O   O6        1.0  0.37200  0.62900  0.13500  1.0000
  O   O7        1.0  0.86200  0.13400  0.13800  1.0000
  O   O8        1.0  0.13500  0.86500  0.14000  1.0000
  O   O9        1.0  0.63100  0.13300  0.36900  1.0000
  O   O10       1.0  0.36900  0.86600  0.37200  1.0000
  O   O11       1.0  0.13300  0.63100  0.37200  1.0000
  O   O12       1.0  0.86700  0.36800  0.37200  1.0000
  O   O13       1.0  0.61800  0.61800  0.37800  1.0000
  O   O14       1.0  0.11800  0.11800  0.37800  1.0000
  O   O15       1.0  0.38300  0.38300  0.37800  1.0000
  O   O16       1.0  0.88200  0.88400  0.37900  1.0000
  O   O17       1.0  0.12000  0.88100  0.61400  1.0000
  O   O18       1.0  0.87900  0.12000  0.61500  1.0000
  O   O19       1.0  0.38000  0.62000  0.61600  1.0000
  O   O20       1.0  0.62000  0.37900  0.61700  1.0000
  O   O21       1.0  0.63000  0.87000  0.63300  1.0000
  O   O22       1.0  0.37100  0.13100  0.63300  1.0000
  O   O23       1.0  0.86900  0.62900  0.63300  1.0000
  O   O24       1.0  0.13100  0.37000  0.63400  1.0000
  O   O25       1.0  0.86200  0.86300  0.86800  1.0000
  O   O26       1.0  0.13500  0.13700  0.86900  1.0000
  O   O27       1.0  0.36800  0.36700  0.87100  1.0000
  O   O28       1.0  0.63100  0.63100  0.87200  1.0000
  O   O29       1.0  0.38300  0.88300  0.87800  1.0000
  O   O30       1.0  0.11800  0.61700  0.87900  1.0000
  O   O31       1.0  0.88200  0.38300  0.88000  1.0000
  O   O32       1.0  0.61800  0.11800  0.88200  1.0000
  Zn  Zn1       1.0  0.00061  0.99800  0.00369  1.0000
