data_image0
_chemical_formula_structural       H2O16Rb6S4
_chemical_formula_sum              "H2 O16 Rb6 S4"
_cell_length_a       5.81409
_cell_length_b       8.005
_cell_length_c       10.0163
_cell_angle_alpha    101.539
_cell_angle_beta     90
_cell_angle_gamma    111.294

_space_group_name_H-M_alt    "P 1"
_space_group_IT_number       1

loop_
  _space_group_symop_operation_xyz
  'x, y, z'

loop_
  _atom_site_type_symbol
  _atom_site_label
  _atom_site_symmetry_multiplicity
  _atom_site_fract_x
  _atom_site_fract_y
  _atom_site_fract_z
  _atom_site_occupancy
  H   H1        1.0  0.50000  0.00000  0.00000  1.0000
  H   H2        1.0  0.50000  0.00000  0.50000  1.0000
  O   O1        1.0  0.66900  0.97800  0.05680  1.0000
  O   O2        1.0  0.36900  0.69300  0.09820  1.0000
  O   O3        1.0  0.81100  0.74300  0.10400  1.0000
  O   O4        1.0  0.42000  0.30600  0.11300  1.0000
  O   O5        1.0  0.11500  0.69400  0.38700  1.0000
  O   O6        1.0  0.06790  0.25700  0.39600  1.0000
  O   O7        1.0  0.67700  0.30700  0.40200  1.0000
  O   O8        1.0  0.69100  0.02200  0.44300  1.0000
  O   O9        1.0  0.30900  0.97800  0.55700  1.0000
  O   O10       1.0  0.32300  0.69300  0.59800  1.0000
  O   O11       1.0  0.93200  0.74300  0.60400  1.0000
  O   O12       1.0  0.88500  0.30600  0.61300  1.0000
  O   O13       1.0  0.58000  0.69400  0.88700  1.0000
  O   O14       1.0  0.18900  0.25700  0.89600  1.0000
  O   O15       1.0  0.63100  0.30700  0.90200  1.0000
  O   O16       1.0  0.33100  0.02200  0.94300  1.0000
  Rb  Rb1       1.0  0.96400  0.38500  0.15200  1.0000
  Rb  Rb2       1.0  0.24500  0.00000  0.25000  1.0000
  Rb  Rb3       1.0  0.57900  0.61500  0.34800  1.0000
  Rb  Rb4       1.0  0.42100  0.38500  0.65200  1.0000
  Rb  Rb5       1.0  0.75500  0.00000  0.75000  1.0000
  Rb  Rb6       1.0  0.03640  0.61500  0.84800  1.0000
  S   S1        1.0  0.60600  0.76800  0.03640  1.0000
  S   S2        1.0  0.83800  0.23200  0.46400  1.0000
  S   S3        1.0  0.16200  0.76800  0.53600  1.0000
  S   S4        1.0  0.39400  0.23200  0.96400  1.0000
