data_image0
_chemical_formula_structural       Al8Cl32Se16
_chemical_formula_sum              "Al8 Cl32 Se16"
_cell_length_a       13.39
_cell_length_b       13.3486
_cell_length_c       9.32266
_cell_angle_alpha    90
_cell_angle_beta     90
_cell_angle_gamma    90

_space_group_name_H-M_alt    "P 1"
_space_group_IT_number       1

loop_
  _space_group_symop_operation_xyz
  'x, y, z'

loop_
  _atom_site_type_symbol
  _atom_site_label
  _atom_site_symmetry_multiplicity
  _atom_site_fract_x
  _atom_site_fract_y
  _atom_site_fract_z
  _atom_site_occupancy
  Al  Al1       1.0  0.61600  0.16400  0.00000  1.0000
  Al  Al2       1.0  0.11600  0.33600  0.00000  1.0000
  Al  Al3       1.0  0.88400  0.66400  0.00000  1.0000
  Al  Al4       1.0  0.38400  0.83600  0.00000  1.0000
  Al  Al5       1.0  0.17300  0.10100  0.50000  1.0000
  Al  Al6       1.0  0.67300  0.39900  0.50000  1.0000
  Al  Al7       1.0  0.32700  0.60100  0.50000  1.0000
  Al  Al8       1.0  0.82700  0.89900  0.50000  1.0000
  Cl  Cl1       1.0  0.63300  0.00412  0.00000  1.0000
  Cl  Cl2       1.0  0.75500  0.24100  0.00000  1.0000
  Cl  Cl3       1.0  0.25500  0.25900  0.00000  1.0000
  Cl  Cl4       1.0  0.13300  0.49600  0.00000  1.0000
  Cl  Cl5       1.0  0.86700  0.50400  0.00000  1.0000
  Cl  Cl6       1.0  0.74500  0.74100  0.00000  1.0000
  Cl  Cl7       1.0  0.24500  0.75900  0.00000  1.0000
  Cl  Cl8       1.0  0.36700  0.99600  0.00000  1.0000
  Cl  Cl9       1.0  0.52700  0.20800  0.18600  1.0000
  Cl  Cl10      1.0  0.02670  0.29200  0.18600  1.0000
  Cl  Cl11      1.0  0.97300  0.70800  0.18600  1.0000
  Cl  Cl12      1.0  0.47300  0.79200  0.18600  1.0000
  Cl  Cl13      1.0  0.20800  0.00786  0.31400  1.0000
  Cl  Cl14      1.0  0.70800  0.49200  0.31400  1.0000
  Cl  Cl15      1.0  0.29200  0.50800  0.31400  1.0000
  Cl  Cl16      1.0  0.79200  0.99200  0.31400  1.0000
  Cl  Cl17      1.0  0.01550  0.13300  0.50000  1.0000
  Cl  Cl18      1.0  0.26100  0.23400  0.50000  1.0000
  Cl  Cl19      1.0  0.76100  0.26600  0.50000  1.0000
  Cl  Cl20      1.0  0.51600  0.36700  0.50000  1.0000
  Cl  Cl21      1.0  0.48400  0.63300  0.50000  1.0000
  Cl  Cl22      1.0  0.23900  0.73400  0.50000  1.0000
  Cl  Cl23      1.0  0.73900  0.76600  0.50000  1.0000
  Cl  Cl24      1.0  0.98400  0.86700  0.50000  1.0000
  Cl  Cl25      1.0  0.20800  0.00786  0.68600  1.0000
  Cl  Cl26      1.0  0.70800  0.49200  0.68600  1.0000
  Cl  Cl27      1.0  0.29200  0.50800  0.68600  1.0000
  Cl  Cl28      1.0  0.79200  0.99200  0.68600  1.0000
  Cl  Cl29      1.0  0.52700  0.20800  0.81400  1.0000
  Cl  Cl30      1.0  0.02670  0.29200  0.81400  1.0000
  Cl  Cl31      1.0  0.97300  0.70800  0.81400  1.0000
  Cl  Cl32      1.0  0.47300  0.79200  0.81400  1.0000
  Se  Se1       1.0  0.12300  0.01290  0.00000  1.0000
  Se  Se2       1.0  0.62300  0.48700  0.00000  1.0000
  Se  Se3       1.0  0.37700  0.51300  0.00000  1.0000
  Se  Se4       1.0  0.87700  0.98700  0.00000  1.0000
  Se  Se5       1.0  0.00000  0.00000  0.17700  1.0000
  Se  Se6       1.0  0.50000  0.50000  0.17700  1.0000
  Se  Se7       1.0  0.50000  0.00000  0.32300  1.0000
  Se  Se8       1.0  0.00000  0.50000  0.32300  1.0000
  Se  Se9       1.0  0.52600  0.12100  0.50000  1.0000
  Se  Se10      1.0  0.02640  0.37900  0.50000  1.0000
  Se  Se11      1.0  0.97400  0.62100  0.50000  1.0000
  Se  Se12      1.0  0.47400  0.87900  0.50000  1.0000
  Se  Se13      1.0  0.50000  0.00000  0.67700  1.0000
  Se  Se14      1.0  0.00000  0.50000  0.67700  1.0000
  Se  Se15      1.0  0.00000  0.00000  0.82300  1.0000
  Se  Se16      1.0  0.50000  0.50000  0.82300  1.0000
