data_image0
_chemical_formula_structural       Bi4K12P8S32
_chemical_formula_sum              "Bi4 K12 P8 S32"
_cell_length_a       24.1584
_cell_length_b       6.86474
_cell_length_c       9.15051
_cell_angle_alpha    90
_cell_angle_beta     90
_cell_angle_gamma    90

_space_group_name_H-M_alt    "P 1"
_space_group_IT_number       1

loop_
  _space_group_symop_operation_xyz
  'x, y, z'

loop_
  _atom_site_type_symbol
  _atom_site_label
  _atom_site_symmetry_multiplicity
  _atom_site_fract_x
  _atom_site_fract_y
  _atom_site_fract_z
  _atom_site_occupancy
  Bi  Bi1       1.0  0.94800  0.55600  0.14800  1.0000
  Bi  Bi2       1.0  0.05200  0.05560  0.35200  1.0000
  Bi  Bi3       1.0  0.55200  0.44400  0.64800  1.0000
  Bi  Bi4       1.0  0.44800  0.94400  0.85200  1.0000
  K   K1        1.0  0.18800  0.99300  0.02120  1.0000
  K   K2        1.0  0.78700  0.00279  0.08870  1.0000
  K   K3        1.0  0.57800  0.01210  0.24900  1.0000
  K   K4        1.0  0.42200  0.51200  0.25100  1.0000
  K   K5        1.0  0.21300  0.50300  0.41100  1.0000
  K   K6        1.0  0.81200  0.49300  0.47900  1.0000
  K   K7        1.0  0.31200  0.00732  0.52100  1.0000
  K   K8        1.0  0.71300  0.99700  0.58900  1.0000
  K   K9        1.0  0.92200  0.98800  0.74900  1.0000
  K   K10       1.0  0.07850  0.48800  0.75100  1.0000
  K   K11       1.0  0.28700  0.49700  0.91100  1.0000
  K   K12       1.0  0.68800  0.50700  0.97900  1.0000
  P   P1        1.0  0.34500  0.00770  0.11300  1.0000
  P   P2        1.0  0.09220  0.46600  0.14900  1.0000
  P   P3        1.0  0.90800  0.96600  0.35100  1.0000
  P   P4        1.0  0.65500  0.50800  0.38700  1.0000
  P   P5        1.0  0.15500  0.99200  0.61300  1.0000
  P   P6        1.0  0.40800  0.53400  0.64900  1.0000
  P   P7        1.0  0.59200  0.03380  0.85100  1.0000
  P   P8        1.0  0.84500  0.49200  0.88700  1.0000
  S   S1        1.0  0.05020  0.23500  0.05920  1.0000
  S   S2        1.0  0.05350  0.72000  0.08310  1.0000
  S   S3        1.0  0.17200  0.47600  0.08950  1.0000
  S   S4        1.0  0.83500  0.46800  0.11300  1.0000
  S   S5        1.0  0.92000  0.93600  0.12500  1.0000
  S   S6        1.0  0.43100  0.98500  0.14400  1.0000
  S   S7        1.0  0.30700  0.76700  0.19100  1.0000
  S   S8        1.0  0.31600  0.25000  0.21000  1.0000
  S   S9        1.0  0.68400  0.75000  0.29000  1.0000
  S   S10       1.0  0.69300  0.26700  0.30900  1.0000
  S   S11       1.0  0.56900  0.48500  0.35600  1.0000
  S   S12       1.0  0.08040  0.43600  0.37500  1.0000
  S   S13       1.0  0.16500  0.96800  0.38700  1.0000
  S   S14       1.0  0.82800  0.97600  0.41000  1.0000
  S   S15       1.0  0.94700  0.22000  0.41700  1.0000
  S   S16       1.0  0.95000  0.73500  0.44100  1.0000
  S   S17       1.0  0.45000  0.76500  0.55900  1.0000
  S   S18       1.0  0.44700  0.28000  0.58300  1.0000
  S   S19       1.0  0.32800  0.52400  0.59000  1.0000
  S   S20       1.0  0.66500  0.53200  0.61300  1.0000
  S   S21       1.0  0.58000  0.06410  0.62500  1.0000
  S   S22       1.0  0.06890  0.01490  0.64400  1.0000
  S   S23       1.0  0.19300  0.23300  0.69100  1.0000
  S   S24       1.0  0.18400  0.75000  0.71000  1.0000
  S   S25       1.0  0.81600  0.25000  0.79000  1.0000
  S   S26       1.0  0.80700  0.73300  0.80900  1.0000
  S   S27       1.0  0.93100  0.51500  0.85600  1.0000
  S   S28       1.0  0.42000  0.56400  0.87500  1.0000
  S   S29       1.0  0.33500  0.03220  0.88700  1.0000
  S   S30       1.0  0.67200  0.02380  0.91000  1.0000
  S   S31       1.0  0.55300  0.78000  0.91700  1.0000
  S   S32       1.0  0.55000  0.26500  0.94100  1.0000
