data_image0
_chemical_formula_structural       Ba8O30Pt2Sm8Zn6
_chemical_formula_sum              "Ba8 O30 Pt2 Sm8 Zn6"
_cell_length_a       11.6819
_cell_length_b       11.6819
_cell_length_c       6.72765
_cell_angle_alpha    90
_cell_angle_beta     90
_cell_angle_gamma    120

_space_group_name_H-M_alt    "P 1"
_space_group_IT_number       1

loop_
  _space_group_symop_operation_xyz
  'x, y, z'

loop_
  _atom_site_type_symbol
  _atom_site_label
  _atom_site_symmetry_multiplicity
  _atom_site_fract_x
  _atom_site_fract_y
  _atom_site_fract_z
  _atom_site_occupancy
  Ba  Ba1       1.0  0.34400  0.17200  0.15700  1.0000
  Ba  Ba2       1.0  0.82800  0.17200  0.15700  1.0000
  Ba  Ba3       1.0  0.82800  0.65600  0.15700  1.0000
  Ba  Ba4       1.0  0.33300  0.66700  0.33900  1.0000
  Ba  Ba5       1.0  0.17200  0.82800  0.65700  1.0000
  Ba  Ba6       1.0  0.65600  0.82800  0.65700  1.0000
  Ba  Ba7       1.0  0.17200  0.34400  0.65700  1.0000
  Ba  Ba8       1.0  0.66700  0.33300  0.83900  1.0000
  O   O1        1.0  0.08300  0.16600  0.05920  1.0000
  O   O2        1.0  0.08300  0.91700  0.05920  1.0000
  O   O3        1.0  0.83400  0.91700  0.05920  1.0000
  O   O4        1.0  0.58200  0.16400  0.15600  1.0000
  O   O5        1.0  0.58200  0.41800  0.15600  1.0000
  O   O6        1.0  0.83600  0.41800  0.15600  1.0000
  O   O7        1.0  0.05600  0.39400  0.30300  1.0000
  O   O8        1.0  0.33800  0.39400  0.30300  1.0000
  O   O9        1.0  0.33800  0.94400  0.30300  1.0000
  O   O10       1.0  0.60600  0.94400  0.30300  1.0000
  O   O11       1.0  0.05600  0.66200  0.30300  1.0000
  O   O12       1.0  0.60600  0.66200  0.30300  1.0000
  O   O13       1.0  0.50200  0.25100  0.49100  1.0000
  O   O14       1.0  0.74900  0.25100  0.49100  1.0000
  O   O15       1.0  0.74900  0.49800  0.49100  1.0000
  O   O16       1.0  0.91700  0.83400  0.55900  1.0000
  O   O17       1.0  0.16600  0.08300  0.55900  1.0000
  O   O18       1.0  0.91700  0.08300  0.55900  1.0000
  O   O19       1.0  0.41800  0.83600  0.65600  1.0000
  O   O20       1.0  0.16400  0.58200  0.65600  1.0000
  O   O21       1.0  0.41800  0.58200  0.65600  1.0000
  O   O22       1.0  0.66200  0.60600  0.80300  1.0000
  O   O23       1.0  0.94400  0.60600  0.80300  1.0000
  O   O24       1.0  0.39400  0.05600  0.80300  1.0000
  O   O25       1.0  0.66200  0.05600  0.80300  1.0000
  O   O26       1.0  0.39400  0.33800  0.80300  1.0000
  O   O27       1.0  0.94400  0.33800  0.80300  1.0000
  O   O28       1.0  0.25100  0.50200  0.99100  1.0000
  O   O29       1.0  0.25100  0.74900  0.99100  1.0000
  O   O30       1.0  0.49800  0.74900  0.99100  1.0000
  Pt  Pt1       1.0  0.66700  0.33300  0.31600  1.0000
  Pt  Pt2       1.0  0.33300  0.66700  0.81600  1.0000
  Sm  Sm1       1.0  0.47700  0.95400  0.00238  1.0000
  Sm  Sm2       1.0  0.04590  0.52300  0.00238  1.0000
  Sm  Sm3       1.0  0.47700  0.52300  0.00238  1.0000
  Sm  Sm4       1.0  0.00000  0.00000  0.32800  1.0000
  Sm  Sm5       1.0  0.52300  0.04590  0.50200  1.0000
  Sm  Sm6       1.0  0.52300  0.47700  0.50200  1.0000
  Sm  Sm7       1.0  0.95400  0.47700  0.50200  1.0000
  Sm  Sm8       1.0  0.00000  0.00000  0.82800  1.0000
  Zn  Zn1       1.0  0.17100  0.82900  0.17400  1.0000
  Zn  Zn2       1.0  0.65900  0.82900  0.17400  1.0000
  Zn  Zn3       1.0  0.17100  0.34100  0.17400  1.0000
  Zn  Zn4       1.0  0.34100  0.17100  0.67400  1.0000
  Zn  Zn5       1.0  0.82900  0.17100  0.67400  1.0000
  Zn  Zn6       1.0  0.82900  0.65900  0.67400  1.0000
