data_image0
_chemical_formula_structural       H16K4Mo4O30
_chemical_formula_sum              "H16 K4 Mo4 O30"
_cell_length_a       6.05946
_cell_length_b       9.53284
_cell_length_c       10.7942
_cell_angle_alpha    77.8194
_cell_angle_beta     80.1811
_cell_angle_gamma    73.6295

_space_group_name_H-M_alt    "P 1"
_space_group_IT_number       1

loop_
  _space_group_symop_operation_xyz
  'x, y, z'

loop_
  _atom_site_type_symbol
  _atom_site_label
  _atom_site_symmetry_multiplicity
  _atom_site_fract_x
  _atom_site_fract_y
  _atom_site_fract_z
  _atom_site_occupancy
  H   H1        1.0  0.71200  0.94100  0.06420  1.0000
  H   H2        1.0  0.69600  0.77600  0.07410  1.0000
  H   H3        1.0  0.49300  0.31800  0.27100  1.0000
  H   H4        1.0  0.82000  0.93600  0.33800  1.0000
  H   H5        1.0  0.57200  0.30200  0.40900  1.0000
  H   H6        1.0  0.56900  0.81500  0.43100  1.0000
  H   H7        1.0  0.29900  0.89300  0.44600  1.0000
  H   H8        1.0  0.84900  0.86700  0.48400  1.0000
  H   H9        1.0  0.15100  0.13300  0.51600  1.0000
  H   H10       1.0  0.70100  0.10700  0.55400  1.0000
  H   H11       1.0  0.43100  0.18500  0.56900  1.0000
  H   H12       1.0  0.42800  0.69800  0.59100  1.0000
  H   H13       1.0  0.18000  0.06380  0.66200  1.0000
  H   H14       1.0  0.50700  0.68200  0.72900  1.0000
  H   H15       1.0  0.30400  0.22400  0.92600  1.0000
  H   H16       1.0  0.28800  0.05880  0.93600  1.0000
  K   K1        1.0  0.25400  0.74100  0.00676  1.0000
  K   K2        1.0  0.21600  0.62800  0.35900  1.0000
  K   K3        1.0  0.78400  0.37200  0.64100  1.0000
  K   K4        1.0  0.74600  0.25900  0.99300  1.0000
  Mo  Mo1       1.0  0.18800  0.10300  0.21200  1.0000
  Mo  Mo2       1.0  0.84900  0.47400  0.22900  1.0000
  Mo  Mo3       1.0  0.15100  0.52600  0.77100  1.0000
  Mo  Mo4       1.0  0.81200  0.89700  0.78800  1.0000
  O   O1        1.0  0.76100  0.85700  0.01770  1.0000
  O   O2        1.0  0.64500  0.53400  0.09110  1.0000
  O   O3        1.0  0.07870  0.54800  0.16100  1.0000
  O   O4        1.0  0.97900  0.99700  0.17100  1.0000
  O   O5        1.0  0.95500  0.28200  0.17300  1.0000
  O   O6        1.0  0.58700  0.64700  0.17400  1.0000
  O   O7        1.0  0.41700  0.22300  0.17500  1.0000
  O   O8        1.0  0.21700  0.90300  0.17900  1.0000
  O   O9        1.0  0.53100  0.06260  0.19100  1.0000
  O   O10       1.0  0.53900  0.37400  0.32600  1.0000
  O   O11       1.0  0.13800  0.07430  0.37700  1.0000
  O   O12       1.0  0.95700  0.37800  0.39600  1.0000
  O   O13       1.0  0.80600  0.52900  0.39800  1.0000
  O   O14       1.0  0.81800  0.84700  0.40400  1.0000
  O   O15       1.0  0.41100  0.79500  0.45700  1.0000
  O   O16       1.0  0.58900  0.20500  0.54300  1.0000
  O   O17       1.0  0.18200  0.15300  0.59600  1.0000
  O   O18       1.0  0.19400  0.47100  0.60200  1.0000
  O   O19       1.0  0.04290  0.62200  0.60400  1.0000
  O   O20       1.0  0.86200  0.92600  0.62300  1.0000
  O   O21       1.0  0.46100  0.62600  0.67400  1.0000
  O   O22       1.0  0.46900  0.93700  0.80900  1.0000
  O   O23       1.0  0.78300  0.09670  0.82100  1.0000
  O   O24       1.0  0.58300  0.77700  0.82500  1.0000
  O   O25       1.0  0.41300  0.35300  0.82600  1.0000
  O   O26       1.0  0.04530  0.71800  0.82700  1.0000
  O   O27       1.0  0.02130  0.00332  0.82900  1.0000
  O   O28       1.0  0.92100  0.45200  0.83900  1.0000
  O   O29       1.0  0.35500  0.46600  0.90900  1.0000
  O   O30       1.0  0.23900  0.14300  0.98200  1.0000
