data_image0
_chemical_formula_structural       I12O36Sm4
_chemical_formula_sum              "I12 O36 Sm4"
_cell_length_a       13.2875
_cell_length_b       8.29214
_cell_length_c       7.14901
_cell_angle_alpha    90
_cell_angle_beta     100.442
_cell_angle_gamma    90

_space_group_name_H-M_alt    "P 1"
_space_group_IT_number       1

loop_
  _space_group_symop_operation_xyz
  'x, y, z'

loop_
  _atom_site_type_symbol
  _atom_site_label
  _atom_site_symmetry_multiplicity
  _atom_site_fract_x
  _atom_site_fract_y
  _atom_site_fract_z
  _atom_site_occupancy
  I   I1        1.0  0.61400  0.72100  0.17200  1.0000
  I   I2        1.0  0.11400  0.77900  0.17200  1.0000
  I   I3        1.0  0.89100  0.49200  0.27800  1.0000
  I   I4        1.0  0.39100  0.00790  0.27800  1.0000
  I   I5        1.0  0.36200  0.53300  0.32900  1.0000
  I   I6        1.0  0.86200  0.96700  0.32900  1.0000
  I   I7        1.0  0.13800  0.03290  0.67100  1.0000
  I   I8        1.0  0.63800  0.46700  0.67100  1.0000
  I   I9        1.0  0.60900  0.99200  0.72200  1.0000
  I   I10       1.0  0.10900  0.50800  0.72200  1.0000
  I   I11       1.0  0.38600  0.27900  0.82800  1.0000
  I   I12       1.0  0.88600  0.22100  0.82800  1.0000
  O   O1        1.0  0.88500  0.52100  0.02190  1.0000
  O   O2        1.0  0.38500  0.97900  0.02190  1.0000
  O   O3        1.0  0.97900  0.16700  0.03920  1.0000
  O   O4        1.0  0.47900  0.33300  0.03920  1.0000
  O   O5        1.0  0.32400  0.68200  0.13800  1.0000
  O   O6        1.0  0.82400  0.81800  0.13800  1.0000
  O   O7        1.0  0.69200  0.53700  0.18000  1.0000
  O   O8        1.0  0.19200  0.96300  0.18000  1.0000
  O   O9        1.0  0.82800  0.29300  0.25800  1.0000
  O   O10       1.0  0.32800  0.20700  0.25800  1.0000
  O   O11       1.0  0.02630  0.43800  0.32700  1.0000
  O   O12       1.0  0.52600  0.06250  0.32700  1.0000
  O   O13       1.0  0.73200  0.02780  0.34900  1.0000
  O   O14       1.0  0.23200  0.47200  0.34900  1.0000
  O   O15       1.0  0.54100  0.66900  0.35800  1.0000
  O   O16       1.0  0.04090  0.83100  0.35800  1.0000
  O   O17       1.0  0.62700  0.32300  0.47800  1.0000
  O   O18       1.0  0.12700  0.17700  0.47800  1.0000
  O   O19       1.0  0.37300  0.67700  0.52200  1.0000
  O   O20       1.0  0.87300  0.82300  0.52200  1.0000
  O   O21       1.0  0.95900  0.16900  0.64200  1.0000
  O   O22       1.0  0.45900  0.33100  0.64200  1.0000
  O   O23       1.0  0.26800  0.97200  0.65100  1.0000
  O   O24       1.0  0.76800  0.52800  0.65100  1.0000
  O   O25       1.0  0.97400  0.56200  0.67300  1.0000
  O   O26       1.0  0.47400  0.93800  0.67300  1.0000
  O   O27       1.0  0.67200  0.79300  0.74200  1.0000
  O   O28       1.0  0.17200  0.70700  0.74200  1.0000
  O   O29       1.0  0.30800  0.46300  0.82000  1.0000
  O   O30       1.0  0.80800  0.03710  0.82000  1.0000
  O   O31       1.0  0.67600  0.31800  0.86200  1.0000
  O   O32       1.0  0.17600  0.18200  0.86200  1.0000
  O   O33       1.0  0.52100  0.66700  0.96100  1.0000
  O   O34       1.0  0.02140  0.83300  0.96100  1.0000
  O   O35       1.0  0.61500  0.02090  0.97800  1.0000
  O   O36       1.0  0.11500  0.47900  0.97800  1.0000
  Sm  Sm1       1.0  0.14400  0.25300  0.17900  1.0000
  Sm  Sm2       1.0  0.64400  0.24700  0.17900  1.0000
  Sm  Sm3       1.0  0.35600  0.75300  0.82100  1.0000
  Sm  Sm4       1.0  0.85600  0.74700  0.82100  1.0000
