data_image0
_chemical_formula_structural       C12F24O12Os2Sb4
_chemical_formula_sum              "C12 F24 O12 Os2 Sb4"
_cell_length_a       7.69917
_cell_length_b       7.69917
_cell_length_c       11.5833
_cell_angle_alpha    90
_cell_angle_beta     90
_cell_angle_gamma    90

_space_group_name_H-M_alt    "P 1"
_space_group_IT_number       1

loop_
  _space_group_symop_operation_xyz
  'x, y, z'

loop_
  _atom_site_type_symbol
  _atom_site_label
  _atom_site_symmetry_multiplicity
  _atom_site_fract_x
  _atom_site_fract_y
  _atom_site_fract_z
  _atom_site_occupancy
  C   C1        1.0  0.22200  0.13900  0.00000  1.0000
  C   C2        1.0  0.86100  0.22200  0.00000  1.0000
  C   C3        1.0  0.13900  0.77800  0.00000  1.0000
  C   C4        1.0  0.77800  0.86100  0.00000  1.0000
  C   C5        1.0  0.00000  0.00000  0.17300  1.0000
  C   C6        1.0  0.50000  0.50000  0.32700  1.0000
  C   C7        1.0  0.36100  0.27800  0.50000  1.0000
  C   C8        1.0  0.72200  0.36100  0.50000  1.0000
  C   C9        1.0  0.27800  0.63900  0.50000  1.0000
  C   C10       1.0  0.63900  0.72200  0.50000  1.0000
  C   C11       1.0  0.50000  0.50000  0.67300  1.0000
  C   C12       1.0  0.00000  0.00000  0.82700  1.0000
  F   F1        1.0  0.62600  0.11700  0.13200  1.0000
  F   F2        1.0  0.11700  0.37400  0.13200  1.0000
  F   F3        1.0  0.88300  0.62600  0.13200  1.0000
  F   F4        1.0  0.37400  0.88300  0.13200  1.0000
  F   F5        1.0  0.32600  0.17400  0.25000  1.0000
  F   F6        1.0  0.82600  0.32600  0.25000  1.0000
  F   F7        1.0  0.17400  0.67400  0.25000  1.0000
  F   F8        1.0  0.67400  0.82600  0.25000  1.0000
  F   F9        1.0  0.61700  0.12600  0.36800  1.0000
  F   F10       1.0  0.12600  0.38300  0.36800  1.0000
  F   F11       1.0  0.87400  0.61700  0.36800  1.0000
  F   F12       1.0  0.38300  0.87400  0.36800  1.0000
  F   F13       1.0  0.61700  0.12600  0.63200  1.0000
  F   F14       1.0  0.12600  0.38300  0.63200  1.0000
  F   F15       1.0  0.87400  0.61700  0.63200  1.0000
  F   F16       1.0  0.38300  0.87400  0.63200  1.0000
  F   F17       1.0  0.32600  0.17400  0.75000  1.0000
  F   F18       1.0  0.82600  0.32600  0.75000  1.0000
  F   F19       1.0  0.17400  0.67400  0.75000  1.0000
  F   F20       1.0  0.67400  0.82600  0.75000  1.0000
  F   F21       1.0  0.62600  0.11700  0.86800  1.0000
  F   F22       1.0  0.11700  0.37400  0.86800  1.0000
  F   F23       1.0  0.88300  0.62600  0.86800  1.0000
  F   F24       1.0  0.37400  0.88300  0.86800  1.0000
  O   O1        1.0  0.34700  0.21700  0.00000  1.0000
  O   O2        1.0  0.78300  0.34700  0.00000  1.0000
  O   O3        1.0  0.21700  0.65300  0.00000  1.0000
  O   O4        1.0  0.65300  0.78300  0.00000  1.0000
  O   O5        1.0  0.50000  0.50000  0.22900  1.0000
  O   O6        1.0  0.00000  0.00000  0.27100  1.0000
  O   O7        1.0  0.28300  0.15300  0.50000  1.0000
  O   O8        1.0  0.84700  0.28300  0.50000  1.0000
  O   O9        1.0  0.15300  0.71700  0.50000  1.0000
  O   O10       1.0  0.71700  0.84700  0.50000  1.0000
  O   O11       1.0  0.00000  0.00000  0.72900  1.0000
  O   O12       1.0  0.50000  0.50000  0.77100  1.0000
  Os  Os1       1.0  0.00000  0.00000  0.00000  1.0000
  Os  Os2       1.0  0.50000  0.50000  0.50000  1.0000
  Sb  Sb1       1.0  0.50000  0.00000  0.25000  1.0000
  Sb  Sb2       1.0  0.00000  0.50000  0.25000  1.0000
  Sb  Sb3       1.0  0.50000  0.00000  0.75000  1.0000
  Sb  Sb4       1.0  0.00000  0.50000  0.75000  1.0000
