data_image0
_chemical_formula_structural       C12F24Fe2O12Sb4
_chemical_formula_sum              "C12 F24 Fe2 O12 Sb4"
_cell_length_a       7.6461
_cell_length_b       7.6461
_cell_length_c       11.5687
_cell_angle_alpha    90
_cell_angle_beta     90
_cell_angle_gamma    90

_space_group_name_H-M_alt    "P 1"
_space_group_IT_number       1

loop_
  _space_group_symop_operation_xyz
  'x, y, z'

loop_
  _atom_site_type_symbol
  _atom_site_label
  _atom_site_symmetry_multiplicity
  _atom_site_fract_x
  _atom_site_fract_y
  _atom_site_fract_z
  _atom_site_occupancy
  C   C1        1.0  0.21200  0.12800  0.00000  1.0000
  C   C2        1.0  0.87200  0.21200  0.00000  1.0000
  C   C3        1.0  0.12800  0.78800  0.00000  1.0000
  C   C4        1.0  0.78800  0.87200  0.00000  1.0000
  C   C5        1.0  0.00000  0.00000  0.16200  1.0000
  C   C6        1.0  0.50000  0.50000  0.33800  1.0000
  C   C7        1.0  0.37200  0.28800  0.50000  1.0000
  C   C8        1.0  0.71200  0.37200  0.50000  1.0000
  C   C9        1.0  0.28800  0.62800  0.50000  1.0000
  C   C10       1.0  0.62800  0.71200  0.50000  1.0000
  C   C11       1.0  0.50000  0.50000  0.66200  1.0000
  C   C12       1.0  0.00000  0.00000  0.83800  1.0000
  F   F1        1.0  0.62600  0.11800  0.13100  1.0000
  F   F2        1.0  0.11800  0.37400  0.13100  1.0000
  F   F3        1.0  0.88200  0.62600  0.13100  1.0000
  F   F4        1.0  0.37400  0.88200  0.13100  1.0000
  F   F5        1.0  0.32500  0.17500  0.25000  1.0000
  F   F6        1.0  0.82500  0.32500  0.25000  1.0000
  F   F7        1.0  0.17500  0.67500  0.25000  1.0000
  F   F8        1.0  0.67500  0.82500  0.25000  1.0000
  F   F9        1.0  0.61800  0.12600  0.36900  1.0000
  F   F10       1.0  0.12600  0.38200  0.36900  1.0000
  F   F11       1.0  0.87400  0.61800  0.36900  1.0000
  F   F12       1.0  0.38200  0.87400  0.36900  1.0000
  F   F13       1.0  0.61800  0.12600  0.63100  1.0000
  F   F14       1.0  0.12600  0.38200  0.63100  1.0000
  F   F15       1.0  0.87400  0.61800  0.63100  1.0000
  F   F16       1.0  0.38200  0.87400  0.63100  1.0000
  F   F17       1.0  0.32500  0.17500  0.75000  1.0000
  F   F18       1.0  0.82500  0.32500  0.75000  1.0000
  F   F19       1.0  0.17500  0.67500  0.75000  1.0000
  F   F20       1.0  0.67500  0.82500  0.75000  1.0000
  F   F21       1.0  0.62600  0.11800  0.86900  1.0000
  F   F22       1.0  0.11800  0.37400  0.86900  1.0000
  F   F23       1.0  0.88200  0.62600  0.86900  1.0000
  F   F24       1.0  0.37400  0.88200  0.86900  1.0000
  Fe  Fe1       1.0  0.00000  0.00000  0.00000  1.0000
  Fe  Fe2       1.0  0.50000  0.50000  0.50000  1.0000
  O   O1        1.0  0.33900  0.20300  0.00000  1.0000
  O   O2        1.0  0.79700  0.33900  0.00000  1.0000
  O   O3        1.0  0.20300  0.66100  0.00000  1.0000
  O   O4        1.0  0.66100  0.79700  0.00000  1.0000
  O   O5        1.0  0.50000  0.50000  0.24000  1.0000
  O   O6        1.0  0.00000  0.00000  0.26000  1.0000
  O   O7        1.0  0.29700  0.16100  0.50000  1.0000
  O   O8        1.0  0.83900  0.29700  0.50000  1.0000
  O   O9        1.0  0.16100  0.70300  0.50000  1.0000
  O   O10       1.0  0.70300  0.83900  0.50000  1.0000
  O   O11       1.0  0.00000  0.00000  0.74000  1.0000
  O   O12       1.0  0.50000  0.50000  0.76000  1.0000
  Sb  Sb1       1.0  0.50000  0.00000  0.25000  1.0000
  Sb  Sb2       1.0  0.00000  0.50000  0.25000  1.0000
  Sb  Sb3       1.0  0.50000  0.00000  0.75000  1.0000
  Sb  Sb4       1.0  0.00000  0.50000  0.75000  1.0000
