data_image0
_chemical_formula_structural       Al8Cu4F8O28Si8
_chemical_formula_sum              "Al8 Cu4 F8 O28 Si8"
_cell_length_a       8.83609
_cell_length_b       14.0338
_cell_length_c       4.72544
_cell_angle_alpha    90
_cell_angle_beta     90
_cell_angle_gamma    90

_space_group_name_H-M_alt    "P 1"
_space_group_IT_number       1

loop_
  _space_group_symop_operation_xyz
  'x, y, z'

loop_
  _atom_site_type_symbol
  _atom_site_label
  _atom_site_symmetry_multiplicity
  _atom_site_fract_x
  _atom_site_fract_y
  _atom_site_fract_z
  _atom_site_occupancy
  Al  Al1       1.0  0.13100  0.05030  0.09600  1.0000
  Al  Al2       1.0  0.13100  0.45000  0.09600  1.0000
  Al  Al3       1.0  0.63100  0.05030  0.40400  1.0000
  Al  Al4       1.0  0.63100  0.45000  0.40400  1.0000
  Al  Al5       1.0  0.36900  0.55000  0.59600  1.0000
  Al  Al6       1.0  0.36900  0.95000  0.59600  1.0000
  Al  Al7       1.0  0.86900  0.55000  0.90400  1.0000
  Al  Al8       1.0  0.86900  0.95000  0.90400  1.0000
  Cu  Cu1       1.0  0.14400  0.25000  0.13600  1.0000
  Cu  Cu2       1.0  0.64400  0.25000  0.36300  1.0000
  Cu  Cu3       1.0  0.35600  0.75000  0.63600  1.0000
  Cu  Cu4       1.0  0.85600  0.75000  0.86300  1.0000
  F   F1        1.0  0.75400  0.03360  0.10000  1.0000
  F   F2        1.0  0.75400  0.46600  0.10000  1.0000
  F   F3        1.0  0.25400  0.03360  0.40000  1.0000
  F   F4        1.0  0.25400  0.46600  0.40000  1.0000
  F   F5        1.0  0.74600  0.53400  0.60000  1.0000
  F   F6        1.0  0.74600  0.96600  0.60000  1.0000
  F   F7        1.0  0.24600  0.53400  0.90000  1.0000
  F   F8        1.0  0.24600  0.96600  0.90000  1.0000
  O   O1        1.0  0.74400  0.64700  0.03880  1.0000
  O   O2        1.0  0.74400  0.85300  0.03880  1.0000
  O   O3        1.0  0.53200  0.14400  0.19800  1.0000
  O   O4        1.0  0.53200  0.35600  0.19800  1.0000
  O   O5        1.0  0.01220  0.55700  0.20200  1.0000
  O   O6        1.0  0.01220  0.94300  0.20200  1.0000
  O   O7        1.0  0.02370  0.75000  0.24800  1.0000
  O   O8        1.0  0.52400  0.75000  0.25200  1.0000
  O   O9        1.0  0.51200  0.55700  0.29800  1.0000
  O   O10       1.0  0.51200  0.94300  0.29800  1.0000
  O   O11       1.0  0.03200  0.14400  0.30200  1.0000
  O   O12       1.0  0.03200  0.35600  0.30200  1.0000
  O   O13       1.0  0.24400  0.64700  0.46100  1.0000
  O   O14       1.0  0.24400  0.85300  0.46100  1.0000
  O   O15       1.0  0.75600  0.14700  0.53900  1.0000
  O   O16       1.0  0.75600  0.35300  0.53900  1.0000
  O   O17       1.0  0.96800  0.64400  0.69800  1.0000
  O   O18       1.0  0.96800  0.85600  0.69800  1.0000
  O   O19       1.0  0.48800  0.05710  0.70200  1.0000
  O   O20       1.0  0.48800  0.44300  0.70200  1.0000
  O   O21       1.0  0.47600  0.25000  0.74800  1.0000
  O   O22       1.0  0.97600  0.25000  0.75200  1.0000
  O   O23       1.0  0.98800  0.05710  0.79800  1.0000
  O   O24       1.0  0.98800  0.44300  0.79800  1.0000
  O   O25       1.0  0.46800  0.64400  0.80200  1.0000
  O   O26       1.0  0.46800  0.85600  0.80200  1.0000
  O   O27       1.0  0.25600  0.14700  0.96100  1.0000
  O   O28       1.0  0.25600  0.35300  0.96100  1.0000
  Si  Si1       1.0  0.56200  0.64700  0.09850  1.0000
  Si  Si2       1.0  0.56200  0.85300  0.09850  1.0000
  Si  Si3       1.0  0.06180  0.64700  0.40200  1.0000
  Si  Si4       1.0  0.06180  0.85300  0.40200  1.0000
  Si  Si5       1.0  0.93800  0.14700  0.59800  1.0000
  Si  Si6       1.0  0.93800  0.35300  0.59800  1.0000
  Si  Si7       1.0  0.43800  0.14700  0.90200  1.0000
  Si  Si8       1.0  0.43800  0.35300  0.90200  1.0000
