data_image0
_chemical_formula_structural       C2Cl36W12
_chemical_formula_sum              "C2 Cl36 W12"
_cell_length_a       9.45599
_cell_length_b       9.45599
_cell_length_c       18.4716
_cell_angle_alpha    90
_cell_angle_beta     90
_cell_angle_gamma    119.984

_space_group_name_H-M_alt    "P 1"
_space_group_IT_number       1

loop_
  _space_group_symop_operation_xyz
  'x, y, z'

loop_
  _atom_site_type_symbol
  _atom_site_label
  _atom_site_symmetry_multiplicity
  _atom_site_fract_x
  _atom_site_fract_y
  _atom_site_fract_z
  _atom_site_occupancy
  C   C1        1.0  0.33300  0.66700  0.25000  1.0000
  C   C2        1.0  0.66700  0.33300  0.75000  1.0000
  Cl  Cl1       1.0  0.55300  0.85700  0.08400  1.0000
  Cl  Cl2       1.0  0.30400  0.44700  0.08400  1.0000
  Cl  Cl3       1.0  0.14300  0.69600  0.08410  1.0000
  Cl  Cl4       1.0  0.69500  0.61200  0.10900  1.0000
  Cl  Cl5       1.0  0.38800  0.08250  0.10900  1.0000
  Cl  Cl6       1.0  0.91700  0.30500  0.10900  1.0000
  Cl  Cl7       1.0  0.57000  0.04300  0.25000  1.0000
  Cl  Cl8       1.0  0.11300  0.28700  0.25000  1.0000
  Cl  Cl9       1.0  0.47300  0.43000  0.25000  1.0000
  Cl  Cl10      1.0  0.95700  0.52700  0.25000  1.0000
  Cl  Cl11      1.0  0.71300  0.82500  0.25000  1.0000
  Cl  Cl12      1.0  0.17500  0.88700  0.25000  1.0000
  Cl  Cl13      1.0  0.38800  0.08250  0.39100  1.0000
  Cl  Cl14      1.0  0.91700  0.30500  0.39100  1.0000
  Cl  Cl15      1.0  0.69500  0.61200  0.39100  1.0000
  Cl  Cl16      1.0  0.14300  0.69600  0.41600  1.0000
  Cl  Cl17      1.0  0.30400  0.44700  0.41600  1.0000
  Cl  Cl18      1.0  0.55300  0.85700  0.41600  1.0000
  Cl  Cl19      1.0  0.85700  0.55300  0.58400  1.0000
  Cl  Cl20      1.0  0.44700  0.30400  0.58400  1.0000
  Cl  Cl21      1.0  0.69600  0.14300  0.58400  1.0000
  Cl  Cl22      1.0  0.61200  0.69500  0.60900  1.0000
  Cl  Cl23      1.0  0.08250  0.38800  0.60900  1.0000
  Cl  Cl24      1.0  0.30500  0.91700  0.60900  1.0000
  Cl  Cl25      1.0  0.28700  0.11300  0.75000  1.0000
  Cl  Cl26      1.0  0.88700  0.17500  0.75000  1.0000
  Cl  Cl27      1.0  0.43000  0.47300  0.75000  1.0000
  Cl  Cl28      1.0  0.04300  0.57000  0.75000  1.0000
  Cl  Cl29      1.0  0.82500  0.71300  0.75000  1.0000
  Cl  Cl30      1.0  0.52700  0.95700  0.75000  1.0000
  Cl  Cl31      1.0  0.30500  0.91700  0.89100  1.0000
  Cl  Cl32      1.0  0.08250  0.38800  0.89100  1.0000
  Cl  Cl33      1.0  0.61200  0.69500  0.89100  1.0000
  Cl  Cl34      1.0  0.69600  0.14300  0.91600  1.0000
  Cl  Cl35      1.0  0.44700  0.30400  0.91600  1.0000
  Cl  Cl36      1.0  0.85700  0.55300  0.91600  1.0000
  W   W1        1.0  0.35700  0.84600  0.17000  1.0000
  W   W2        1.0  0.48900  0.64300  0.17000  1.0000
  W   W3        1.0  0.15400  0.51100  0.17000  1.0000
  W   W4        1.0  0.15400  0.51100  0.33000  1.0000
  W   W5        1.0  0.48900  0.64300  0.33000  1.0000
  W   W6        1.0  0.35700  0.84600  0.33000  1.0000
  W   W7        1.0  0.84600  0.35700  0.67000  1.0000
  W   W8        1.0  0.64300  0.48900  0.67000  1.0000
  W   W9        1.0  0.51100  0.15400  0.67000  1.0000
  W   W10       1.0  0.51100  0.15400  0.83000  1.0000
  W   W11       1.0  0.64300  0.48900  0.83000  1.0000
  W   W12       1.0  0.84600  0.35700  0.83000  1.0000
