data_image0
_chemical_formula_structural       B16Ca4H4O30
_chemical_formula_sum              "B16 Ca4 H4 O30"
_cell_length_a       6.39984
_cell_length_b       9.24826
_cell_length_c       9.88985
_cell_angle_alpha    63.0357
_cell_angle_beta     89.4768
_cell_angle_gamma    99.3015

_space_group_name_H-M_alt    "P 1"
_space_group_IT_number       1

loop_
  _space_group_symop_operation_xyz
  'x, y, z'

loop_
  _atom_site_type_symbol
  _atom_site_label
  _atom_site_symmetry_multiplicity
  _atom_site_fract_x
  _atom_site_fract_y
  _atom_site_fract_z
  _atom_site_occupancy
  B   B1        1.0  0.22700  0.83200  0.02130  1.0000
  B   B2        1.0  0.91500  0.59900  0.12100  1.0000
  B   B3        1.0  0.26200  0.53300  0.15200  1.0000
  B   B4        1.0  0.55800  0.15500  0.19400  1.0000
  B   B5        1.0  0.24500  0.94000  0.21900  1.0000
  B   B6        1.0  0.57600  0.39300  0.25900  1.0000
  B   B7        1.0  0.93100  0.80100  0.42400  1.0000
  B   B8        1.0  0.29000  0.73400  0.47900  1.0000
  B   B9        1.0  0.71000  0.26600  0.52100  1.0000
  B   B10       1.0  0.06900  0.19900  0.57600  1.0000
  B   B11       1.0  0.42400  0.60700  0.74100  1.0000
  B   B12       1.0  0.75500  0.06030  0.78100  1.0000
  B   B13       1.0  0.44200  0.84500  0.80600  1.0000
  B   B14       1.0  0.73800  0.46700  0.84800  1.0000
  B   B15       1.0  0.08480  0.40100  0.87900  1.0000
  B   B16       1.0  0.77300  0.16800  0.97900  1.0000
  Ca  Ca1       1.0  0.67200  0.81200  0.17400  1.0000
  Ca  Ca2       1.0  0.01050  0.17400  0.27900  1.0000
  Ca  Ca3       1.0  0.98900  0.82600  0.72100  1.0000
  Ca  Ca4       1.0  0.32800  0.18800  0.82600  1.0000
  H   H1        1.0  0.33100  0.15000  0.49300  1.0000
  H   H2        1.0  0.65900  0.62800  0.49500  1.0000
  H   H3        1.0  0.34100  0.37200  0.50500  1.0000
  H   H4        1.0  0.66900  0.85000  0.50700  1.0000
  O   O1        1.0  0.99600  0.76500  0.04330  1.0000
  O   O2        1.0  0.27800  0.95800  0.06750  1.0000
  O   O3        1.0  0.34900  0.69500  0.10100  1.0000
  O   O4        1.0  0.70000  0.08550  0.14400  1.0000
  O   O5        1.0  0.04460  0.48400  0.14700  1.0000
  O   O6        1.0  0.70800  0.55700  0.17300  1.0000
  O   O7        1.0  0.35800  0.40100  0.21600  1.0000
  O   O8        1.0  0.34400  0.09960  0.21800  1.0000
  O   O9        1.0  0.66100  0.27600  0.22400  1.0000
  O   O10       1.0  0.02230  0.91300  0.26900  1.0000
  O   O11       1.0  0.35500  0.80700  0.32600  1.0000
  O   O12       1.0  0.78300  0.66700  0.41900  1.0000
  O   O13       1.0  0.56300  0.33800  0.42300  1.0000
  O   O14       1.0  0.90400  0.25700  0.46900  1.0000
  O   O15       1.0  0.82100  0.89900  0.48200  1.0000
  O   O16       1.0  0.17900  0.10100  0.51800  1.0000
  O   O17       1.0  0.09610  0.74300  0.53100  1.0000
  O   O18       1.0  0.43700  0.66200  0.57700  1.0000
  O   O19       1.0  0.21700  0.33300  0.58100  1.0000
  O   O20       1.0  0.64500  0.19300  0.67400  1.0000
  O   O21       1.0  0.97800  0.08680  0.73100  1.0000
  O   O22       1.0  0.33900  0.72400  0.77600  1.0000
  O   O23       1.0  0.65600  0.90000  0.78200  1.0000
  O   O24       1.0  0.64200  0.59900  0.78400  1.0000
  O   O25       1.0  0.29200  0.44300  0.82700  1.0000
  O   O26       1.0  0.95500  0.51600  0.85300  1.0000
  O   O27       1.0  0.30000  0.91500  0.85600  1.0000
  O   O28       1.0  0.65100  0.30500  0.89900  1.0000
  O   O29       1.0  0.72200  0.04190  0.93300  1.0000
  O   O30       1.0  0.00422  0.23500  0.95700  1.0000
