data_image0
_chemical_formula_structural       Br8C16F24Te4
_chemical_formula_sum              "Br8 C16 F24 Te4"
_cell_length_a       8.68929
_cell_length_b       10.2289
_cell_length_c       10.5276
_cell_angle_alpha    62.0039
_cell_angle_beta     88.2095
_cell_angle_gamma    88.6157

_space_group_name_H-M_alt    "P 1"
_space_group_IT_number       1

loop_
  _space_group_symop_operation_xyz
  'x, y, z'

loop_
  _atom_site_type_symbol
  _atom_site_label
  _atom_site_symmetry_multiplicity
  _atom_site_fract_x
  _atom_site_fract_y
  _atom_site_fract_z
  _atom_site_occupancy
  Br  Br1       1.0  0.80000  0.45800  0.05440  1.0000
  Br  Br2       1.0  0.01610  0.14100  0.11700  1.0000
  Br  Br3       1.0  0.86200  0.35200  0.39400  1.0000
  Br  Br4       1.0  0.24900  0.09120  0.48300  1.0000
  Br  Br5       1.0  0.75100  0.90900  0.51700  1.0000
  Br  Br6       1.0  0.13800  0.64800  0.60600  1.0000
  Br  Br7       1.0  0.98400  0.85900  0.88300  1.0000
  Br  Br8       1.0  0.20000  0.54200  0.94600  1.0000
  C   C1        1.0  0.38800  0.23700  0.14500  1.0000
  C   C2        1.0  0.34400  0.88700  0.16900  1.0000
  C   C3        1.0  0.52600  0.19800  0.20500  1.0000
  C   C4        1.0  0.84900  0.77100  0.24200  1.0000
  C   C5        1.0  0.36400  0.46500  0.25000  1.0000
  C   C6        1.0  0.99500  0.76000  0.28200  1.0000
  C   C7        1.0  0.30800  0.87800  0.29700  1.0000
  C   C8        1.0  0.35500  0.48700  0.36500  1.0000
  C   C9        1.0  0.64500  0.51300  0.63500  1.0000
  C   C10       1.0  0.69200  0.12200  0.70300  1.0000
  C   C11       1.0  0.00508  0.24000  0.71800  1.0000
  C   C12       1.0  0.63600  0.53500  0.75000  1.0000
  C   C13       1.0  0.15100  0.22900  0.75800  1.0000
  C   C14       1.0  0.47400  0.80200  0.79500  1.0000
  C   C15       1.0  0.65600  0.11300  0.83100  1.0000
  C   C16       1.0  0.61200  0.76300  0.85500  1.0000
  F   F1        1.0  0.36300  0.21600  0.03000  1.0000
  F   F2        1.0  0.24300  0.91000  0.06860  1.0000
  F   F3        1.0  0.48600  0.87100  0.12800  1.0000
  F   F4        1.0  0.47100  0.54100  0.14600  1.0000
  F   F5        1.0  0.63600  0.13800  0.15800  1.0000
  F   F6        1.0  0.78400  0.68000  0.20300  1.0000
  F   F7        1.0  0.75300  0.87500  0.23800  1.0000
  F   F8        1.0  0.08740  0.65300  0.28000  1.0000
  F   F9        1.0  0.56800  0.21200  0.31800  1.0000
  F   F10       1.0  0.44100  0.58400  0.38100  1.0000
  F   F11       1.0  0.42200  0.85200  0.39100  1.0000
  F   F12       1.0  0.25700  0.41800  0.47500  1.0000
  F   F13       1.0  0.74300  0.58200  0.52500  1.0000
  F   F14       1.0  0.57800  0.14800  0.60900  1.0000
  F   F15       1.0  0.55900  0.41600  0.61900  1.0000
  F   F16       1.0  0.43200  0.78800  0.68200  1.0000
  F   F17       1.0  0.91300  0.34700  0.72000  1.0000
  F   F18       1.0  0.24700  0.12500  0.76200  1.0000
  F   F19       1.0  0.21600  0.32000  0.79700  1.0000
  F   F20       1.0  0.36400  0.86200  0.84200  1.0000
  F   F21       1.0  0.52900  0.45900  0.85400  1.0000
  F   F22       1.0  0.51400  0.12900  0.87200  1.0000
  F   F23       1.0  0.75700  0.09020  0.93100  1.0000
  F   F24       1.0  0.63700  0.78400  0.97000  1.0000
  Te  Te1       1.0  0.20300  0.33500  0.20800  1.0000
  Te  Te2       1.0  0.07960  0.89400  0.37000  1.0000
  Te  Te3       1.0  0.92000  0.10600  0.63000  1.0000
  Te  Te4       1.0  0.79700  0.66500  0.79200  1.0000
