data_image0
_chemical_formula_structural       Ag2O2Sr2Te2
_chemical_formula_sum              "Ag2 O2 Sr2 Te2"
_cell_length_a       3.66967
_cell_length_b       6.23948
_cell_length_c       8.11081
_cell_angle_alpha    90
_cell_angle_beta     76.9253
_cell_angle_gamma    90

_space_group_name_H-M_alt    "P 1"
_space_group_IT_number       1

loop_
  _space_group_symop_operation_xyz
  'x, y, z'

loop_
  _atom_site_type_symbol
  _atom_site_label
  _atom_site_symmetry_multiplicity
  _atom_site_fract_x
  _atom_site_fract_y
  _atom_site_fract_z
  _atom_site_occupancy
  Ag  Ag1       1.0  0.43100  0.75000  0.13900  1.0000
  Ag  Ag2       1.0  0.56900  0.25000  0.86100  1.0000
  O   O1        1.0  0.00000  0.00000  0.00000  1.0000
  O   O2        1.0  0.00000  0.50000  0.00000  1.0000
  Sr  Sr1       1.0  0.89200  0.25000  0.21600  1.0000
  Sr  Sr2       1.0  0.10800  0.75000  0.78400  1.0000
  Te  Te1       1.0  0.79000  0.75000  0.41900  1.0000
  Te  Te2       1.0  0.21000  0.25000  0.58100  1.0000
