data_image0
_chemical_formula_structural       Na8O36S8V4
_chemical_formula_sum              "Na8 O36 S8 V4"
_cell_length_a       6.29303
_cell_length_b       6.67387
_cell_length_c       16.4784
_cell_angle_alpha    90
_cell_angle_beta     90
_cell_angle_gamma    90

_space_group_name_H-M_alt    "P 1"
_space_group_IT_number       1

loop_
  _space_group_symop_operation_xyz
  'x, y, z'

loop_
  _atom_site_type_symbol
  _atom_site_label
  _atom_site_symmetry_multiplicity
  _atom_site_fract_x
  _atom_site_fract_y
  _atom_site_fract_z
  _atom_site_occupancy
  Na  Na1       1.0  0.82200  0.84400  0.08650  1.0000
  Na  Na2       1.0  0.37600  0.11000  0.23800  1.0000
  Na  Na3       1.0  0.62400  0.61000  0.26200  1.0000
  Na  Na4       1.0  0.17800  0.34400  0.41400  1.0000
  Na  Na5       1.0  0.67800  0.15600  0.58600  1.0000
  Na  Na6       1.0  0.12400  0.89000  0.73800  1.0000
  Na  Na7       1.0  0.87600  0.39000  0.76200  1.0000
  Na  Na8       1.0  0.32200  0.65600  0.91400  1.0000
  O   O1        1.0  0.04100  0.51800  0.01520  1.0000
  O   O2        1.0  0.02420  0.08560  0.02070  1.0000
  O   O3        1.0  0.71900  0.29400  0.09600  1.0000
  O   O4        1.0  0.54500  0.62200  0.09920  1.0000
  O   O5        1.0  0.34900  0.30600  0.10500  1.0000
  O   O6        1.0  0.00799  0.56100  0.17600  1.0000
  O   O7        1.0  0.02110  0.14300  0.18400  1.0000
  O   O8        1.0  0.72600  0.93500  0.22400  1.0000
  O   O9        1.0  0.27500  0.78100  0.23300  1.0000
  O   O10       1.0  0.72500  0.28100  0.26700  1.0000
  O   O11       1.0  0.27400  0.43500  0.27600  1.0000
  O   O12       1.0  0.97900  0.64300  0.31600  1.0000
  O   O13       1.0  0.99200  0.06070  0.32400  1.0000
  O   O14       1.0  0.65100  0.80600  0.39500  1.0000
  O   O15       1.0  0.45500  0.12200  0.40100  1.0000
  O   O16       1.0  0.28100  0.79400  0.40400  1.0000
  O   O17       1.0  0.97600  0.58600  0.47900  1.0000
  O   O18       1.0  0.95900  0.01830  0.48500  1.0000
  O   O19       1.0  0.45900  0.48200  0.51500  1.0000
  O   O20       1.0  0.47600  0.91400  0.52100  1.0000
  O   O21       1.0  0.78100  0.70600  0.59600  1.0000
  O   O22       1.0  0.95500  0.37800  0.59900  1.0000
  O   O23       1.0  0.15100  0.69400  0.60500  1.0000
  O   O24       1.0  0.49200  0.43900  0.67600  1.0000
  O   O25       1.0  0.47900  0.85700  0.68400  1.0000
  O   O26       1.0  0.77400  0.06470  0.72400  1.0000
  O   O27       1.0  0.22500  0.21900  0.73300  1.0000
  O   O28       1.0  0.77500  0.71900  0.76700  1.0000
  O   O29       1.0  0.22600  0.56500  0.77600  1.0000
  O   O30       1.0  0.52100  0.35700  0.81600  1.0000
  O   O31       1.0  0.50800  0.93900  0.82400  1.0000
  O   O32       1.0  0.84900  0.19400  0.89500  1.0000
  O   O33       1.0  0.04510  0.87800  0.90100  1.0000
  O   O34       1.0  0.21900  0.20600  0.90400  1.0000
  O   O35       1.0  0.52400  0.41400  0.97900  1.0000
  O   O36       1.0  0.54100  0.98200  0.98500  1.0000
  S   S1        1.0  0.53500  0.41700  0.07030  1.0000
  S   S2        1.0  0.85700  0.10700  0.24900  1.0000
  S   S3        1.0  0.14300  0.60700  0.25100  1.0000
  S   S4        1.0  0.46500  0.91700  0.43000  1.0000
  S   S5        1.0  0.96500  0.58300  0.57000  1.0000
  S   S6        1.0  0.64300  0.89300  0.74900  1.0000
  S   S7        1.0  0.35700  0.39300  0.75100  1.0000
  S   S8        1.0  0.03470  0.08330  0.93000  1.0000
  V   V1        1.0  0.03340  0.35100  0.08830  1.0000
  V   V2        1.0  0.96700  0.85100  0.41200  1.0000
  V   V3        1.0  0.46700  0.64900  0.58800  1.0000
  V   V4        1.0  0.53300  0.14900  0.91200  1.0000
