data_image0
_chemical_formula_structural       F42H6Xe6
_chemical_formula_sum              "F42 H6 Xe6"
_cell_length_a       9.24972
_cell_length_b       9.24972
_cell_length_c       9.24972
_cell_angle_alpha    109.042
_cell_angle_beta     109.042
_cell_angle_gamma    109.042

_space_group_name_H-M_alt    "P 1"
_space_group_IT_number       1

loop_
  _space_group_symop_operation_xyz
  'x, y, z'

loop_
  _atom_site_type_symbol
  _atom_site_label
  _atom_site_symmetry_multiplicity
  _atom_site_fract_x
  _atom_site_fract_y
  _atom_site_fract_z
  _atom_site_occupancy
  F   F1        1.0  0.75000  0.64300  0.03820  1.0000
  F   F2        1.0  0.23600  0.10000  0.04800  1.0000
  F   F3        1.0  0.68000  0.13900  0.07360  1.0000
  F   F4        1.0  0.04800  0.23600  0.10000  1.0000
  F   F5        1.0  0.86800  0.41700  0.12100  1.0000
  F   F6        1.0  0.58300  0.87900  0.13200  1.0000
  F   F7        1.0  0.07360  0.68000  0.13900  1.0000
  F   F8        1.0  0.57500  0.35700  0.18900  1.0000
  F   F9        1.0  0.37300  0.69200  0.19200  1.0000
  F   F10       1.0  0.10000  0.04800  0.23600  1.0000
  F   F11       1.0  0.35700  0.96200  0.25000  1.0000
  F   F12       1.0  0.38300  0.46700  0.28100  1.0000
  F   F13       1.0  0.80800  0.62700  0.30800  1.0000
  F   F14       1.0  0.86100  0.92600  0.32000  1.0000
  F   F15       1.0  0.18900  0.57500  0.35700  1.0000
  F   F16       1.0  0.96200  0.25000  0.35700  1.0000
  F   F17       1.0  0.69200  0.19200  0.37300  1.0000
  F   F18       1.0  0.46700  0.28100  0.38300  1.0000
  F   F19       1.0  0.12100  0.86800  0.41700  1.0000
  F   F20       1.0  0.64300  0.81100  0.42500  1.0000
  F   F21       1.0  0.28100  0.38300  0.46700  1.0000
  F   F22       1.0  0.71900  0.61700  0.53300  1.0000
  F   F23       1.0  0.35700  0.18900  0.57500  1.0000
  F   F24       1.0  0.87900  0.13200  0.58300  1.0000
  F   F25       1.0  0.53300  0.71900  0.61700  1.0000
  F   F26       1.0  0.30800  0.80800  0.62700  1.0000
  F   F27       1.0  0.03820  0.75000  0.64300  1.0000
  F   F28       1.0  0.81100  0.42500  0.64300  1.0000
  F   F29       1.0  0.13900  0.07360  0.68000  1.0000
  F   F30       1.0  0.19200  0.37300  0.69200  1.0000
  F   F31       1.0  0.61700  0.53300  0.71900  1.0000
  F   F32       1.0  0.64300  0.03820  0.75000  1.0000
  F   F33       1.0  0.90000  0.95200  0.76400  1.0000
  F   F34       1.0  0.62700  0.30800  0.80800  1.0000
  F   F35       1.0  0.42500  0.64300  0.81100  1.0000
  F   F36       1.0  0.92600  0.32000  0.86100  1.0000
  F   F37       1.0  0.41700  0.12100  0.86800  1.0000
  F   F38       1.0  0.13200  0.58300  0.87900  1.0000
  F   F39       1.0  0.95200  0.76400  0.90000  1.0000
  F   F40       1.0  0.32000  0.86100  0.92600  1.0000
  F   F41       1.0  0.76400  0.90000  0.95200  1.0000
  F   F42       1.0  0.25000  0.35700  0.96200  1.0000
  H   H1        1.0  0.78500  0.29900  0.09480  1.0000
  H   H2        1.0  0.70100  0.90500  0.21500  1.0000
  H   H3        1.0  0.09480  0.78500  0.29900  1.0000
  H   H4        1.0  0.90500  0.21500  0.70100  1.0000
  H   H5        1.0  0.29900  0.09480  0.78500  1.0000
  H   H6        1.0  0.21500  0.70100  0.90500  1.0000
  Xe  Xe1       1.0  0.18000  0.47000  0.12800  1.0000
  Xe  Xe2       1.0  0.47000  0.12800  0.18000  1.0000
  Xe  Xe3       1.0  0.12800  0.18000  0.47000  1.0000
  Xe  Xe4       1.0  0.87200  0.82000  0.53000  1.0000
  Xe  Xe5       1.0  0.53000  0.87200  0.82000  1.0000
  Xe  Xe6       1.0  0.82000  0.53000  0.87200  1.0000
