data_image0
_chemical_formula_structural       Ge4O36P4Pr12
_chemical_formula_sum              "Ge4 O36 P4 Pr12"
_cell_length_a       7.03948
_cell_length_b       12.4693
_cell_length_c       9.15207
_cell_angle_alpha    90
_cell_angle_beta     107.109
_cell_angle_gamma    90

_space_group_name_H-M_alt    "P 1"
_space_group_IT_number       1

loop_
  _space_group_symop_operation_xyz
  'x, y, z'

loop_
  _atom_site_type_symbol
  _atom_site_label
  _atom_site_symmetry_multiplicity
  _atom_site_fract_x
  _atom_site_fract_y
  _atom_site_fract_z
  _atom_site_occupancy
  Ge  Ge1       1.0  0.04140  0.89600  0.23600  1.0000
  Ge  Ge2       1.0  0.45900  0.39600  0.26400  1.0000
  Ge  Ge3       1.0  0.54100  0.60400  0.73600  1.0000
  Ge  Ge4       1.0  0.95900  0.10400  0.76400  1.0000
  O   O1        1.0  0.41700  0.70200  0.03690  1.0000
  O   O2        1.0  0.14800  0.92500  0.08370  1.0000
  O   O3        1.0  0.82700  0.44500  0.10700  1.0000
  O   O4        1.0  0.10600  0.66100  0.10800  1.0000
  O   O5        1.0  0.28600  0.32400  0.12200  1.0000
  O   O6        1.0  0.49400  0.07900  0.12400  1.0000
  O   O7        1.0  0.82100  0.82600  0.13500  1.0000
  O   O8        1.0  0.90500  0.25300  0.15400  1.0000
  O   O9        1.0  0.51200  0.52800  0.22000  1.0000
  O   O10       1.0  0.98800  0.02750  0.28000  1.0000
  O   O11       1.0  0.59500  0.75300  0.34600  1.0000
  O   O12       1.0  0.67900  0.32600  0.36500  1.0000
  O   O13       1.0  0.00584  0.57900  0.37600  1.0000
  O   O14       1.0  0.21400  0.82400  0.37800  1.0000
  O   O15       1.0  0.39400  0.16100  0.39200  1.0000
  O   O16       1.0  0.67300  0.94500  0.39300  1.0000
  O   O17       1.0  0.35200  0.42500  0.41600  1.0000
  O   O18       1.0  0.08340  0.20200  0.46300  1.0000
  O   O19       1.0  0.91700  0.79800  0.53700  1.0000
  O   O20       1.0  0.64800  0.57500  0.58400  1.0000
  O   O21       1.0  0.32700  0.05510  0.60700  1.0000
  O   O22       1.0  0.60600  0.83900  0.60800  1.0000
  O   O23       1.0  0.78600  0.17600  0.62200  1.0000
  O   O24       1.0  0.99400  0.42100  0.62400  1.0000
  O   O25       1.0  0.32100  0.67400  0.63500  1.0000
  O   O26       1.0  0.40500  0.24700  0.65400  1.0000
  O   O27       1.0  0.01230  0.97200  0.72000  1.0000
  O   O28       1.0  0.48800  0.47200  0.78000  1.0000
  O   O29       1.0  0.09540  0.74700  0.84600  1.0000
  O   O30       1.0  0.17900  0.17400  0.86500  1.0000
  O   O31       1.0  0.50600  0.92100  0.87600  1.0000
  O   O32       1.0  0.71400  0.67600  0.87800  1.0000
  O   O33       1.0  0.89400  0.33900  0.89200  1.0000
  O   O34       1.0  0.17300  0.55500  0.89300  1.0000
  O   O35       1.0  0.85200  0.07460  0.91600  1.0000
  O   O36       1.0  0.58300  0.29800  0.96300  1.0000
  P   P1        1.0  0.80100  0.33500  0.02470  1.0000
  P   P2        1.0  0.69900  0.83500  0.47500  1.0000
  P   P3        1.0  0.30100  0.16500  0.52500  1.0000
  P   P4        1.0  0.19900  0.66500  0.97500  1.0000
  Pr  Pr1       1.0  0.48700  0.89000  0.12500  1.0000
  Pr  Pr2       1.0  0.16600  0.13300  0.13000  1.0000
  Pr  Pr3       1.0  0.75800  0.63000  0.14500  1.0000
  Pr  Pr4       1.0  0.74200  0.13000  0.35500  1.0000
  Pr  Pr5       1.0  0.33400  0.63300  0.37000  1.0000
  Pr  Pr6       1.0  0.01280  0.39000  0.37500  1.0000
  Pr  Pr7       1.0  0.98700  0.61000  0.62500  1.0000
  Pr  Pr8       1.0  0.66600  0.36700  0.63000  1.0000
  Pr  Pr9       1.0  0.25800  0.87000  0.64500  1.0000
  Pr  Pr10      1.0  0.24200  0.37000  0.85500  1.0000
  Pr  Pr11      1.0  0.83400  0.86700  0.87000  1.0000
  Pr  Pr12      1.0  0.51300  0.11000  0.87500  1.0000
