data_image0
_chemical_formula_structural       H12O32Rb4S8
_chemical_formula_sum              "H12 O32 Rb4 S8"
_cell_length_a       7.19454
_cell_length_b       12.1815
_cell_length_c       7.60982
_cell_angle_alpha    90
_cell_angle_beta     93.6969
_cell_angle_gamma    90

_space_group_name_H-M_alt    "P 1"
_space_group_IT_number       1

loop_
  _space_group_symop_operation_xyz
  'x, y, z'

loop_
  _atom_site_type_symbol
  _atom_site_label
  _atom_site_symmetry_multiplicity
  _atom_site_fract_x
  _atom_site_fract_y
  _atom_site_fract_z
  _atom_site_occupancy
  H   H1        1.0  0.83400  0.95200  0.10900  1.0000
  H   H2        1.0  0.60900  0.73900  0.11200  1.0000
  H   H3        1.0  0.01870  0.15800  0.23300  1.0000
  H   H4        1.0  0.98100  0.65800  0.26700  1.0000
  H   H5        1.0  0.39100  0.23900  0.38800  1.0000
  H   H6        1.0  0.16600  0.45200  0.39100  1.0000
  H   H7        1.0  0.83400  0.54800  0.60900  1.0000
  H   H8        1.0  0.60900  0.76100  0.61200  1.0000
  H   H9        1.0  0.01870  0.34200  0.73300  1.0000
  H   H10       1.0  0.98100  0.84200  0.76700  1.0000
  H   H11       1.0  0.39100  0.26100  0.88800  1.0000
  H   H12       1.0  0.16600  0.04780  0.89100  1.0000
  O   O1        1.0  0.31200  0.35300  0.00715  1.0000
  O   O2        1.0  0.79500  0.02000  0.03540  1.0000
  O   O3        1.0  0.70500  0.20700  0.05710  1.0000
  O   O4        1.0  0.17100  0.19200  0.13300  1.0000
  O   O5        1.0  0.59000  0.80100  0.20100  1.0000
  O   O6        1.0  0.09410  0.62600  0.20100  1.0000
  O   O7        1.0  0.41300  0.57200  0.23200  1.0000
  O   O8        1.0  0.09480  0.37400  0.23900  1.0000
  O   O9        1.0  0.90500  0.87400  0.26100  1.0000
  O   O10       1.0  0.58700  0.07200  0.26800  1.0000
  O   O11       1.0  0.90600  0.12600  0.29900  1.0000
  O   O12       1.0  0.41000  0.30100  0.29900  1.0000
  O   O13       1.0  0.82900  0.69200  0.36700  1.0000
  O   O14       1.0  0.29500  0.70700  0.44300  1.0000
  O   O15       1.0  0.20500  0.52000  0.46500  1.0000
  O   O16       1.0  0.68800  0.85300  0.49300  1.0000
  O   O17       1.0  0.31200  0.14700  0.50700  1.0000
  O   O18       1.0  0.79500  0.48000  0.53500  1.0000
  O   O19       1.0  0.70500  0.29300  0.55700  1.0000
  O   O20       1.0  0.17100  0.30800  0.63300  1.0000
  O   O21       1.0  0.59000  0.69900  0.70100  1.0000
  O   O22       1.0  0.09410  0.87400  0.70100  1.0000
  O   O23       1.0  0.41300  0.92800  0.73200  1.0000
  O   O24       1.0  0.09480  0.12600  0.73900  1.0000
  O   O25       1.0  0.90500  0.62600  0.76100  1.0000
  O   O26       1.0  0.58700  0.42800  0.76800  1.0000
  O   O27       1.0  0.90600  0.37400  0.79900  1.0000
  O   O28       1.0  0.41000  0.19900  0.79900  1.0000
  O   O29       1.0  0.82900  0.80800  0.86700  1.0000
  O   O30       1.0  0.29500  0.79300  0.94300  1.0000
  O   O31       1.0  0.20500  0.98000  0.96500  1.0000
  O   O32       1.0  0.68800  0.64700  0.99300  1.0000
  Rb  Rb1       1.0  0.71700  0.43300  0.15800  1.0000
  Rb  Rb2       1.0  0.28300  0.93300  0.34200  1.0000
  Rb  Rb3       1.0  0.71700  0.06700  0.65800  1.0000
  Rb  Rb4       1.0  0.28300  0.56700  0.84200  1.0000
  S   S1        1.0  0.23700  0.30500  0.16400  1.0000
  S   S2        1.0  0.73400  0.11200  0.16500  1.0000
  S   S3        1.0  0.26600  0.61200  0.33500  1.0000
  S   S4        1.0  0.76300  0.80500  0.33600  1.0000
  S   S5        1.0  0.23700  0.19500  0.66400  1.0000
  S   S6        1.0  0.73400  0.38800  0.66500  1.0000
  S   S7        1.0  0.26600  0.88800  0.83500  1.0000
  S   S8        1.0  0.76300  0.69500  0.83600  1.0000
