data_image0
_chemical_formula_structural       S32Sb20Tl4
_chemical_formula_sum              "S32 Sb20 Tl4"
_cell_length_a       8.38621
_cell_length_b       19.6135
_cell_length_c       9.16318
_cell_angle_alpha    90
_cell_angle_beta     90.8097
_cell_angle_gamma    90

_space_group_name_H-M_alt    "P 1"
_space_group_IT_number       1

loop_
  _space_group_symop_operation_xyz
  'x, y, z'

loop_
  _atom_site_type_symbol
  _atom_site_label
  _atom_site_symmetry_multiplicity
  _atom_site_fract_x
  _atom_site_fract_y
  _atom_site_fract_z
  _atom_site_occupancy
  S   S1        1.0  0.56800  0.03620  0.00622  1.0000
  S   S2        1.0  0.46200  0.83300  0.03480  1.0000
  S   S3        1.0  0.25400  0.29200  0.08290  1.0000
  S   S4        1.0  0.10400  0.60100  0.08440  1.0000
  S   S5        1.0  0.84100  0.91600  0.18400  1.0000
  S   S6        1.0  0.64600  0.19700  0.19500  1.0000
  S   S7        1.0  0.45700  0.67700  0.23500  1.0000
  S   S8        1.0  0.27600  0.11200  0.27100  1.0000
  S   S9        1.0  0.81800  0.50800  0.28300  1.0000
  S   S10       1.0  0.26400  0.46000  0.28500  1.0000
  S   S11       1.0  0.09260  0.77100  0.31100  1.0000
  S   S12       1.0  0.90100  0.34100  0.33300  1.0000
  S   S13       1.0  0.61800  0.01700  0.41300  1.0000
  S   S14       1.0  0.48400  0.83800  0.44600  1.0000
  S   S15       1.0  0.29300  0.27700  0.46300  1.0000
  S   S16       1.0  0.09990  0.59700  0.49700  1.0000
  S   S17       1.0  0.06790  0.96400  0.50600  1.0000
  S   S18       1.0  0.96200  0.16700  0.53500  1.0000
  S   S19       1.0  0.75400  0.70800  0.58300  1.0000
  S   S20       1.0  0.60400  0.39900  0.58400  1.0000
  S   S21       1.0  0.34100  0.08410  0.68400  1.0000
  S   S22       1.0  0.14600  0.80300  0.69500  1.0000
  S   S23       1.0  0.95700  0.32300  0.73500  1.0000
  S   S24       1.0  0.77600  0.88800  0.77100  1.0000
  S   S25       1.0  0.31800  0.49200  0.78300  1.0000
  S   S26       1.0  0.76400  0.54000  0.78500  1.0000
  S   S27       1.0  0.59300  0.22900  0.81100  1.0000
  S   S28       1.0  0.40100  0.65900  0.83300  1.0000
  S   S29       1.0  0.11800  0.98300  0.91300  1.0000
  S   S30       1.0  0.98400  0.16200  0.94600  1.0000
  S   S31       1.0  0.79300  0.72300  0.96300  1.0000
  S   S32       1.0  0.60000  0.40300  0.99700  1.0000
  Sb  Sb1       1.0  0.43200  0.15300  0.02920  1.0000
  Sb  Sb2       1.0  0.25400  0.71400  0.04530  1.0000
  Sb  Sb3       1.0  0.78000  0.04400  0.19300  1.0000
  Sb  Sb4       1.0  0.63000  0.78600  0.23100  1.0000
  Sb  Sb5       1.0  0.42700  0.35100  0.26400  1.0000
  Sb  Sb6       1.0  0.09320  0.22900  0.29100  1.0000
  Sb  Sb7       1.0  0.92600  0.63100  0.29200  1.0000
  Sb  Sb8       1.0  0.02440  0.45700  0.44700  1.0000
  Sb  Sb9       1.0  0.48400  0.13000  0.46200  1.0000
  Sb  Sb10      1.0  0.30300  0.73500  0.48200  1.0000
  Sb  Sb11      1.0  0.93200  0.84700  0.52900  1.0000
  Sb  Sb12      1.0  0.75400  0.28600  0.54500  1.0000
  Sb  Sb13      1.0  0.28000  0.95600  0.69300  1.0000
  Sb  Sb14      1.0  0.13000  0.21400  0.73100  1.0000
  Sb  Sb15      1.0  0.92700  0.64900  0.76400  1.0000
  Sb  Sb16      1.0  0.59300  0.77100  0.79100  1.0000
  Sb  Sb17      1.0  0.42600  0.36900  0.79200  1.0000
  Sb  Sb18      1.0  0.52400  0.54300  0.94700  1.0000
  Sb  Sb19      1.0  0.98400  0.87000  0.96200  1.0000
  Sb  Sb20      1.0  0.80300  0.26500  0.98200  1.0000
  Tl  Tl1       1.0  0.30700  0.94800  0.23000  1.0000
  Tl  Tl2       1.0  0.50100  0.55100  0.49900  1.0000
  Tl  Tl3       1.0  0.80700  0.05240  0.73000  1.0000
  Tl  Tl4       1.0  0.00132  0.44900  0.99900  1.0000
