data_image0
_chemical_formula_structural       As4F48I4
_chemical_formula_sum              "As4 F48 I4"
_cell_length_a       8.65606
_cell_length_b       8.65606
_cell_length_c       8.65606
_cell_angle_alpha    90
_cell_angle_beta     90
_cell_angle_gamma    90

_space_group_name_H-M_alt    "P 1"
_space_group_IT_number       1

loop_
  _space_group_symop_operation_xyz
  'x, y, z'

loop_
  _atom_site_type_symbol
  _atom_site_label
  _atom_site_symmetry_multiplicity
  _atom_site_fract_x
  _atom_site_fract_y
  _atom_site_fract_z
  _atom_site_occupancy
  As  As1       1.0  0.50000  0.00000  0.00000  1.0000
  As  As2       1.0  0.00000  0.50000  0.00000  1.0000
  As  As3       1.0  0.00000  0.00000  0.50000  1.0000
  As  As4       1.0  0.50000  0.50000  0.50000  1.0000
  F   F1        1.0  0.38200  0.15100  0.06630  1.0000
  F   F2        1.0  0.11800  0.65100  0.06630  1.0000
  F   F3        1.0  0.62600  0.34700  0.06790  1.0000
  F   F4        1.0  0.87400  0.84700  0.06790  1.0000
  F   F5        1.0  0.65100  0.06630  0.11800  1.0000
  F   F6        1.0  0.84900  0.56600  0.11800  1.0000
  F   F7        1.0  0.34700  0.43200  0.12600  1.0000
  F   F8        1.0  0.15300  0.93200  0.12600  1.0000
  F   F9        1.0  0.06630  0.38200  0.15100  1.0000
  F   F10       1.0  0.43400  0.88200  0.15100  1.0000
  F   F11       1.0  0.93200  0.12600  0.15300  1.0000
  F   F12       1.0  0.56800  0.62600  0.15300  1.0000
  F   F13       1.0  0.43200  0.12600  0.34700  1.0000
  F   F14       1.0  0.06790  0.62600  0.34700  1.0000
  F   F15       1.0  0.56600  0.38200  0.34900  1.0000
  F   F16       1.0  0.93400  0.88200  0.34900  1.0000
  F   F17       1.0  0.84700  0.43200  0.37400  1.0000
  F   F18       1.0  0.65300  0.93200  0.37400  1.0000
  F   F19       1.0  0.15100  0.06630  0.38200  1.0000
  F   F20       1.0  0.34900  0.56600  0.38200  1.0000
  F   F21       1.0  0.12600  0.34700  0.43200  1.0000
  F   F22       1.0  0.37400  0.84700  0.43200  1.0000
  F   F23       1.0  0.88200  0.15100  0.43400  1.0000
  F   F24       1.0  0.61800  0.65100  0.43400  1.0000
  F   F25       1.0  0.38200  0.34900  0.56600  1.0000
  F   F26       1.0  0.11800  0.84900  0.56600  1.0000
  F   F27       1.0  0.62600  0.15300  0.56800  1.0000
  F   F28       1.0  0.87400  0.65300  0.56800  1.0000
  F   F29       1.0  0.65100  0.43400  0.61800  1.0000
  F   F30       1.0  0.84900  0.93400  0.61800  1.0000
  F   F31       1.0  0.34700  0.06790  0.62600  1.0000
  F   F32       1.0  0.15300  0.56800  0.62600  1.0000
  F   F33       1.0  0.06630  0.11800  0.65100  1.0000
  F   F34       1.0  0.43400  0.61800  0.65100  1.0000
  F   F35       1.0  0.93200  0.37400  0.65300  1.0000
  F   F36       1.0  0.56800  0.87400  0.65300  1.0000
  F   F37       1.0  0.43200  0.37400  0.84700  1.0000
  F   F38       1.0  0.06790  0.87400  0.84700  1.0000
  F   F39       1.0  0.56600  0.11800  0.84900  1.0000
  F   F40       1.0  0.93400  0.61800  0.84900  1.0000
  F   F41       1.0  0.84700  0.06790  0.87400  1.0000
  F   F42       1.0  0.65300  0.56800  0.87400  1.0000
  F   F43       1.0  0.15100  0.43400  0.88200  1.0000
  F   F44       1.0  0.34900  0.93400  0.88200  1.0000
  F   F45       1.0  0.12600  0.15300  0.93200  1.0000
  F   F46       1.0  0.37400  0.65300  0.93200  1.0000
  F   F47       1.0  0.88200  0.34900  0.93400  1.0000
  F   F48       1.0  0.61800  0.84900  0.93400  1.0000
  I   I1        1.0  0.00000  0.00000  0.00000  1.0000
  I   I2        1.0  0.50000  0.50000  0.00000  1.0000
  I   I3        1.0  0.50000  0.00000  0.50000  1.0000
  I   I4        1.0  0.00000  0.50000  0.50000  1.0000
