data_image0
_chemical_formula_structural       Ba8Cu4O32Pt4Y8
_chemical_formula_sum              "Ba8 Cu4 O32 Pt4 Y8"
_cell_length_a       13.2163
_cell_length_b       5.68634
_cell_length_c       10.3323
_cell_angle_alpha    90
_cell_angle_beta     90
_cell_angle_gamma    90

_space_group_name_H-M_alt    "P 1"
_space_group_IT_number       1

loop_
  _space_group_symop_operation_xyz
  'x, y, z'

loop_
  _atom_site_type_symbol
  _atom_site_label
  _atom_site_symmetry_multiplicity
  _atom_site_fract_x
  _atom_site_fract_y
  _atom_site_fract_z
  _atom_site_occupancy
  Ba  Ba1       1.0  0.92300  0.25000  0.09210  1.0000
  Ba  Ba2       1.0  0.29300  0.75000  0.18500  1.0000
  Ba  Ba3       1.0  0.79300  0.75000  0.31500  1.0000
  Ba  Ba4       1.0  0.42300  0.25000  0.40800  1.0000
  Ba  Ba5       1.0  0.57700  0.75000  0.59200  1.0000
  Ba  Ba6       1.0  0.20700  0.25000  0.68500  1.0000
  Ba  Ba7       1.0  0.70700  0.25000  0.81500  1.0000
  Ba  Ba8       1.0  0.07710  0.75000  0.90800  1.0000
  Cu  Cu1       1.0  0.03790  0.75000  0.23200  1.0000
  Cu  Cu2       1.0  0.53800  0.75000  0.26800  1.0000
  Cu  Cu3       1.0  0.46200  0.25000  0.73200  1.0000
  Cu  Cu4       1.0  0.96200  0.25000  0.76800  1.0000
  O   O1        1.0  0.71700  0.50800  0.05690  1.0000
  O   O2        1.0  0.71700  0.99200  0.05690  1.0000
  O   O3        1.0  0.91200  0.75000  0.10900  1.0000
  O   O4        1.0  0.11300  0.00493  0.13700  1.0000
  O   O5        1.0  0.11300  0.49500  0.13700  1.0000
  O   O6        1.0  0.50600  0.50800  0.13800  1.0000
  O   O7        1.0  0.50600  0.99200  0.13800  1.0000
  O   O8        1.0  0.29600  0.25000  0.18700  1.0000
  O   O9        1.0  0.79600  0.25000  0.31300  1.0000
  O   O10       1.0  0.00628  0.50800  0.36200  1.0000
  O   O11       1.0  0.00628  0.99200  0.36200  1.0000
  O   O12       1.0  0.61300  0.00493  0.36300  1.0000
  O   O13       1.0  0.61300  0.49500  0.36300  1.0000
  O   O14       1.0  0.41200  0.75000  0.39100  1.0000
  O   O15       1.0  0.21700  0.50800  0.44300  1.0000
  O   O16       1.0  0.21700  0.99200  0.44300  1.0000
  O   O17       1.0  0.78300  0.00835  0.55700  1.0000
  O   O18       1.0  0.78300  0.49200  0.55700  1.0000
  O   O19       1.0  0.58800  0.25000  0.60900  1.0000
  O   O20       1.0  0.38700  0.50500  0.63700  1.0000
  O   O21       1.0  0.38700  0.99500  0.63700  1.0000
  O   O22       1.0  0.99400  0.00815  0.63800  1.0000
  O   O23       1.0  0.99400  0.49200  0.63800  1.0000
  O   O24       1.0  0.20400  0.75000  0.68700  1.0000
  O   O25       1.0  0.70400  0.75000  0.81300  1.0000
  O   O26       1.0  0.49400  0.00815  0.86200  1.0000
  O   O27       1.0  0.49400  0.49200  0.86200  1.0000
  O   O28       1.0  0.88700  0.50500  0.86300  1.0000
  O   O29       1.0  0.88700  0.99500  0.86300  1.0000
  O   O30       1.0  0.08820  0.25000  0.89100  1.0000
  O   O31       1.0  0.28300  0.00835  0.94300  1.0000
  O   O32       1.0  0.28300  0.49200  0.94300  1.0000
  Pt  Pt1       1.0  0.19300  0.25000  0.03280  1.0000
  Pt  Pt2       1.0  0.69300  0.25000  0.46700  1.0000
  Pt  Pt3       1.0  0.30700  0.75000  0.53300  1.0000
  Pt  Pt4       1.0  0.80700  0.75000  0.96700  1.0000
  Y   Y1        1.0  0.41700  0.25000  0.01440  1.0000
  Y   Y2        1.0  0.64200  0.25000  0.18800  1.0000
  Y   Y3        1.0  0.14200  0.25000  0.31200  1.0000
  Y   Y4        1.0  0.91700  0.25000  0.48600  1.0000
  Y   Y5        1.0  0.08310  0.75000  0.51400  1.0000
  Y   Y6        1.0  0.85800  0.75000  0.68800  1.0000
  Y   Y7        1.0  0.35800  0.75000  0.81200  1.0000
  Y   Y8        1.0  0.58300  0.75000  0.98600  1.0000
