data_image0
_chemical_formula_structural       H20Mg6Rb8
_chemical_formula_sum              "H20 Mg6 Rb8"
_cell_length_a       5.92683
_cell_length_b       7.54577
_cell_length_c       13.2305
_cell_angle_alpha    90
_cell_angle_beta     90
_cell_angle_gamma    66.8758

_space_group_name_H-M_alt    "P 1"
_space_group_IT_number       1

loop_
  _space_group_symop_operation_xyz
  'x, y, z'

loop_
  _atom_site_type_symbol
  _atom_site_label
  _atom_site_symmetry_multiplicity
  _atom_site_fract_x
  _atom_site_fract_y
  _atom_site_fract_z
  _atom_site_occupancy
  H   H1        1.0  0.11600  0.20100  0.03770  1.0000
  H   H2        1.0  0.68300  0.20100  0.03770  1.0000
  H   H3        1.0  0.02600  0.94800  0.14600  1.0000
  H   H4        1.0  0.73900  0.52200  0.14800  1.0000
  H   H5        1.0  0.13600  0.22800  0.25000  1.0000
  H   H6        1.0  0.63600  0.22800  0.25000  1.0000
  H   H7        1.0  0.23900  0.52200  0.35200  1.0000
  H   H8        1.0  0.52600  0.94800  0.35400  1.0000
  H   H9        1.0  0.18300  0.20100  0.46200  1.0000
  H   H10       1.0  0.61600  0.20100  0.46200  1.0000
  H   H11       1.0  0.38400  0.79900  0.53800  1.0000
  H   H12       1.0  0.81700  0.79900  0.53800  1.0000
  H   H13       1.0  0.47400  0.05200  0.64600  1.0000
  H   H14       1.0  0.76100  0.47800  0.64800  1.0000
  H   H15       1.0  0.36400  0.77200  0.75000  1.0000
  H   H16       1.0  0.86400  0.77200  0.75000  1.0000
  H   H17       1.0  0.26100  0.47800  0.85200  1.0000
  H   H18       1.0  0.97400  0.05200  0.85400  1.0000
  H   H19       1.0  0.31700  0.79900  0.96200  1.0000
  H   H20       1.0  0.88400  0.79900  0.96200  1.0000
  Mg  Mg1       1.0  0.00000  0.00000  0.00000  1.0000
  Mg  Mg2       1.0  0.87400  0.25100  0.15600  1.0000
  Mg  Mg3       1.0  0.37400  0.25100  0.34400  1.0000
  Mg  Mg4       1.0  0.50000  0.00000  0.50000  1.0000
  Mg  Mg5       1.0  0.62600  0.74900  0.65600  1.0000
  Mg  Mg6       1.0  0.12600  0.74900  0.84400  1.0000
  Rb  Rb1       1.0  0.24100  0.51700  0.10700  1.0000
  Rb  Rb2       1.0  0.54000  0.92100  0.14000  1.0000
  Rb  Rb3       1.0  0.03960  0.92100  0.36000  1.0000
  Rb  Rb4       1.0  0.74100  0.51700  0.39300  1.0000
  Rb  Rb5       1.0  0.25900  0.48300  0.60700  1.0000
  Rb  Rb6       1.0  0.96000  0.07920  0.64000  1.0000
  Rb  Rb7       1.0  0.46000  0.07920  0.86000  1.0000
  Rb  Rb8       1.0  0.75900  0.48300  0.89300  1.0000
