data_image0
_chemical_formula_structural       Fe2Hg2O2Te2
_chemical_formula_sum              "Fe2 Hg2 O2 Te2"
_cell_length_a       2.9564
_cell_length_b       5.7794
_cell_length_c       9.89303
_cell_angle_alpha    90
_cell_angle_beta     81.4068
_cell_angle_gamma    90

_space_group_name_H-M_alt    "P 1"
_space_group_IT_number       1

loop_
  _space_group_symop_operation_xyz
  'x, y, z'

loop_
  _atom_site_type_symbol
  _atom_site_label
  _atom_site_symmetry_multiplicity
  _atom_site_fract_x
  _atom_site_fract_y
  _atom_site_fract_z
  _atom_site_occupancy
  Fe  Fe1       1.0  0.49700  0.75000  0.00565  1.0000
  Fe  Fe2       1.0  0.50300  0.25000  0.99400  1.0000
  Hg  Hg1       1.0  0.83600  0.25000  0.32800  1.0000
  Hg  Hg2       1.0  0.16400  0.75000  0.67200  1.0000
  O   O1        1.0  0.00000  0.00000  0.00000  1.0000
  O   O2        1.0  0.00000  0.50000  0.00000  1.0000
  Te  Te1       1.0  0.82600  0.75000  0.34900  1.0000
  Te  Te2       1.0  0.17400  0.25000  0.65100  1.0000
