data_image0
_chemical_formula_structural       Li8Rb16Sn32
_chemical_formula_sum              "Li8 Rb16 Sn32"
_cell_length_a       9.78709
_cell_length_b       14.9195
_cell_length_c       15.0367
_cell_angle_alpha    97.3799
_cell_angle_beta     103.585
_cell_angle_gamma    102.54

_space_group_name_H-M_alt    "P 1"
_space_group_IT_number       1

loop_
  _space_group_symop_operation_xyz
  'x, y, z'

loop_
  _atom_site_type_symbol
  _atom_site_label
  _atom_site_symmetry_multiplicity
  _atom_site_fract_x
  _atom_site_fract_y
  _atom_site_fract_z
  _atom_site_occupancy
  Li  Li1       1.0  0.28900  0.24700  0.04650  1.0000
  Li  Li2       1.0  0.79000  0.54100  0.24800  1.0000
  Li  Li3       1.0  0.20200  0.95300  0.25100  1.0000
  Li  Li4       1.0  0.70600  0.24700  0.45500  1.0000
  Li  Li5       1.0  0.29400  0.75300  0.54500  1.0000
  Li  Li6       1.0  0.79800  0.04690  0.74900  1.0000
  Li  Li7       1.0  0.21000  0.45900  0.75200  1.0000
  Li  Li8       1.0  0.71100  0.75300  0.95400  1.0000
  Rb  Rb1       1.0  0.34100  0.53600  0.06370  1.0000
  Rb  Rb2       1.0  0.84100  0.04220  0.06570  1.0000
  Rb  Rb3       1.0  0.96900  0.35100  0.11600  1.0000
  Rb  Rb4       1.0  0.49300  0.86700  0.12800  1.0000
  Rb  Rb5       1.0  0.46300  0.60300  0.37300  1.0000
  Rb  Rb6       1.0  0.01150  0.11600  0.38600  1.0000
  Rb  Rb7       1.0  0.60700  0.91000  0.43400  1.0000
  Rb  Rb8       1.0  0.10500  0.40700  0.43600  1.0000
  Rb  Rb9       1.0  0.89500  0.59300  0.56400  1.0000
  Rb  Rb10      1.0  0.39300  0.09020  0.56600  1.0000
  Rb  Rb11      1.0  0.98800  0.88400  0.61400  1.0000
  Rb  Rb12      1.0  0.53700  0.39700  0.62700  1.0000
  Rb  Rb13      1.0  0.50700  0.13300  0.87200  1.0000
  Rb  Rb14      1.0  0.03120  0.64900  0.88400  1.0000
  Rb  Rb15      1.0  0.15900  0.95800  0.93400  1.0000
  Rb  Rb16      1.0  0.65900  0.46400  0.93600  1.0000
  Sn  Sn1       1.0  0.02330  0.80000  0.10000  1.0000
  Sn  Sn2       1.0  0.49300  0.13200  0.11300  1.0000
  Sn  Sn3       1.0  0.74800  0.68700  0.13800  1.0000
  Sn  Sn4       1.0  0.59000  0.34800  0.14400  1.0000
  Sn  Sn5       1.0  0.01280  0.60700  0.14600  1.0000
  Sn  Sn6       1.0  0.23800  0.14700  0.19600  1.0000
  Sn  Sn7       1.0  0.34400  0.36200  0.23200  1.0000
  Sn  Sn8       1.0  0.88800  0.88500  0.24200  1.0000
  Sn  Sn9       1.0  0.26000  0.76700  0.26100  1.0000
  Sn  Sn10      1.0  0.75500  0.23900  0.26900  1.0000
  Sn  Sn11      1.0  0.50500  0.09620  0.30700  1.0000
  Sn  Sn12      1.0  0.82400  0.73500  0.35300  1.0000
  Sn  Sn13      1.0  0.65200  0.39900  0.35600  1.0000
  Sn  Sn14      1.0  0.08060  0.64800  0.36100  1.0000
  Sn  Sn15      1.0  0.39700  0.25800  0.39000  1.0000
  Sn  Sn16      1.0  0.13200  0.86100  0.40200  1.0000
  Sn  Sn17      1.0  0.86800  0.13900  0.59800  1.0000
  Sn  Sn18      1.0  0.60300  0.74200  0.61000  1.0000
  Sn  Sn19      1.0  0.91900  0.35200  0.63900  1.0000
  Sn  Sn20      1.0  0.34800  0.60100  0.64400  1.0000
  Sn  Sn21      1.0  0.17600  0.26500  0.64700  1.0000
  Sn  Sn22      1.0  0.49500  0.90400  0.69300  1.0000
  Sn  Sn23      1.0  0.24500  0.76100  0.73100  1.0000
  Sn  Sn24      1.0  0.74000  0.23300  0.73900  1.0000
  Sn  Sn25      1.0  0.11200  0.11500  0.75800  1.0000
  Sn  Sn26      1.0  0.65600  0.63800  0.76800  1.0000
  Sn  Sn27      1.0  0.76200  0.85300  0.80400  1.0000
  Sn  Sn28      1.0  0.98700  0.39300  0.85400  1.0000
  Sn  Sn29      1.0  0.41000  0.65200  0.85600  1.0000
  Sn  Sn30      1.0  0.25200  0.31300  0.86200  1.0000
  Sn  Sn31      1.0  0.50700  0.86800  0.88700  1.0000
  Sn  Sn32      1.0  0.97700  0.20000  0.90000  1.0000
