data_image0
_chemical_formula_structural       B4Na12O32P8
_chemical_formula_sum              "B4 Na12 O32 P8"
_cell_length_a       8.06222
_cell_length_b       8.06222
_cell_length_c       10.0723
_cell_angle_alpha    91.8689
_cell_angle_beta     91.8689
_cell_angle_gamma    78.7846

_space_group_name_H-M_alt    "P 1"
_space_group_IT_number       1

loop_
  _space_group_symop_operation_xyz
  'x, y, z'

loop_
  _atom_site_type_symbol
  _atom_site_label
  _atom_site_symmetry_multiplicity
  _atom_site_fract_x
  _atom_site_fract_y
  _atom_site_fract_z
  _atom_site_occupancy
  B   B1        1.0  0.97700  0.75500  0.00190  1.0000
  B   B2        1.0  0.24500  0.02260  0.49800  1.0000
  B   B3        1.0  0.75500  0.97700  0.50200  1.0000
  B   B4        1.0  0.02260  0.24500  0.99800  1.0000
  Na  Na1       1.0  0.52500  0.29500  0.11800  1.0000
  Na  Na2       1.0  0.64100  0.85500  0.23300  1.0000
  Na  Na3       1.0  0.95900  0.04080  0.25000  1.0000
  Na  Na4       1.0  0.35000  0.65000  0.25000  1.0000
  Na  Na5       1.0  0.14500  0.35900  0.26700  1.0000
  Na  Na6       1.0  0.70500  0.47500  0.38200  1.0000
  Na  Na7       1.0  0.29500  0.52500  0.61800  1.0000
  Na  Na8       1.0  0.85500  0.64100  0.73300  1.0000
  Na  Na9       1.0  0.65000  0.35000  0.75000  1.0000
  Na  Na10      1.0  0.04080  0.95900  0.75000  1.0000
  Na  Na11      1.0  0.35900  0.14500  0.76700  1.0000
  Na  Na12      1.0  0.47500  0.70500  0.88200  1.0000
  O   O1        1.0  0.27200  0.46900  0.08170  1.0000
  O   O2        1.0  0.09110  0.84100  0.08240  1.0000
  O   O3        1.0  0.14300  0.13200  0.08940  1.0000
  O   O4        1.0  0.93000  0.37000  0.09230  1.0000
  O   O5        1.0  0.87700  0.68600  0.09750  1.0000
  O   O6        1.0  0.74000  0.06390  0.10600  1.0000
  O   O7        1.0  0.38700  0.88400  0.12700  1.0000
  O   O8        1.0  0.65100  0.53900  0.16400  1.0000
  O   O9        1.0  0.46100  0.34900  0.33600  1.0000
  O   O10       1.0  0.11600  0.61300  0.37300  1.0000
  O   O11       1.0  0.93600  0.26000  0.39400  1.0000
  O   O12       1.0  0.31400  0.12300  0.40200  1.0000
  O   O13       1.0  0.63000  0.07010  0.40800  1.0000
  O   O14       1.0  0.86800  0.85700  0.41100  1.0000
  O   O15       1.0  0.15900  0.90900  0.41800  1.0000
  O   O16       1.0  0.53100  0.72800  0.41800  1.0000
  O   O17       1.0  0.46900  0.27200  0.58200  1.0000
  O   O18       1.0  0.84100  0.09110  0.58200  1.0000
  O   O19       1.0  0.13200  0.14300  0.58900  1.0000
  O   O20       1.0  0.37000  0.93000  0.59200  1.0000
  O   O21       1.0  0.68600  0.87700  0.59800  1.0000
  O   O22       1.0  0.06390  0.74000  0.60600  1.0000
  O   O23       1.0  0.88400  0.38700  0.62700  1.0000
  O   O24       1.0  0.53900  0.65100  0.66400  1.0000
  O   O25       1.0  0.34900  0.46100  0.83600  1.0000
  O   O26       1.0  0.61300  0.11600  0.87300  1.0000
  O   O27       1.0  0.26000  0.93600  0.89400  1.0000
  O   O28       1.0  0.12300  0.31400  0.90200  1.0000
  O   O29       1.0  0.07010  0.63000  0.90800  1.0000
  O   O30       1.0  0.85700  0.86800  0.91100  1.0000
  O   O31       1.0  0.90900  0.15900  0.91800  1.0000
  O   O32       1.0  0.72800  0.53100  0.91800  1.0000
  P   P1        1.0  0.23200  0.94500  0.04270  1.0000
  P   P2        1.0  0.78700  0.53100  0.06220  1.0000
  P   P3        1.0  0.46900  0.21300  0.43800  1.0000
  P   P4        1.0  0.05480  0.76800  0.45700  1.0000
  P   P5        1.0  0.94500  0.23200  0.54300  1.0000
  P   P6        1.0  0.53100  0.78700  0.56200  1.0000
  P   P7        1.0  0.21300  0.46900  0.93800  1.0000
  P   P8        1.0  0.76800  0.05480  0.95700  1.0000
