data_image0
_chemical_formula_structural       C8CoH24LiN8O12
_chemical_formula_sum              "C8 Co1 H24 Li1 N8 O12"
_cell_length_a       8.51125
_cell_length_b       8.51125
_cell_length_c       6.95806
_cell_angle_alpha    90
_cell_angle_beta     90
_cell_angle_gamma    120

_space_group_name_H-M_alt    "P 1"
_space_group_IT_number       1

loop_
  _space_group_symop_operation_xyz
  'x, y, z'

loop_
  _atom_site_type_symbol
  _atom_site_label
  _atom_site_symmetry_multiplicity
  _atom_site_fract_x
  _atom_site_fract_y
  _atom_site_fract_z
  _atom_site_occupancy
  C   C1        1.0  0.57100  0.14200  0.28800  1.0000
  C   C2        1.0  0.57100  0.42900  0.28800  1.0000
  C   C3        1.0  0.85800  0.42900  0.28800  1.0000
  C   C4        1.0  0.33300  0.66700  0.42600  1.0000
  C   C5        1.0  0.66700  0.33300  0.57400  1.0000
  C   C6        1.0  0.14200  0.57100  0.71200  1.0000
  C   C7        1.0  0.42900  0.57100  0.71200  1.0000
  C   C8        1.0  0.42900  0.85800  0.71200  1.0000
  Co  Co1       1.0  0.00000  0.00000  0.00000  1.0000
  H   H1        1.0  0.57200  0.14300  0.13200  1.0000
  H   H2        1.0  0.57200  0.42800  0.13200  1.0000
  H   H3        1.0  0.85700  0.42800  0.13200  1.0000
  H   H4        1.0  0.43200  0.07530  0.34300  1.0000
  H   H5        1.0  0.64300  0.07530  0.34300  1.0000
  H   H6        1.0  0.43200  0.35700  0.34300  1.0000
  H   H7        1.0  0.64300  0.56800  0.34300  1.0000
  H   H8        1.0  0.92500  0.35700  0.34300  1.0000
  H   H9        1.0  0.92500  0.56800  0.34300  1.0000
  H   H10       1.0  0.26300  0.52600  0.37500  1.0000
  H   H11       1.0  0.26300  0.73700  0.37500  1.0000
  H   H12       1.0  0.47400  0.73700  0.37500  1.0000
  H   H13       1.0  0.52600  0.26300  0.62500  1.0000
  H   H14       1.0  0.73700  0.26300  0.62500  1.0000
  H   H15       1.0  0.73700  0.47400  0.62500  1.0000
  H   H16       1.0  0.07530  0.43200  0.65700  1.0000
  H   H17       1.0  0.07530  0.64300  0.65700  1.0000
  H   H18       1.0  0.35700  0.43200  0.65700  1.0000
  H   H19       1.0  0.56800  0.64300  0.65700  1.0000
  H   H20       1.0  0.35700  0.92500  0.65700  1.0000
  H   H21       1.0  0.56800  0.92500  0.65700  1.0000
  H   H22       1.0  0.14300  0.57200  0.86800  1.0000
  H   H23       1.0  0.42800  0.57200  0.86800  1.0000
  H   H24       1.0  0.42800  0.85700  0.86800  1.0000
  Li  Li1       1.0  0.00000  0.00000  0.50000  1.0000
  N   N1        1.0  0.11200  0.22400  0.15300  1.0000
  N   N2        1.0  0.11200  0.88800  0.15300  1.0000
  N   N3        1.0  0.77600  0.88800  0.15300  1.0000
  N   N4        1.0  0.66700  0.33300  0.36000  1.0000
  N   N5        1.0  0.33300  0.66700  0.64000  1.0000
  N   N6        1.0  0.22300  0.11200  0.84700  1.0000
  N   N7        1.0  0.88800  0.11200  0.84700  1.0000
  N   N8        1.0  0.88800  0.77600  0.84700  1.0000
  O   O1        1.0  0.18600  0.37100  0.06700  1.0000
  O   O2        1.0  0.62900  0.81400  0.06700  1.0000
  O   O3        1.0  0.18600  0.81400  0.06700  1.0000
  O   O4        1.0  0.11100  0.22200  0.33400  1.0000
  O   O5        1.0  0.11100  0.88900  0.33400  1.0000
  O   O6        1.0  0.77800  0.88900  0.33400  1.0000
  O   O7        1.0  0.88900  0.11100  0.66600  1.0000
  O   O8        1.0  0.22200  0.11100  0.66600  1.0000
  O   O9        1.0  0.88900  0.77800  0.66600  1.0000
  O   O10       1.0  0.81400  0.18600  0.93300  1.0000
  O   O11       1.0  0.37100  0.18600  0.93300  1.0000
  O   O12       1.0  0.81400  0.62900  0.93300  1.0000
