data_image0
_chemical_formula_structural       Cs4O16P4Zn4
_chemical_formula_sum              "Cs4 O16 P4 Zn4"
_cell_length_a       9.19648
_cell_length_b       5.41891
_cell_length_c       9.25276
_cell_angle_alpha    90
_cell_angle_beta     90
_cell_angle_gamma    90

_space_group_name_H-M_alt    "P 1"
_space_group_IT_number       1

loop_
  _space_group_symop_operation_xyz
  'x, y, z'

loop_
  _atom_site_type_symbol
  _atom_site_label
  _atom_site_symmetry_multiplicity
  _atom_site_fract_x
  _atom_site_fract_y
  _atom_site_fract_z
  _atom_site_occupancy
  Cs  Cs1       1.0  0.00477  0.26300  0.21000  1.0000
  Cs  Cs2       1.0  0.50500  0.26300  0.29000  1.0000
  Cs  Cs3       1.0  0.49500  0.76300  0.71000  1.0000
  Cs  Cs4       1.0  0.99500  0.76300  0.79000  1.0000
  O   O1        1.0  0.25500  0.08490  0.04300  1.0000
  O   O2        1.0  0.75800  0.01590  0.05720  1.0000
  O   O3        1.0  0.53100  0.76100  0.10100  1.0000
  O   O4        1.0  0.76400  0.64400  0.22500  1.0000
  O   O5        1.0  0.26400  0.64400  0.27500  1.0000
  O   O6        1.0  0.03110  0.76100  0.39900  1.0000
  O   O7        1.0  0.25800  0.01590  0.44300  1.0000
  O   O8        1.0  0.75500  0.08490  0.45700  1.0000
  O   O9        1.0  0.24500  0.58500  0.54300  1.0000
  O   O10       1.0  0.74200  0.51600  0.55700  1.0000
  O   O11       1.0  0.96900  0.26100  0.60100  1.0000
  O   O12       1.0  0.73600  0.14400  0.72500  1.0000
  O   O13       1.0  0.23600  0.14400  0.77500  1.0000
  O   O14       1.0  0.46900  0.26100  0.89900  1.0000
  O   O15       1.0  0.24200  0.51600  0.94300  1.0000
  O   O16       1.0  0.74500  0.58500  0.95700  1.0000
  P   P1        1.0  0.69700  0.75200  0.08540  1.0000
  P   P2        1.0  0.19700  0.75200  0.41500  1.0000
  P   P3        1.0  0.80300  0.25200  0.58500  1.0000
  P   P4        1.0  0.30300  0.25200  0.91500  1.0000
  Zn  Zn1       1.0  0.32100  0.75100  0.08210  1.0000
  Zn  Zn2       1.0  0.82100  0.75100  0.41800  1.0000
  Zn  Zn3       1.0  0.17900  0.25100  0.58200  1.0000
  Zn  Zn4       1.0  0.67900  0.25100  0.91800  1.0000
