data_image0
_chemical_formula_structural       B20Cs4O32
_chemical_formula_sum              "B20 Cs4 O32"
_cell_length_a       7.11736
_cell_length_b       9.46017
_cell_length_c       10.2216
_cell_angle_alpha    90
_cell_angle_beta     101.493
_cell_angle_gamma    90

_space_group_name_H-M_alt    "P 1"
_space_group_IT_number       1

loop_
  _space_group_symop_operation_xyz
  'x, y, z'

loop_
  _atom_site_type_symbol
  _atom_site_label
  _atom_site_symmetry_multiplicity
  _atom_site_fract_x
  _atom_site_fract_y
  _atom_site_fract_z
  _atom_site_occupancy
  B   B1        1.0  0.15700  0.81100  0.01590  1.0000
  B   B2        1.0  0.18700  0.21700  0.01650  1.0000
  B   B3        1.0  0.49000  0.75600  0.02560  1.0000
  B   B4        1.0  0.40100  0.40600  0.12400  1.0000
  B   B5        1.0  0.04470  0.08970  0.17900  1.0000
  B   B6        1.0  0.45500  0.59000  0.32100  1.0000
  B   B7        1.0  0.09850  0.90600  0.37600  1.0000
  B   B8        1.0  0.01040  0.25600  0.47400  1.0000
  B   B9        1.0  0.31300  0.71700  0.48400  1.0000
  B   B10       1.0  0.34300  0.31100  0.48400  1.0000
  B   B11       1.0  0.65700  0.68900  0.51600  1.0000
  B   B12       1.0  0.68700  0.28300  0.51600  1.0000
  B   B13       1.0  0.99000  0.74400  0.52600  1.0000
  B   B14       1.0  0.90100  0.09410  0.62400  1.0000
  B   B15       1.0  0.54500  0.41000  0.67900  1.0000
  B   B16       1.0  0.95500  0.91000  0.82100  1.0000
  B   B17       1.0  0.59900  0.59400  0.87600  1.0000
  B   B18       1.0  0.51000  0.24400  0.97400  1.0000
  B   B19       1.0  0.81300  0.78300  0.98400  1.0000
  B   B20       1.0  0.84300  0.18900  0.98400  1.0000
  Cs  Cs1       1.0  0.91600  0.51100  0.21700  1.0000
  Cs  Cs2       1.0  0.58400  0.01140  0.28300  1.0000
  Cs  Cs3       1.0  0.41600  0.98900  0.71700  1.0000
  Cs  Cs4       1.0  0.08410  0.48900  0.78300  1.0000
  O   O1        1.0  0.66800  0.81100  0.06370  1.0000
  O   O2        1.0  0.00389  0.78200  0.07170  1.0000
  O   O3        1.0  0.55200  0.34400  0.07510  1.0000
  O   O4        1.0  0.22000  0.35800  0.08450  1.0000
  O   O5        1.0  0.34200  0.79800  0.08690  1.0000
  O   O6        1.0  0.86700  0.14400  0.11600  1.0000
  O   O7        1.0  0.20000  0.10800  0.12200  1.0000
  O   O8        1.0  0.45500  0.52000  0.20400  1.0000
  O   O9        1.0  0.04540  0.02000  0.29600  1.0000
  O   O10       1.0  0.30000  0.60800  0.37800  1.0000
  O   O11       1.0  0.63300  0.64400  0.38400  1.0000
  O   O12       1.0  0.15800  0.29800  0.41300  1.0000
  O   O13       1.0  0.28000  0.85800  0.41500  1.0000
  O   O14       1.0  0.94800  0.84400  0.42500  1.0000
  O   O15       1.0  0.49600  0.28200  0.42800  1.0000
  O   O16       1.0  0.83200  0.31100  0.43600  1.0000
  O   O17       1.0  0.16800  0.68900  0.56400  1.0000
  O   O18       1.0  0.50400  0.71800  0.57200  1.0000
  O   O19       1.0  0.05170  0.15600  0.57500  1.0000
  O   O20       1.0  0.72000  0.14200  0.58500  1.0000
  O   O21       1.0  0.84200  0.70200  0.58700  1.0000
  O   O22       1.0  0.36700  0.35600  0.61600  1.0000
  O   O23       1.0  0.70000  0.39200  0.62200  1.0000
  O   O24       1.0  0.95500  0.98000  0.70400  1.0000
  O   O25       1.0  0.54500  0.48000  0.79600  1.0000
  O   O26       1.0  0.80000  0.89200  0.87800  1.0000
  O   O27       1.0  0.13300  0.85600  0.88400  1.0000
  O   O28       1.0  0.65800  0.20200  0.91300  1.0000
  O   O29       1.0  0.78000  0.64200  0.91500  1.0000
  O   O30       1.0  0.44800  0.65600  0.92500  1.0000
  O   O31       1.0  0.99600  0.21800  0.92800  1.0000
  O   O32       1.0  0.33200  0.18900  0.93600  1.0000
