data_image0
_chemical_formula_structural       Ga10H30Rb16
_chemical_formula_sum              "Ga10 H30 Rb16"
_cell_length_a       11.6779
_cell_length_b       11.6779
_cell_length_c       11.6779
_cell_angle_alpha    120
_cell_angle_beta     90
_cell_angle_gamma    120

_space_group_name_H-M_alt    "P 1"
_space_group_IT_number       1

loop_
  _space_group_symop_operation_xyz
  'x, y, z'

loop_
  _atom_site_type_symbol
  _atom_site_label
  _atom_site_symmetry_multiplicity
  _atom_site_fract_x
  _atom_site_fract_y
  _atom_site_fract_z
  _atom_site_occupancy
  Ga  Ga1       1.0  0.87500  0.75000  0.12500  1.0000
  Ga  Ga2       1.0  0.21200  0.42300  0.13500  1.0000
  Ga  Ga3       1.0  0.78800  0.57700  0.21200  1.0000
  Ga  Ga4       1.0  0.13500  0.92300  0.21200  1.0000
  Ga  Ga5       1.0  0.78800  0.92300  0.21200  1.0000
  Ga  Ga6       1.0  0.21200  0.42300  0.78800  1.0000
  Ga  Ga7       1.0  0.21200  0.07690  0.78800  1.0000
  Ga  Ga8       1.0  0.86500  0.07690  0.78800  1.0000
  Ga  Ga9       1.0  0.78800  0.57700  0.86500  1.0000
  Ga  Ga10      1.0  0.12500  0.25000  0.87500  1.0000
  H   H1        1.0  0.50000  0.00000  0.00000  1.0000
  H   H2        1.0  0.66500  0.38300  0.09510  1.0000
  H   H3        1.0  0.21200  0.87700  0.09510  1.0000
  H   H4        1.0  0.71800  0.93100  0.09510  1.0000
  H   H5        1.0  0.33500  0.43100  0.21200  1.0000
  H   H6        1.0  0.28200  0.61700  0.21200  1.0000
  H   H7        1.0  0.09510  0.37700  0.21200  1.0000
  H   H8        1.0  0.21200  0.11700  0.28200  1.0000
  H   H9        1.0  0.66500  0.87700  0.28200  1.0000
  H   H10       1.0  0.90500  0.56900  0.28200  1.0000
  H   H11       1.0  0.71800  0.62300  0.33500  1.0000
  H   H12       1.0  0.90500  0.11700  0.33500  1.0000
  H   H13       1.0  0.21200  0.93100  0.33500  1.0000
  H   H14       1.0  0.62500  0.25000  0.37500  1.0000
  H   H15       1.0  0.50000  0.00000  0.50000  1.0000
  H   H16       1.0  0.00000  0.50000  0.50000  1.0000
  H   H17       1.0  0.50000  0.50000  0.50000  1.0000
  H   H18       1.0  0.37500  0.75000  0.62500  1.0000
  H   H19       1.0  0.78800  0.06950  0.66500  1.0000
  H   H20       1.0  0.28200  0.37700  0.66500  1.0000
  H   H21       1.0  0.09510  0.88300  0.66500  1.0000
  H   H22       1.0  0.09510  0.43100  0.71800  1.0000
  H   H23       1.0  0.33500  0.12300  0.71800  1.0000
  H   H24       1.0  0.78800  0.88300  0.71800  1.0000
  H   H25       1.0  0.71800  0.38300  0.78800  1.0000
  H   H26       1.0  0.90500  0.62300  0.78800  1.0000
  H   H27       1.0  0.66500  0.56900  0.78800  1.0000
  H   H28       1.0  0.28200  0.06950  0.90500  1.0000
  H   H29       1.0  0.33500  0.61700  0.90500  1.0000
  H   H30       1.0  0.78800  0.12300  0.90500  1.0000
  Rb  Rb1       1.0  0.00000  0.00000  0.00000  1.0000
  Rb  Rb2       1.0  0.00000  0.50000  0.00000  1.0000
  Rb  Rb3       1.0  0.50000  0.50000  0.00000  1.0000
  Rb  Rb4       1.0  0.79800  0.25000  0.20200  1.0000
  Rb  Rb5       1.0  0.45200  0.25000  0.20200  1.0000
  Rb  Rb6       1.0  0.45200  0.90400  0.20200  1.0000
  Rb  Rb7       1.0  0.20200  0.40400  0.45200  1.0000
  Rb  Rb8       1.0  0.20200  0.75000  0.45200  1.0000
  Rb  Rb9       1.0  0.54800  0.75000  0.45200  1.0000
  Rb  Rb10      1.0  0.00000  0.00000  0.50000  1.0000
  Rb  Rb11      1.0  0.79800  0.25000  0.54800  1.0000
  Rb  Rb12      1.0  0.45200  0.25000  0.54800  1.0000
  Rb  Rb13      1.0  0.79800  0.59600  0.54800  1.0000
  Rb  Rb14      1.0  0.20200  0.75000  0.79800  1.0000
  Rb  Rb15      1.0  0.54800  0.75000  0.79800  1.0000
  Rb  Rb16      1.0  0.54800  0.09580  0.79800  1.0000
