data_image0
_chemical_formula_structural       Na4Nb8P4S40
_chemical_formula_sum              "Na4 Nb8 P4 S40"
_cell_length_a       7.99972
_cell_length_b       12.9858
_cell_length_c       13.2473
_cell_angle_alpha    90.6743
_cell_angle_beta     107.574
_cell_angle_gamma    90

_space_group_name_H-M_alt    "P 1"
_space_group_IT_number       1

loop_
  _space_group_symop_operation_xyz
  'x, y, z'

loop_
  _atom_site_type_symbol
  _atom_site_label
  _atom_site_symmetry_multiplicity
  _atom_site_fract_x
  _atom_site_fract_y
  _atom_site_fract_z
  _atom_site_occupancy
  Na  Na1       1.0  0.06070  0.61900  0.11500  1.0000
  Na  Na2       1.0  0.05420  0.11900  0.11500  1.0000
  Na  Na3       1.0  0.93900  0.38100  0.88500  1.0000
  Na  Na4       1.0  0.94600  0.88100  0.88500  1.0000
  Nb  Nb1       1.0  0.70700  0.22300  0.28200  1.0000
  Nb  Nb2       1.0  0.57500  0.72300  0.28200  1.0000
  Nb  Nb3       1.0  0.70100  0.51300  0.28200  1.0000
  Nb  Nb4       1.0  0.58100  0.01340  0.28200  1.0000
  Nb  Nb5       1.0  0.29900  0.48700  0.71800  1.0000
  Nb  Nb6       1.0  0.41900  0.98700  0.71800  1.0000
  Nb  Nb7       1.0  0.29300  0.77700  0.71800  1.0000
  Nb  Nb8       1.0  0.42500  0.27700  0.71800  1.0000
  P   P1        1.0  0.21400  0.87100  0.20700  1.0000
  P   P2        1.0  0.99300  0.37100  0.20700  1.0000
  P   P3        1.0  0.78600  0.12900  0.79300  1.0000
  P   P4        1.0  0.00679  0.62900  0.79300  1.0000
  S   S1        1.0  0.13400  0.37200  0.10500  1.0000
  S   S2        1.0  0.97100  0.87200  0.10500  1.0000
  S   S3        1.0  0.45800  0.14900  0.13700  1.0000
  S   S4        1.0  0.67900  0.64900  0.13700  1.0000
  S   S5        1.0  0.69000  0.08150  0.13900  1.0000
  S   S6        1.0  0.44900  0.58100  0.13900  1.0000
  S   S7        1.0  0.72100  0.36700  0.14200  1.0000
  S   S8        1.0  0.42100  0.86700  0.14200  1.0000
  S   S9        1.0  0.03790  0.24000  0.29700  1.0000
  S   S10       1.0  0.25900  0.74000  0.29700  1.0000
  S   S11       1.0  0.26500  0.00271  0.29800  1.0000
  S   S12       1.0  0.03260  0.50300  0.29800  1.0000
  S   S13       1.0  0.80500  0.86700  0.31600  1.0000
  S   S14       1.0  0.51100  0.36700  0.31600  1.0000
  S   S15       1.0  0.76100  0.37000  0.42000  1.0000
  S   S16       1.0  0.65900  0.87000  0.42000  1.0000
  S   S17       1.0  0.83700  0.09540  0.42300  1.0000
  S   S18       1.0  0.58600  0.59500  0.42300  1.0000
  S   S19       1.0  0.59700  0.14400  0.42300  1.0000
  S   S20       1.0  0.82700  0.64400  0.42300  1.0000
  S   S21       1.0  0.17300  0.35600  0.57700  1.0000
  S   S22       1.0  0.40300  0.85600  0.57700  1.0000
  S   S23       1.0  0.16300  0.90500  0.57700  1.0000
  S   S24       1.0  0.41400  0.40500  0.57700  1.0000
  S   S25       1.0  0.23900  0.63000  0.58000  1.0000
  S   S26       1.0  0.34100  0.13000  0.58000  1.0000
  S   S27       1.0  0.19500  0.13300  0.68400  1.0000
  S   S28       1.0  0.48900  0.63300  0.68400  1.0000
  S   S29       1.0  0.96700  0.49700  0.70200  1.0000
  S   S30       1.0  0.73500  0.99700  0.70200  1.0000
  S   S31       1.0  0.74100  0.26000  0.70300  1.0000
  S   S32       1.0  0.96200  0.76000  0.70300  1.0000
  S   S33       1.0  0.57900  0.13300  0.85800  1.0000
  S   S34       1.0  0.27900  0.63300  0.85800  1.0000
  S   S35       1.0  0.31000  0.91900  0.86100  1.0000
  S   S36       1.0  0.55100  0.41900  0.86100  1.0000
  S   S37       1.0  0.32100  0.35100  0.86300  1.0000
  S   S38       1.0  0.54200  0.85100  0.86300  1.0000
  S   S39       1.0  0.02910  0.12800  0.89500  1.0000
  S   S40       1.0  0.86600  0.62800  0.89500  1.0000
