data_image0
_chemical_formula_structural       K8Mo4O36P8
_chemical_formula_sum              "K8 Mo4 O36 P8"
_cell_length_a       7.8212
_cell_length_b       7.8212
_cell_length_c       15.452
_cell_angle_alpha    97.4104
_cell_angle_beta     97.4104
_cell_angle_gamma    60.1794

_space_group_name_H-M_alt    "P 1"
_space_group_IT_number       1

loop_
  _space_group_symop_operation_xyz
  'x, y, z'

loop_
  _atom_site_type_symbol
  _atom_site_label
  _atom_site_symmetry_multiplicity
  _atom_site_fract_x
  _atom_site_fract_y
  _atom_site_fract_z
  _atom_site_occupancy
  K   K1        1.0  0.94500  0.77200  0.02150  1.0000
  K   K2        1.0  0.98400  0.30500  0.23900  1.0000
  K   K3        1.0  0.69500  0.01600  0.26100  1.0000
  K   K4        1.0  0.22800  0.05550  0.47800  1.0000
  K   K5        1.0  0.77200  0.94500  0.52200  1.0000
  K   K6        1.0  0.30500  0.98400  0.73900  1.0000
  K   K7        1.0  0.01600  0.69500  0.76100  1.0000
  K   K8        1.0  0.05550  0.22800  0.97800  1.0000
  Mo  Mo1       1.0  0.47000  0.76500  0.13500  1.0000
  Mo  Mo2       1.0  0.23500  0.53000  0.36500  1.0000
  Mo  Mo3       1.0  0.76500  0.47000  0.63500  1.0000
  Mo  Mo4       1.0  0.53000  0.23500  0.86500  1.0000
  O   O1        1.0  0.31200  0.83400  0.02000  1.0000
  O   O2        1.0  0.64600  0.46300  0.08110  1.0000
  O   O3        1.0  0.46100  0.27700  0.09900  1.0000
  O   O4        1.0  0.65700  0.80400  0.11000  1.0000
  O   O5        1.0  0.10100  0.44400  0.12100  1.0000
  O   O6        1.0  0.83400  0.11400  0.13300  1.0000
  O   O7        1.0  0.27800  0.64700  0.14500  1.0000
  O   O8        1.0  0.31700  0.98600  0.19100  1.0000
  O   O9        1.0  0.61200  0.63800  0.24900  1.0000
  O   O10       1.0  0.36200  0.38800  0.25100  1.0000
  O   O11       1.0  0.01440  0.68300  0.30900  1.0000
  O   O12       1.0  0.35300  0.72200  0.35500  1.0000
  O   O13       1.0  0.88600  0.16600  0.36700  1.0000
  O   O14       1.0  0.55600  0.89900  0.37900  1.0000
  O   O15       1.0  0.19600  0.34300  0.39000  1.0000
  O   O16       1.0  0.72300  0.53900  0.40100  1.0000
  O   O17       1.0  0.53700  0.35400  0.41900  1.0000
  O   O18       1.0  0.16600  0.68800  0.48000  1.0000
  O   O19       1.0  0.83400  0.31200  0.52000  1.0000
  O   O20       1.0  0.46300  0.64600  0.58100  1.0000
  O   O21       1.0  0.27700  0.46100  0.59900  1.0000
  O   O22       1.0  0.80400  0.65700  0.61000  1.0000
  O   O23       1.0  0.44400  0.10100  0.62100  1.0000
  O   O24       1.0  0.11400  0.83400  0.63300  1.0000
  O   O25       1.0  0.64700  0.27800  0.64500  1.0000
  O   O26       1.0  0.98600  0.31700  0.69100  1.0000
  O   O27       1.0  0.63800  0.61200  0.74900  1.0000
  O   O28       1.0  0.38800  0.36200  0.75100  1.0000
  O   O29       1.0  0.68300  0.01440  0.80900  1.0000
  O   O30       1.0  0.72200  0.35300  0.85500  1.0000
  O   O31       1.0  0.16600  0.88600  0.86700  1.0000
  O   O32       1.0  0.89900  0.55600  0.87900  1.0000
  O   O33       1.0  0.34300  0.19600  0.89000  1.0000
  O   O34       1.0  0.53900  0.72300  0.90100  1.0000
  O   O35       1.0  0.35400  0.53700  0.91900  1.0000
  O   O36       1.0  0.68800  0.16600  0.98000  1.0000
  P   P1        1.0  0.66700  0.25800  0.07670  1.0000
  P   P2        1.0  0.28600  0.45100  0.15500  1.0000
  P   P3        1.0  0.54900  0.71400  0.34500  1.0000
  P   P4        1.0  0.74200  0.33300  0.42300  1.0000
  P   P5        1.0  0.25800  0.66700  0.57700  1.0000
  P   P6        1.0  0.45100  0.28600  0.65500  1.0000
  P   P7        1.0  0.71400  0.54900  0.84500  1.0000
  P   P8        1.0  0.33300  0.74200  0.92300  1.0000
