data_image0
_chemical_formula_structural       Ba10N2O36Os6
_chemical_formula_sum              "Ba10 N2 O36 Os6"
_cell_length_a       11.1852
_cell_length_b       11.1852
_cell_length_c       7.67347
_cell_angle_alpha    90
_cell_angle_beta     90
_cell_angle_gamma    119.999

_space_group_name_H-M_alt    "P 1"
_space_group_IT_number       1

loop_
  _space_group_symop_operation_xyz
  'x, y, z'

loop_
  _atom_site_type_symbol
  _atom_site_label
  _atom_site_symmetry_multiplicity
  _atom_site_fract_x
  _atom_site_fract_y
  _atom_site_fract_z
  _atom_site_occupancy
  Ba  Ba1       1.0  0.66700  0.33300  0.01040  1.0000
  Ba  Ba2       1.0  0.33300  0.66700  0.01040  1.0000
  Ba  Ba3       1.0  0.72500  0.00000  0.25100  1.0000
  Ba  Ba4       1.0  0.00000  0.72500  0.25100  1.0000
  Ba  Ba5       1.0  0.27500  0.27500  0.25100  1.0000
  Ba  Ba6       1.0  0.66700  0.33300  0.51000  1.0000
  Ba  Ba7       1.0  0.33300  0.66700  0.51000  1.0000
  Ba  Ba8       1.0  0.27500  0.00000  0.75100  1.0000
  Ba  Ba9       1.0  0.00000  0.27500  0.75100  1.0000
  Ba  Ba10      1.0  0.72500  0.72500  0.75100  1.0000
  N   N1        1.0  0.00000  0.00000  0.44100  1.0000
  N   N2        1.0  0.00000  0.00000  0.94100  1.0000
  O   O1        1.0  0.70400  0.70400  0.11800  1.0000
  O   O2        1.0  0.29600  0.00000  0.11800  1.0000
  O   O3        1.0  0.00000  0.29600  0.11800  1.0000
  O   O4        1.0  0.57800  0.12900  0.26300  1.0000
  O   O5        1.0  0.55100  0.42200  0.26300  1.0000
  O   O6        1.0  0.42200  0.55100  0.26300  1.0000
  O   O7        1.0  0.12900  0.57800  0.26300  1.0000
  O   O8        1.0  0.87100  0.44900  0.26300  1.0000
  O   O9        1.0  0.44900  0.87100  0.26300  1.0000
  O   O10       1.0  0.11300  0.00000  0.43800  1.0000
  O   O11       1.0  0.00000  0.11300  0.43800  1.0000
  O   O12       1.0  0.88700  0.88700  0.43800  1.0000
  O   O13       1.0  0.73500  0.60400  0.44900  1.0000
  O   O14       1.0  0.60400  0.73500  0.44900  1.0000
  O   O15       1.0  0.39600  0.13200  0.44900  1.0000
  O   O16       1.0  0.86800  0.26500  0.44900  1.0000
  O   O17       1.0  0.13200  0.39600  0.44900  1.0000
  O   O18       1.0  0.26500  0.86800  0.44900  1.0000
  O   O19       1.0  0.29600  0.29600  0.61800  1.0000
  O   O20       1.0  0.70400  0.00000  0.61800  1.0000
  O   O21       1.0  0.00000  0.70400  0.61800  1.0000
  O   O22       1.0  0.87100  0.42200  0.76300  1.0000
  O   O23       1.0  0.57800  0.44900  0.76300  1.0000
  O   O24       1.0  0.44900  0.57800  0.76300  1.0000
  O   O25       1.0  0.42200  0.87100  0.76300  1.0000
  O   O26       1.0  0.55100  0.12900  0.76300  1.0000
  O   O27       1.0  0.12900  0.55100  0.76300  1.0000
  O   O28       1.0  0.88700  0.00000  0.93800  1.0000
  O   O29       1.0  0.00000  0.88700  0.93800  1.0000
  O   O30       1.0  0.11300  0.11300  0.93800  1.0000
  O   O31       1.0  0.39600  0.26500  0.94900  1.0000
  O   O32       1.0  0.26500  0.39600  0.94900  1.0000
  O   O33       1.0  0.73500  0.13200  0.94900  1.0000
  O   O34       1.0  0.13200  0.73500  0.94900  1.0000
  O   O35       1.0  0.86800  0.60400  0.94900  1.0000
  O   O36       1.0  0.60400  0.86800  0.94900  1.0000
  Os  Os1       1.0  0.39100  0.00000  0.29800  1.0000
  Os  Os2       1.0  0.00000  0.39100  0.29800  1.0000
  Os  Os3       1.0  0.60800  0.60800  0.29800  1.0000
  Os  Os4       1.0  0.60900  0.00000  0.79800  1.0000
  Os  Os5       1.0  0.00000  0.60900  0.79800  1.0000
  Os  Os6       1.0  0.39200  0.39200  0.79800  1.0000
