data_image0
_chemical_formula_structural       Cs12Re12S30
_chemical_formula_sum              "Cs12 Re12 S30"
_cell_length_a       12.5196
_cell_length_b       12.5196
_cell_length_c       12.5196
_cell_angle_alpha    112.302
_cell_angle_beta     67.6981
_cell_angle_gamma    112.302

_space_group_name_H-M_alt    "P 1"
_space_group_IT_number       1

loop_
  _space_group_symop_operation_xyz
  'x, y, z'

loop_
  _atom_site_type_symbol
  _atom_site_label
  _atom_site_symmetry_multiplicity
  _atom_site_fract_x
  _atom_site_fract_y
  _atom_site_fract_z
  _atom_site_occupancy
  Cs  Cs1       1.0  0.79900  0.36400  0.02750  1.0000
  Cs  Cs2       1.0  0.29900  0.47200  0.13600  1.0000
  Cs  Cs3       1.0  0.36400  0.02750  0.20100  1.0000
  Cs  Cs4       1.0  0.52800  0.86400  0.29900  1.0000
  Cs  Cs5       1.0  0.97200  0.79900  0.36400  1.0000
  Cs  Cs6       1.0  0.86400  0.29900  0.47200  1.0000
  Cs  Cs7       1.0  0.13600  0.70100  0.52800  1.0000
  Cs  Cs8       1.0  0.02750  0.20100  0.63600  1.0000
  Cs  Cs9       1.0  0.47200  0.13600  0.70100  1.0000
  Cs  Cs10      1.0  0.63600  0.97200  0.79900  1.0000
  Cs  Cs11      1.0  0.70100  0.52800  0.86400  1.0000
  Cs  Cs12      1.0  0.20100  0.63600  0.97200  1.0000
  Re  Re1       1.0  0.92200  0.86200  0.05170  1.0000
  Re  Re2       1.0  0.86200  0.05170  0.07800  1.0000
  Re  Re3       1.0  0.05170  0.07800  0.13800  1.0000
  Re  Re4       1.0  0.57800  0.55200  0.36200  1.0000
  Re  Re5       1.0  0.55200  0.36200  0.42200  1.0000
  Re  Re6       1.0  0.36200  0.42200  0.44800  1.0000
  Re  Re7       1.0  0.63800  0.57800  0.55200  1.0000
  Re  Re8       1.0  0.44800  0.63800  0.57800  1.0000
  Re  Re9       1.0  0.42200  0.44800  0.63800  1.0000
  Re  Re10      1.0  0.94800  0.92200  0.86200  1.0000
  Re  Re11      1.0  0.13800  0.94800  0.92200  1.0000
  Re  Re12      1.0  0.07800  0.13800  0.94800  1.0000
  S   S1        1.0  0.24700  0.15200  0.00762  1.0000
  S   S2        1.0  0.10300  0.89700  0.10300  1.0000
  S   S3        1.0  0.84400  0.67900  0.12000  1.0000
  S   S4        1.0  0.99200  0.24700  0.15200  1.0000
  S   S5        1.0  0.67900  0.12000  0.15600  1.0000
  S   S6        1.0  0.65600  0.62000  0.17900  1.0000
  S   S7        1.0  0.84800  0.99200  0.24700  1.0000
  S   S8        1.0  0.25000  0.75000  0.25000  1.0000
  S   S9        1.0  0.49200  0.34800  0.25300  1.0000
  S   S10       1.0  0.12000  0.15600  0.32100  1.0000
  S   S11       1.0  0.62000  0.17900  0.34400  1.0000
  S   S12       1.0  0.74700  0.49200  0.34800  1.0000
  S   S13       1.0  0.17900  0.34400  0.38000  1.0000
  S   S14       1.0  0.39700  0.60300  0.39700  1.0000
  S   S15       1.0  0.65200  0.74700  0.49200  1.0000
  S   S16       1.0  0.34800  0.25300  0.50800  1.0000
  S   S17       1.0  0.60300  0.39700  0.60300  1.0000
  S   S18       1.0  0.82100  0.65600  0.62000  1.0000
  S   S19       1.0  0.25300  0.50800  0.65200  1.0000
  S   S20       1.0  0.38000  0.82100  0.65600  1.0000
  S   S21       1.0  0.88000  0.84400  0.67900  1.0000
  S   S22       1.0  0.50800  0.65200  0.74700  1.0000
  S   S23       1.0  0.75000  0.25000  0.75000  1.0000
  S   S24       1.0  0.15200  0.00762  0.75300  1.0000
  S   S25       1.0  0.34400  0.38000  0.82100  1.0000
  S   S26       1.0  0.32100  0.88000  0.84400  1.0000
  S   S27       1.0  0.00762  0.75300  0.84800  1.0000
  S   S28       1.0  0.15600  0.32100  0.88000  1.0000
  S   S29       1.0  0.89700  0.10300  0.89700  1.0000
  S   S30       1.0  0.75300  0.84800  0.99200  1.0000
