data_image0
_chemical_formula_structural       Cl4O32Se8Y12
_chemical_formula_sum              "Cl4 O32 Se8 Y12"
_cell_length_a       5.48197
_cell_length_b       14.5402
_cell_length_c       11.0353
_cell_angle_alpha    90
_cell_angle_beta     90
_cell_angle_gamma    90

_space_group_name_H-M_alt    "P 1"
_space_group_IT_number       1

loop_
  _space_group_symop_operation_xyz
  'x, y, z'

loop_
  _atom_site_type_symbol
  _atom_site_label
  _atom_site_symmetry_multiplicity
  _atom_site_fract_x
  _atom_site_fract_y
  _atom_site_fract_z
  _atom_site_occupancy
  Cl  Cl1       1.0  0.08260  0.25000  0.02080  1.0000
  Cl  Cl2       1.0  0.58300  0.25000  0.47900  1.0000
  Cl  Cl3       1.0  0.41700  0.75000  0.52100  1.0000
  Cl  Cl4       1.0  0.91700  0.75000  0.97900  1.0000
  O   O1        1.0  0.40800  0.63800  0.00368  1.0000
  O   O2        1.0  0.40800  0.86200  0.00368  1.0000
  O   O3        1.0  0.81400  0.54600  0.05600  1.0000
  O   O4        1.0  0.81400  0.95400  0.05600  1.0000
  O   O5        1.0  0.41200  0.52500  0.19400  1.0000
  O   O6        1.0  0.41200  0.97500  0.19400  1.0000
  O   O7        1.0  0.81100  0.15200  0.24500  1.0000
  O   O8        1.0  0.81100  0.34800  0.24500  1.0000
  O   O9        1.0  0.31100  0.15200  0.25500  1.0000
  O   O10       1.0  0.31100  0.34800  0.25500  1.0000
  O   O11       1.0  0.91200  0.52500  0.30600  1.0000
  O   O12       1.0  0.91200  0.97500  0.30600  1.0000
  O   O13       1.0  0.31400  0.54600  0.44400  1.0000
  O   O14       1.0  0.31400  0.95400  0.44400  1.0000
  O   O15       1.0  0.90800  0.63800  0.49600  1.0000
  O   O16       1.0  0.90800  0.86200  0.49600  1.0000
  O   O17       1.0  0.09240  0.13800  0.50400  1.0000
  O   O18       1.0  0.09240  0.36200  0.50400  1.0000
  O   O19       1.0  0.68600  0.04570  0.55600  1.0000
  O   O20       1.0  0.68600  0.45400  0.55600  1.0000
  O   O21       1.0  0.08750  0.02550  0.69400  1.0000
  O   O22       1.0  0.08750  0.47500  0.69400  1.0000
  O   O23       1.0  0.68900  0.65200  0.74500  1.0000
  O   O24       1.0  0.68900  0.84800  0.74500  1.0000
  O   O25       1.0  0.18900  0.65200  0.75500  1.0000
  O   O26       1.0  0.18900  0.84800  0.75500  1.0000
  O   O27       1.0  0.58800  0.02550  0.80600  1.0000
  O   O28       1.0  0.58800  0.47500  0.80600  1.0000
  O   O29       1.0  0.18600  0.04570  0.94400  1.0000
  O   O30       1.0  0.18600  0.45400  0.94400  1.0000
  O   O31       1.0  0.59200  0.13800  0.99600  1.0000
  O   O32       1.0  0.59200  0.36200  0.99600  1.0000
  Se  Se1       1.0  0.58500  0.61100  0.12400  1.0000
  Se  Se2       1.0  0.58500  0.88900  0.12400  1.0000
  Se  Se3       1.0  0.08460  0.61100  0.37600  1.0000
  Se  Se4       1.0  0.08460  0.88900  0.37600  1.0000
  Se  Se5       1.0  0.91500  0.11100  0.62400  1.0000
  Se  Se6       1.0  0.91500  0.38900  0.62400  1.0000
  Se  Se7       1.0  0.41500  0.11100  0.87600  1.0000
  Se  Se8       1.0  0.41500  0.38900  0.87600  1.0000
  Y   Y1        1.0  0.06850  0.06600  0.14200  1.0000
  Y   Y2        1.0  0.06850  0.43400  0.14200  1.0000
  Y   Y3        1.0  0.55800  0.25000  0.14600  1.0000
  Y   Y4        1.0  0.05840  0.25000  0.35400  1.0000
  Y   Y5        1.0  0.56800  0.06600  0.35800  1.0000
  Y   Y6        1.0  0.56800  0.43400  0.35800  1.0000
  Y   Y7        1.0  0.43200  0.56600  0.64200  1.0000
  Y   Y8        1.0  0.43200  0.93400  0.64200  1.0000
  Y   Y9        1.0  0.94200  0.75000  0.64600  1.0000
  Y   Y10       1.0  0.44200  0.75000  0.85400  1.0000
  Y   Y11       1.0  0.93200  0.56600  0.85800  1.0000
  Y   Y12       1.0  0.93200  0.93400  0.85800  1.0000
