data_image0
_chemical_formula_structural       C4Cl8F36S4Sb4
_chemical_formula_sum              "C4 Cl8 F36 S4 Sb4"
_cell_length_a       7.35779
_cell_length_b       9.08236
_cell_length_c       11.8708
_cell_angle_alpha    90
_cell_angle_beta     100.767
_cell_angle_gamma    90

_space_group_name_H-M_alt    "P 1"
_space_group_IT_number       1

loop_
  _space_group_symop_operation_xyz
  'x, y, z'

loop_
  _atom_site_type_symbol
  _atom_site_label
  _atom_site_symmetry_multiplicity
  _atom_site_fract_x
  _atom_site_fract_y
  _atom_site_fract_z
  _atom_site_occupancy
  C   C1        1.0  0.38600  0.67500  0.12400  1.0000
  C   C2        1.0  0.61400  0.17500  0.37600  1.0000
  C   C3        1.0  0.38600  0.82500  0.62400  1.0000
  C   C4        1.0  0.61400  0.32500  0.87600  1.0000
  Cl  Cl1       1.0  0.73700  0.06210  0.16200  1.0000
  Cl  Cl2       1.0  0.81700  0.38400  0.24700  1.0000
  Cl  Cl3       1.0  0.18300  0.88400  0.25300  1.0000
  Cl  Cl4       1.0  0.26300  0.56200  0.33800  1.0000
  Cl  Cl5       1.0  0.73700  0.43800  0.66200  1.0000
  Cl  Cl6       1.0  0.81700  0.11600  0.74700  1.0000
  Cl  Cl7       1.0  0.18300  0.61600  0.75300  1.0000
  Cl  Cl8       1.0  0.26300  0.93800  0.83800  1.0000
  F   F1        1.0  0.04200  0.81400  0.00955  1.0000
  F   F2        1.0  0.33200  0.61600  0.02080  1.0000
  F   F3        1.0  0.30400  0.06630  0.03540  1.0000
  F   F4        1.0  0.76000  0.66800  0.07290  1.0000
  F   F5        1.0  0.09430  0.43400  0.10200  1.0000
  F   F6        1.0  0.44600  0.81100  0.11500  1.0000
  F   F7        1.0  0.43600  0.31200  0.14500  1.0000
  F   F8        1.0  0.51200  0.59200  0.18800  1.0000
  F   F9        1.0  0.14100  0.17500  0.20600  1.0000
  F   F10       1.0  0.85900  0.67500  0.29400  1.0000
  F   F11       1.0  0.48800  0.09150  0.31200  1.0000
  F   F12       1.0  0.56400  0.81200  0.35500  1.0000
  F   F13       1.0  0.55400  0.31100  0.38500  1.0000
  F   F14       1.0  0.90600  0.93400  0.39800  1.0000
  F   F15       1.0  0.24000  0.16800  0.42700  1.0000
  F   F16       1.0  0.69600  0.56600  0.46500  1.0000
  F   F17       1.0  0.66800  0.11600  0.47900  1.0000
  F   F18       1.0  0.95800  0.31400  0.49000  1.0000
  F   F19       1.0  0.04200  0.68600  0.51000  1.0000
  F   F20       1.0  0.33200  0.88400  0.52100  1.0000
  F   F21       1.0  0.30400  0.43400  0.53500  1.0000
  F   F22       1.0  0.76000  0.83200  0.57300  1.0000
  F   F23       1.0  0.09430  0.06550  0.60200  1.0000
  F   F24       1.0  0.44600  0.68900  0.61500  1.0000
  F   F25       1.0  0.43600  0.18800  0.64500  1.0000
  F   F26       1.0  0.51200  0.90800  0.68800  1.0000
  F   F27       1.0  0.14100  0.32500  0.70600  1.0000
  F   F28       1.0  0.85900  0.82500  0.79400  1.0000
  F   F29       1.0  0.48800  0.40800  0.81200  1.0000
  F   F30       1.0  0.56400  0.68800  0.85500  1.0000
  F   F31       1.0  0.55400  0.18900  0.88500  1.0000
  F   F32       1.0  0.90600  0.56600  0.89800  1.0000
  F   F33       1.0  0.24000  0.33200  0.92700  1.0000
  F   F34       1.0  0.69600  0.93400  0.96500  1.0000
  F   F35       1.0  0.66800  0.38400  0.97900  1.0000
  F   F36       1.0  0.95800  0.18600  0.99000  1.0000
  S   S1        1.0  0.16600  0.67900  0.19900  1.0000
  S   S2        1.0  0.83400  0.17900  0.30100  1.0000
  S   S3        1.0  0.16600  0.82100  0.69900  1.0000
  S   S4        1.0  0.83400  0.32100  0.80100  1.0000
  Sb  Sb1       1.0  0.19900  0.25000  0.06710  1.0000
  Sb  Sb2       1.0  0.80100  0.75000  0.43300  1.0000
  Sb  Sb3       1.0  0.19900  0.25000  0.56700  1.0000
  Sb  Sb4       1.0  0.80100  0.75000  0.93300  1.0000
