data_image0
_chemical_formula_structural       K4Sb12Se32Sm8
_chemical_formula_sum              "K4 Sb12 Se32 Sm8"
_cell_length_a       17.2266
_cell_length_b       4.13572
_cell_length_c       22.2348
_cell_angle_alpha    90
_cell_angle_beta     90
_cell_angle_gamma    90

_space_group_name_H-M_alt    "P 1"
_space_group_IT_number       1

loop_
  _space_group_symop_operation_xyz
  'x, y, z'

loop_
  _atom_site_type_symbol
  _atom_site_label
  _atom_site_symmetry_multiplicity
  _atom_site_fract_x
  _atom_site_fract_y
  _atom_site_fract_z
  _atom_site_occupancy
  K   K1        1.0  0.30100  0.75000  0.24200  1.0000
  K   K2        1.0  0.80100  0.75000  0.25800  1.0000
  K   K3        1.0  0.19900  0.25000  0.74200  1.0000
  K   K4        1.0  0.69900  0.25000  0.75800  1.0000
  Sb  Sb1       1.0  0.42100  0.25000  0.08410  1.0000
  Sb  Sb2       1.0  0.64900  0.75000  0.10200  1.0000
  Sb  Sb3       1.0  0.03650  0.25000  0.24400  1.0000
  Sb  Sb4       1.0  0.53700  0.25000  0.25600  1.0000
  Sb  Sb5       1.0  0.14900  0.75000  0.39800  1.0000
  Sb  Sb6       1.0  0.92100  0.25000  0.41600  1.0000
  Sb  Sb7       1.0  0.07930  0.75000  0.58400  1.0000
  Sb  Sb8       1.0  0.85100  0.25000  0.60200  1.0000
  Sb  Sb9       1.0  0.46300  0.75000  0.74400  1.0000
  Sb  Sb10      1.0  0.96300  0.75000  0.75600  1.0000
  Sb  Sb11      1.0  0.35100  0.25000  0.89800  1.0000
  Sb  Sb12      1.0  0.57900  0.75000  0.91600  1.0000
  Se  Se1       1.0  0.62200  0.25000  0.00096  1.0000
  Se  Se2       1.0  0.07390  0.25000  0.04230  1.0000
  Se  Se3       1.0  0.79200  0.75000  0.05450  1.0000
  Se  Se4       1.0  0.27700  0.25000  0.12400  1.0000
  Se  Se5       1.0  0.47300  0.75000  0.16600  1.0000
  Se  Se6       1.0  0.90800  0.25000  0.17100  1.0000
  Se  Se7       1.0  0.10200  0.75000  0.17800  1.0000
  Se  Se8       1.0  0.68200  0.25000  0.17900  1.0000
  Se  Se9       1.0  0.18200  0.25000  0.32100  1.0000
  Se  Se10      1.0  0.60200  0.75000  0.32200  1.0000
  Se  Se11      1.0  0.40800  0.25000  0.32900  1.0000
  Se  Se12      1.0  0.97300  0.75000  0.33400  1.0000
  Se  Se13      1.0  0.77700  0.25000  0.37600  1.0000
  Se  Se14      1.0  0.29200  0.75000  0.44600  1.0000
  Se  Se15      1.0  0.57400  0.25000  0.45800  1.0000
  Se  Se16      1.0  0.12200  0.25000  0.49900  1.0000
  Se  Se17      1.0  0.87800  0.75000  0.50100  1.0000
  Se  Se18      1.0  0.42600  0.75000  0.54200  1.0000
  Se  Se19      1.0  0.70800  0.25000  0.55400  1.0000
  Se  Se20      1.0  0.22300  0.75000  0.62400  1.0000
  Se  Se21      1.0  0.02720  0.25000  0.66600  1.0000
  Se  Se22      1.0  0.59200  0.75000  0.67100  1.0000
  Se  Se23      1.0  0.39800  0.25000  0.67800  1.0000
  Se  Se24      1.0  0.81800  0.75000  0.67900  1.0000
  Se  Se25      1.0  0.31800  0.75000  0.82100  1.0000
  Se  Se26      1.0  0.89800  0.25000  0.82200  1.0000
  Se  Se27      1.0  0.09200  0.75000  0.82900  1.0000
  Se  Se28      1.0  0.52700  0.25000  0.83400  1.0000
  Se  Se29      1.0  0.72300  0.75000  0.87600  1.0000
  Se  Se30      1.0  0.20800  0.25000  0.94600  1.0000
  Se  Se31      1.0  0.92600  0.75000  0.95800  1.0000
  Se  Se32      1.0  0.37800  0.75000  0.99900  1.0000
  Sm  Sm1       1.0  0.20700  0.75000  0.04320  1.0000
  Sm  Sm2       1.0  0.96400  0.75000  0.09090  1.0000
  Sm  Sm3       1.0  0.46400  0.75000  0.40900  1.0000
  Sm  Sm4       1.0  0.70700  0.75000  0.45700  1.0000
  Sm  Sm5       1.0  0.29300  0.25000  0.54300  1.0000
  Sm  Sm6       1.0  0.53600  0.25000  0.59100  1.0000
  Sm  Sm7       1.0  0.03610  0.25000  0.90900  1.0000
  Sm  Sm8       1.0  0.79300  0.25000  0.95700  1.0000
