data_image0
_chemical_formula_structural       C6F2H24N12O10P2
_chemical_formula_sum              "C6 F2 H24 N12 O10 P2"
_cell_length_a       6.61552
_cell_length_b       8.19042
_cell_length_c       8.92826
_cell_angle_alpha    101.113
_cell_angle_beta     90.4903
_cell_angle_gamma    98.8567

_space_group_name_H-M_alt    "P 1"
_space_group_IT_number       1

loop_
  _space_group_symop_operation_xyz
  'x, y, z'

loop_
  _atom_site_type_symbol
  _atom_site_label
  _atom_site_symmetry_multiplicity
  _atom_site_fract_x
  _atom_site_fract_y
  _atom_site_fract_z
  _atom_site_occupancy
  C   C1        1.0  0.97300  0.25100  0.30800  1.0000
  C   C2        1.0  0.71900  0.44100  0.31800  1.0000
  C   C3        1.0  0.32800  0.30000  0.63600  1.0000
  C   C4        1.0  0.07850  0.49200  0.65700  1.0000
  C   C5        1.0  0.16300  0.15600  0.96000  1.0000
  C   C6        1.0  0.92000  0.35300  0.97500  1.0000
  F   F1        1.0  0.34700  0.77000  0.08660  1.0000
  F   F2        1.0  0.77400  0.96200  0.62000  1.0000
  H   H1        1.0  0.21300  0.46000  0.00000  1.0000
  H   H2        1.0  0.76200  0.78100  0.07150  1.0000
  H   H3        1.0  0.87000  0.99500  0.28300  1.0000
  H   H4        1.0  0.14100  0.06480  0.29500  1.0000
  H   H5        1.0  0.64900  0.18600  0.29700  1.0000
  H   H6        1.0  0.40800  0.34900  0.29900  1.0000
  H   H7        1.0  0.80900  0.68800  0.32200  1.0000
  H   H8        1.0  0.47100  0.56400  0.32800  1.0000
  H   H9        1.0  0.00970  0.56400  0.33000  1.0000
  H   H10       1.0  0.35300  0.80800  0.47000  1.0000
  H   H11       1.0  0.56200  0.16700  0.61100  1.0000
  H   H12       1.0  0.23500  0.05120  0.62000  1.0000
  H   H13       1.0  0.03690  0.18200  0.62500  1.0000
  H   H14       1.0  0.64500  0.38200  0.64500  1.0000
  H   H15       1.0  0.91100  0.67900  0.66800  1.0000
  H   H16       1.0  0.40200  0.55600  0.67000  1.0000
  H   H17       1.0  0.17900  0.74800  0.67100  1.0000
  H   H18       1.0  0.75100  0.72400  0.88700  1.0000
  H   H19       1.0  0.83800  0.09760  0.93500  1.0000
  H   H20       1.0  0.31900  0.96300  0.94000  1.0000
  H   H21       1.0  0.05000  0.90200  0.95200  1.0000
  H   H22       1.0  0.60300  0.27400  0.95600  1.0000
  H   H23       1.0  0.69500  0.49100  0.97800  1.0000
  H   H24       1.0  0.02370  0.60100  1.00000  1.0000
  N   N1        1.0  0.99300  0.08990  0.29600  1.0000
  N   N2        1.0  0.77200  0.28400  0.30600  1.0000
  N   N3        1.0  0.52200  0.45100  0.31500  1.0000
  N   N4        1.0  0.85900  0.57900  0.33300  1.0000
  N   N5        1.0  0.18700  0.16500  0.62200  1.0000
  N   N6        1.0  0.52400  0.28500  0.62800  1.0000
  N   N7        1.0  0.27800  0.45800  0.65700  1.0000
  N   N8        1.0  0.05820  0.65500  0.67300  1.0000
  N   N9        1.0  0.17300  0.99100  0.93800  1.0000
  N   N10       1.0  0.96400  0.19400  0.96200  1.0000
  N   N11       1.0  0.72400  0.37100  0.96900  1.0000
  N   N12       1.0  0.06660  0.48500  0.99500  1.0000
  O   O1        1.0  0.66800  0.83000  0.24300  1.0000
  O   O2        1.0  0.41700  0.04380  0.28000  1.0000
  O   O3        1.0  0.12200  0.36800  0.32100  1.0000
  O   O4        1.0  0.31800  0.75400  0.35200  1.0000
  O   O5        1.0  0.39800  0.88800  0.62200  1.0000
  O   O6        1.0  0.92700  0.37700  0.64400  1.0000
  O   O7        1.0  0.63200  0.69800  0.70500  1.0000
  O   O8        1.0  0.60800  0.98600  0.87200  1.0000
  O   O9        1.0  0.31700  0.26700  0.97400  1.0000
  O   O10       1.0  0.83900  0.73600  0.98100  1.0000
  P   P1        1.0  0.44900  0.86300  0.24900  1.0000
  P   P2        1.0  0.59200  0.87800  0.71400  1.0000
