data_image0
_chemical_formula_structural       As4Br4O32Pr16
_chemical_formula_sum              "As4 Br4 O32 Pr16"
_cell_length_a       8.35837
_cell_length_b       8.35837
_cell_length_c       13.2745
_cell_angle_alpha    90
_cell_angle_beta     90
_cell_angle_gamma    90

_space_group_name_H-M_alt    "P 1"
_space_group_IT_number       1

loop_
  _space_group_symop_operation_xyz
  'x, y, z'

loop_
  _atom_site_type_symbol
  _atom_site_label
  _atom_site_symmetry_multiplicity
  _atom_site_fract_x
  _atom_site_fract_y
  _atom_site_fract_z
  _atom_site_occupancy
  As  As1       1.0  0.74800  0.04360  0.00000  1.0000
  As  As2       1.0  0.25200  0.95600  0.00000  1.0000
  As  As3       1.0  0.04360  0.25200  0.50000  1.0000
  As  As4       1.0  0.95600  0.74800  0.50000  1.0000
  Br  Br1       1.0  0.25300  0.44500  0.00000  1.0000
  Br  Br2       1.0  0.74700  0.55500  0.00000  1.0000
  Br  Br3       1.0  0.55500  0.25300  0.50000  1.0000
  Br  Br4       1.0  0.44500  0.74700  0.50000  1.0000
  O   O1        1.0  0.58100  0.16600  0.00000  1.0000
  O   O2        1.0  0.91600  0.16600  0.00000  1.0000
  O   O3        1.0  0.08450  0.83400  0.00000  1.0000
  O   O4        1.0  0.41900  0.83400  0.00000  1.0000
  O   O5        1.0  0.25200  0.07130  0.10600  1.0000
  O   O6        1.0  0.74800  0.92900  0.10600  1.0000
  O   O7        1.0  0.74400  0.24900  0.22900  1.0000
  O   O8        1.0  0.25600  0.75100  0.22900  1.0000
  O   O9        1.0  0.00000  0.50000  0.23900  1.0000
  O   O10       1.0  0.00000  0.00000  0.25000  1.0000
  O   O11       1.0  0.50000  0.50000  0.25000  1.0000
  O   O12       1.0  0.50000  0.00000  0.26100  1.0000
  O   O13       1.0  0.24900  0.25600  0.27100  1.0000
  O   O14       1.0  0.75100  0.74400  0.27100  1.0000
  O   O15       1.0  0.92900  0.25200  0.39400  1.0000
  O   O16       1.0  0.07130  0.74800  0.39400  1.0000
  O   O17       1.0  0.16600  0.08450  0.50000  1.0000
  O   O18       1.0  0.16600  0.41900  0.50000  1.0000
  O   O19       1.0  0.83400  0.58100  0.50000  1.0000
  O   O20       1.0  0.83400  0.91600  0.50000  1.0000
  O   O21       1.0  0.92900  0.25200  0.60600  1.0000
  O   O22       1.0  0.07130  0.74800  0.60600  1.0000
  O   O23       1.0  0.24900  0.25600  0.72900  1.0000
  O   O24       1.0  0.75100  0.74400  0.72900  1.0000
  O   O25       1.0  0.50000  0.00000  0.73900  1.0000
  O   O26       1.0  0.00000  0.00000  0.75000  1.0000
  O   O27       1.0  0.50000  0.50000  0.75000  1.0000
  O   O28       1.0  0.00000  0.50000  0.76100  1.0000
  O   O29       1.0  0.74400  0.24900  0.77100  1.0000
  O   O30       1.0  0.25600  0.75100  0.77100  1.0000
  O   O31       1.0  0.25200  0.07130  0.89400  1.0000
  O   O32       1.0  0.74800  0.92900  0.89400  1.0000
  Pr  Pr1       1.0  0.01330  0.24500  0.16700  1.0000
  Pr  Pr2       1.0  0.98700  0.75500  0.16700  1.0000
  Pr  Pr3       1.0  0.48300  0.24500  0.16800  1.0000
  Pr  Pr4       1.0  0.51700  0.75500  0.16800  1.0000
  Pr  Pr5       1.0  0.75500  0.48300  0.33200  1.0000
  Pr  Pr6       1.0  0.24500  0.51700  0.33200  1.0000
  Pr  Pr7       1.0  0.75500  0.01330  0.33300  1.0000
  Pr  Pr8       1.0  0.24500  0.98700  0.33300  1.0000
  Pr  Pr9       1.0  0.75500  0.01330  0.66700  1.0000
  Pr  Pr10      1.0  0.24500  0.98700  0.66700  1.0000
  Pr  Pr11      1.0  0.75500  0.48300  0.66800  1.0000
  Pr  Pr12      1.0  0.24500  0.51700  0.66800  1.0000
  Pr  Pr13      1.0  0.48300  0.24500  0.83200  1.0000
  Pr  Pr14      1.0  0.51700  0.75500  0.83200  1.0000
  Pr  Pr15      1.0  0.01330  0.24500  0.83300  1.0000
  Pr  Pr16      1.0  0.98700  0.75500  0.83300  1.0000
