data_image0
_chemical_formula_structural       Cr6F38Pb10
_chemical_formula_sum              "Cr6 F38 Pb10"
_cell_length_a       7.51324
_cell_length_b       10.7212
_cell_length_c       10.7212
_cell_angle_alpha    97.0522
_cell_angle_beta     69.4888
_cell_angle_gamma    110.511

_space_group_name_H-M_alt    "P 1"
_space_group_IT_number       1

loop_
  _space_group_symop_operation_xyz
  'x, y, z'

loop_
  _atom_site_type_symbol
  _atom_site_label
  _atom_site_symmetry_multiplicity
  _atom_site_fract_x
  _atom_site_fract_y
  _atom_site_fract_z
  _atom_site_occupancy
  Cr  Cr1       1.0  0.30000  0.00000  0.00000  1.0000
  Cr  Cr2       1.0  0.80000  0.00000  0.00000  1.0000
  Cr  Cr3       1.0  0.67300  0.50000  0.17200  1.0000
  Cr  Cr4       1.0  0.84500  0.17200  0.50000  1.0000
  Cr  Cr5       1.0  0.17300  0.82800  0.50000  1.0000
  Cr  Cr6       1.0  0.34500  0.50000  0.82800  1.0000
  F   F1        1.0  0.04950  0.00000  0.00000  1.0000
  F   F2        1.0  0.55000  0.00000  0.00000  1.0000
  F   F3        1.0  0.17900  0.50000  0.01080  1.0000
  F   F4        1.0  0.86000  0.17900  0.04310  1.0000
  F   F5        1.0  0.18100  0.82100  0.04310  1.0000
  F   F6        1.0  0.77700  0.36100  0.14100  1.0000
  F   F7        1.0  0.91700  0.63900  0.14100  1.0000
  F   F8        1.0  0.68100  0.95700  0.17900  1.0000
  F   F9        1.0  0.22500  0.04310  0.17900  1.0000
  F   F10       1.0  0.40800  0.36600  0.23300  1.0000
  F   F11       1.0  0.54200  0.63400  0.23300  1.0000
  F   F12       1.0  0.08360  0.50000  0.28600  1.0000
  F   F13       1.0  0.66400  0.50000  0.35100  1.0000
  F   F14       1.0  0.05820  0.14100  0.36100  1.0000
  F   F15       1.0  0.41700  0.85900  0.36100  1.0000
  F   F16       1.0  0.04160  0.76700  0.36600  1.0000
  F   F17       1.0  0.77400  0.23300  0.36600  1.0000
  F   F18       1.0  0.67900  0.98900  0.50000  1.0000
  F   F19       1.0  0.16400  0.64900  0.50000  1.0000
  F   F20       1.0  0.18900  0.01080  0.50000  1.0000
  F   F21       1.0  0.37000  0.28600  0.50000  1.0000
  F   F22       1.0  0.01500  0.35100  0.50000  1.0000
  F   F23       1.0  0.58400  0.71400  0.50000  1.0000
  F   F24       1.0  0.90800  0.76700  0.63400  1.0000
  F   F25       1.0  0.64100  0.23300  0.63400  1.0000
  F   F26       1.0  0.91900  0.14100  0.63900  1.0000
  F   F27       1.0  0.27700  0.85900  0.63900  1.0000
  F   F28       1.0  0.51500  0.50000  0.64900  1.0000
  F   F29       1.0  0.87000  0.50000  0.71400  1.0000
  F   F30       1.0  0.14100  0.36600  0.76700  1.0000
  F   F31       1.0  0.27400  0.63400  0.76700  1.0000
  F   F32       1.0  0.90300  0.04310  0.82100  1.0000
  F   F33       1.0  0.36000  0.95700  0.82100  1.0000
  F   F34       1.0  0.41900  0.36100  0.85900  1.0000
  F   F35       1.0  0.55800  0.63900  0.85900  1.0000
  F   F36       1.0  0.40300  0.17900  0.95700  1.0000
  F   F37       1.0  0.72500  0.82100  0.95700  1.0000
  F   F38       1.0  0.68900  0.50000  0.98900  1.0000
  Pb  Pb1       1.0  0.10800  0.30000  0.15500  1.0000
  Pb  Pb2       1.0  0.30700  0.70000  0.15500  1.0000
  Pb  Pb3       1.0  0.46200  0.15500  0.30000  1.0000
  Pb  Pb4       1.0  0.80700  0.84500  0.30000  1.0000
  Pb  Pb5       1.0  0.33600  0.50000  0.50000  1.0000
  Pb  Pb6       1.0  0.83600  0.50000  0.50000  1.0000
  Pb  Pb7       1.0  0.26200  0.15500  0.70000  1.0000
  Pb  Pb8       1.0  0.60800  0.84500  0.70000  1.0000
  Pb  Pb9       1.0  0.76200  0.30000  0.84500  1.0000
  Pb  Pb10      1.0  0.96200  0.70000  0.84500  1.0000
