data_image0
_chemical_formula_structural       B16Mn8O32
_chemical_formula_sum              "B16 Mn8 O32"
_cell_length_a       7.07062
_cell_length_b       7.45395
_cell_length_c       8.7963
_cell_angle_alpha    90
_cell_angle_beta     93.9544
_cell_angle_gamma    90

_space_group_name_H-M_alt    "P 1"
_space_group_IT_number       1

loop_
  _space_group_symop_operation_xyz
  'x, y, z'

loop_
  _atom_site_type_symbol
  _atom_site_label
  _atom_site_symmetry_multiplicity
  _atom_site_fract_x
  _atom_site_fract_y
  _atom_site_fract_z
  _atom_site_occupancy
  B   B1        1.0  0.69000  0.90200  0.11500  1.0000
  B   B2        1.0  0.30200  0.89900  0.12000  1.0000
  B   B3        1.0  0.79200  0.56300  0.13000  1.0000
  B   B4        1.0  0.18200  0.56700  0.13700  1.0000
  B   B5        1.0  0.81800  0.06680  0.36300  1.0000
  B   B6        1.0  0.20800  0.06290  0.37000  1.0000
  B   B7        1.0  0.69800  0.39900  0.38000  1.0000
  B   B8        1.0  0.31000  0.40200  0.38500  1.0000
  B   B9        1.0  0.69000  0.59800  0.61500  1.0000
  B   B10       1.0  0.30200  0.60100  0.62000  1.0000
  B   B11       1.0  0.79200  0.93700  0.63000  1.0000
  B   B12       1.0  0.18200  0.93300  0.63700  1.0000
  B   B13       1.0  0.81800  0.43300  0.86300  1.0000
  B   B14       1.0  0.20800  0.43700  0.87000  1.0000
  B   B15       1.0  0.69800  0.10100  0.88000  1.0000
  B   B16       1.0  0.31000  0.09810  0.88500  1.0000
  Mn  Mn1       1.0  0.99400  0.21100  0.12700  1.0000
  Mn  Mn2       1.0  0.46800  0.25400  0.14500  1.0000
  Mn  Mn3       1.0  0.53200  0.75400  0.35500  1.0000
  Mn  Mn4       1.0  0.00613  0.71100  0.37300  1.0000
  Mn  Mn5       1.0  0.99400  0.28900  0.62700  1.0000
  Mn  Mn6       1.0  0.46800  0.24600  0.64500  1.0000
  Mn  Mn7       1.0  0.53200  0.74600  0.85500  1.0000
  Mn  Mn8       1.0  0.00613  0.78900  0.87300  1.0000
  O   O1        1.0  0.26500  0.44200  0.03150  1.0000
  O   O2        1.0  0.22800  0.05940  0.03260  1.0000
  O   O3        1.0  0.48900  0.84300  0.07720  1.0000
  O   O4        1.0  0.16600  0.75200  0.08310  1.0000
  O   O5        1.0  0.98900  0.50000  0.16900  1.0000
  O   O6        1.0  0.77900  0.74800  0.19300  1.0000
  O   O7        1.0  0.70600  0.06320  0.21200  1.0000
  O   O8        1.0  0.67300  0.44400  0.21600  1.0000
  O   O9        1.0  0.32700  0.94400  0.28400  1.0000
  O   O10       1.0  0.29400  0.56300  0.28800  1.0000
  O   O11       1.0  0.22100  0.24800  0.30700  1.0000
  O   O12       1.0  0.01130  0.00040  0.33100  1.0000
  O   O13       1.0  0.83400  0.25200  0.41700  1.0000
  O   O14       1.0  0.51100  0.34300  0.42300  1.0000
  O   O15       1.0  0.77200  0.55900  0.46700  1.0000
  O   O16       1.0  0.73500  0.94200  0.46800  1.0000
  O   O17       1.0  0.26500  0.05790  0.53200  1.0000
  O   O18       1.0  0.22800  0.44100  0.53300  1.0000
  O   O19       1.0  0.48900  0.65700  0.57700  1.0000
  O   O20       1.0  0.16600  0.74800  0.58300  1.0000
  O   O21       1.0  0.98900  0.00000  0.66900  1.0000
  O   O22       1.0  0.77900  0.75200  0.69300  1.0000
  O   O23       1.0  0.70600  0.43700  0.71200  1.0000
  O   O24       1.0  0.67300  0.05650  0.71600  1.0000
  O   O25       1.0  0.32700  0.55600  0.78400  1.0000
  O   O26       1.0  0.29400  0.93700  0.78800  1.0000
  O   O27       1.0  0.22100  0.25200  0.80700  1.0000
  O   O28       1.0  0.01130  0.50000  0.83100  1.0000
  O   O29       1.0  0.83400  0.24800  0.91700  1.0000
  O   O30       1.0  0.51100  0.15700  0.92300  1.0000
  O   O31       1.0  0.77200  0.94100  0.96700  1.0000
  O   O32       1.0  0.73500  0.55800  0.96800  1.0000
