data_image0
_chemical_formula_structural       Cr8Er16S32
_chemical_formula_sum              "Cr8 Er16 S32"
_cell_length_a       12.4513
_cell_length_b       12.5017
_cell_length_c       7.43569
_cell_angle_alpha    90
_cell_angle_beta     90
_cell_angle_gamma    90

_space_group_name_H-M_alt    "P 1"
_space_group_IT_number       1

loop_
  _space_group_symop_operation_xyz
  'x, y, z'

loop_
  _atom_site_type_symbol
  _atom_site_label
  _atom_site_symmetry_multiplicity
  _atom_site_fract_x
  _atom_site_fract_y
  _atom_site_fract_z
  _atom_site_occupancy
  Cr  Cr1       1.0  0.88900  0.07100  0.11800  1.0000
  Cr  Cr2       1.0  0.61100  0.57100  0.11800  1.0000
  Cr  Cr3       1.0  0.37400  0.44100  0.38000  1.0000
  Cr  Cr4       1.0  0.12600  0.94100  0.38000  1.0000
  Cr  Cr5       1.0  0.87400  0.44100  0.62000  1.0000
  Cr  Cr6       1.0  0.62600  0.94100  0.62000  1.0000
  Cr  Cr7       1.0  0.38900  0.07100  0.88200  1.0000
  Cr  Cr8       1.0  0.11100  0.57100  0.88200  1.0000
  Er  Er1       1.0  0.87300  0.43900  0.11600  1.0000
  Er  Er2       1.0  0.62700  0.93900  0.11600  1.0000
  Er  Er3       1.0  0.13500  0.27100  0.13000  1.0000
  Er  Er4       1.0  0.36500  0.77100  0.13000  1.0000
  Er  Er5       1.0  0.63500  0.27200  0.36900  1.0000
  Er  Er6       1.0  0.86500  0.77200  0.36900  1.0000
  Er  Er7       1.0  0.39200  0.07750  0.38600  1.0000
  Er  Er8       1.0  0.10800  0.57800  0.38600  1.0000
  Er  Er9       1.0  0.89200  0.07750  0.61400  1.0000
  Er  Er10      1.0  0.60800  0.57800  0.61400  1.0000
  Er  Er11      1.0  0.13500  0.27200  0.63100  1.0000
  Er  Er12      1.0  0.36500  0.77200  0.63100  1.0000
  Er  Er13      1.0  0.63500  0.27100  0.87000  1.0000
  Er  Er14      1.0  0.86500  0.77100  0.87000  1.0000
  Er  Er15      1.0  0.37300  0.43900  0.88400  1.0000
  Er  Er16      1.0  0.12700  0.93900  0.88400  1.0000
  S   S1        1.0  0.52900  0.13400  0.11700  1.0000
  S   S2        1.0  0.97100  0.63400  0.11700  1.0000
  S   S3        1.0  0.79000  0.24100  0.11900  1.0000
  S   S4        1.0  0.71000  0.74100  0.11900  1.0000
  S   S5        1.0  0.52600  0.39700  0.12600  1.0000
  S   S6        1.0  0.97400  0.89700  0.12600  1.0000
  S   S7        1.0  0.23600  0.48700  0.14100  1.0000
  S   S8        1.0  0.26400  0.98700  0.14100  1.0000
  S   S9        1.0  0.73000  0.49100  0.36300  1.0000
  S   S10       1.0  0.77000  0.99100  0.36300  1.0000
  S   S11       1.0  0.04840  0.12400  0.37500  1.0000
  S   S12       1.0  0.45200  0.62400  0.37500  1.0000
  S   S13       1.0  0.29100  0.26600  0.38100  1.0000
  S   S14       1.0  0.20900  0.76600  0.38100  1.0000
  S   S15       1.0  0.00986  0.38500  0.38300  1.0000
  S   S16       1.0  0.49000  0.88500  0.38300  1.0000
  S   S17       1.0  0.51000  0.38500  0.61700  1.0000
  S   S18       1.0  0.99000  0.88500  0.61700  1.0000
  S   S19       1.0  0.79100  0.26600  0.61900  1.0000
  S   S20       1.0  0.70900  0.76600  0.61900  1.0000
  S   S21       1.0  0.54800  0.12400  0.62500  1.0000
  S   S22       1.0  0.95200  0.62400  0.62500  1.0000
  S   S23       1.0  0.23000  0.49100  0.63700  1.0000
  S   S24       1.0  0.27000  0.99100  0.63700  1.0000
  S   S25       1.0  0.73600  0.48700  0.85900  1.0000
  S   S26       1.0  0.76400  0.98700  0.85900  1.0000
  S   S27       1.0  0.02600  0.39700  0.87400  1.0000
  S   S28       1.0  0.47400  0.89700  0.87400  1.0000
  S   S29       1.0  0.29000  0.24100  0.88100  1.0000
  S   S30       1.0  0.21000  0.74100  0.88100  1.0000
  S   S31       1.0  0.02880  0.13400  0.88300  1.0000
  S   S32       1.0  0.47100  0.63400  0.88300  1.0000
