data_image0
_chemical_formula_structural       Cs8O32P8Ti4
_chemical_formula_sum              "Cs8 O32 P8 Ti4"
_cell_length_a       7.21387
_cell_length_b       9.39902
_cell_length_c       13.2598
_cell_angle_alpha    90
_cell_angle_beta     90
_cell_angle_gamma    90

_space_group_name_H-M_alt    "P 1"
_space_group_IT_number       1

loop_
  _space_group_symop_operation_xyz
  'x, y, z'

loop_
  _atom_site_type_symbol
  _atom_site_label
  _atom_site_symmetry_multiplicity
  _atom_site_fract_x
  _atom_site_fract_y
  _atom_site_fract_z
  _atom_site_occupancy
  Cs  Cs1       1.0  0.77300  0.61400  0.08940  1.0000
  Cs  Cs2       1.0  0.26700  0.34000  0.10200  1.0000
  Cs  Cs3       1.0  0.73300  0.84000  0.39800  1.0000
  Cs  Cs4       1.0  0.22700  0.11400  0.41100  1.0000
  Cs  Cs5       1.0  0.72700  0.38600  0.58900  1.0000
  Cs  Cs6       1.0  0.23300  0.66000  0.60200  1.0000
  Cs  Cs7       1.0  0.76700  0.16000  0.89800  1.0000
  Cs  Cs8       1.0  0.27300  0.88600  0.91100  1.0000
  O   O1        1.0  0.04750  0.05430  0.04670  1.0000
  O   O2        1.0  0.51500  0.07730  0.06210  1.0000
  O   O3        1.0  0.18800  0.69200  0.08250  1.0000
  O   O4        1.0  0.78400  0.94100  0.14800  1.0000
  O   O5        1.0  0.47000  0.86800  0.18500  1.0000
  O   O6        1.0  0.94100  0.16600  0.21000  1.0000
  O   O7        1.0  0.10300  0.93200  0.21900  1.0000
  O   O8        1.0  0.42100  0.60300  0.24900  1.0000
  O   O9        1.0  0.57900  0.10300  0.25100  1.0000
  O   O10       1.0  0.89700  0.43200  0.28100  1.0000
  O   O11       1.0  0.05930  0.66600  0.29000  1.0000
  O   O12       1.0  0.53000  0.36800  0.31500  1.0000
  O   O13       1.0  0.21600  0.44100  0.35200  1.0000
  O   O14       1.0  0.81200  0.19200  0.41800  1.0000
  O   O15       1.0  0.48500  0.57700  0.43800  1.0000
  O   O16       1.0  0.95300  0.55400  0.45300  1.0000
  O   O17       1.0  0.45300  0.94600  0.54700  1.0000
  O   O18       1.0  0.98500  0.92300  0.56200  1.0000
  O   O19       1.0  0.31200  0.30800  0.58200  1.0000
  O   O20       1.0  0.71600  0.05900  0.64800  1.0000
  O   O21       1.0  0.02950  0.13200  0.68500  1.0000
  O   O22       1.0  0.55900  0.83400  0.71000  1.0000
  O   O23       1.0  0.39700  0.06840  0.71900  1.0000
  O   O24       1.0  0.07880  0.39700  0.74900  1.0000
  O   O25       1.0  0.92100  0.89700  0.75100  1.0000
  O   O26       1.0  0.60300  0.56800  0.78100  1.0000
  O   O27       1.0  0.44100  0.33400  0.79000  1.0000
  O   O28       1.0  0.97000  0.63200  0.81500  1.0000
  O   O29       1.0  0.28400  0.55900  0.85200  1.0000
  O   O30       1.0  0.68800  0.80800  0.91800  1.0000
  O   O31       1.0  0.01500  0.42300  0.93800  1.0000
  O   O32       1.0  0.54700  0.44600  0.95300  1.0000
  P   P1        1.0  0.98000  0.02720  0.15100  1.0000
  P   P2        1.0  0.57400  0.00485  0.15700  1.0000
  P   P3        1.0  0.42600  0.50500  0.34300  1.0000
  P   P4        1.0  0.02020  0.52700  0.34900  1.0000
  P   P5        1.0  0.52000  0.97300  0.65100  1.0000
  P   P6        1.0  0.92600  0.99500  0.65700  1.0000
  P   P7        1.0  0.07420  0.49500  0.84300  1.0000
  P   P8        1.0  0.48000  0.47300  0.84900  1.0000
  Ti  Ti1       1.0  0.24500  0.75300  0.19900  1.0000
  Ti  Ti2       1.0  0.75500  0.25300  0.30100  1.0000
  Ti  Ti3       1.0  0.25500  0.24700  0.69900  1.0000
  Ti  Ti4       1.0  0.74500  0.74700  0.80100  1.0000
