data_image0
_chemical_formula_structural       C32O16S8
_chemical_formula_sum              "C32 O16 S8"
_cell_length_a       13.9509
_cell_length_b       5.84016
_cell_length_c       9.43768
_cell_angle_alpha    90
_cell_angle_beta     90
_cell_angle_gamma    90

_space_group_name_H-M_alt    "P 1"
_space_group_IT_number       1

loop_
  _space_group_symop_operation_xyz
  'x, y, z'

loop_
  _atom_site_type_symbol
  _atom_site_label
  _atom_site_symmetry_multiplicity
  _atom_site_fract_x
  _atom_site_fract_y
  _atom_site_fract_z
  _atom_site_occupancy
  C   C1        1.0  0.29000  0.02770  0.15600  1.0000
  C   C2        1.0  0.79000  0.97200  0.15600  1.0000
  C   C3        1.0  0.33100  0.24800  0.22100  1.0000
  C   C4        1.0  0.83100  0.75200  0.22100  1.0000
  C   C5        1.0  0.19600  0.09210  0.22500  1.0000
  C   C6        1.0  0.69600  0.90800  0.22500  1.0000
  C   C7        1.0  0.23500  0.28900  0.28300  1.0000
  C   C8        1.0  0.73500  0.71100  0.28300  1.0000
  C   C9        1.0  0.03590  0.18600  0.34400  1.0000
  C   C10       1.0  0.53600  0.81400  0.34400  1.0000
  C   C11       1.0  0.07470  0.38400  0.40100  1.0000
  C   C12       1.0  0.57500  0.61600  0.40100  1.0000
  C   C13       1.0  0.93900  0.23200  0.40600  1.0000
  C   C14       1.0  0.43900  0.76800  0.40600  1.0000
  C   C15       1.0  0.98200  0.45300  0.46900  1.0000
  C   C16       1.0  0.48200  0.54700  0.46900  1.0000
  C   C17       1.0  0.21000  0.02770  0.65600  1.0000
  C   C18       1.0  0.71000  0.97200  0.65600  1.0000
  C   C19       1.0  0.16900  0.24800  0.72100  1.0000
  C   C20       1.0  0.66900  0.75200  0.72100  1.0000
  C   C21       1.0  0.30400  0.09210  0.72500  1.0000
  C   C22       1.0  0.80400  0.90800  0.72500  1.0000
  C   C23       1.0  0.26500  0.28900  0.78300  1.0000
  C   C24       1.0  0.76500  0.71100  0.78300  1.0000
  C   C25       1.0  0.46400  0.18600  0.84400  1.0000
  C   C26       1.0  0.96400  0.81400  0.84400  1.0000
  C   C27       1.0  0.42500  0.38400  0.90100  1.0000
  C   C28       1.0  0.92500  0.61600  0.90100  1.0000
  C   C29       1.0  0.56100  0.23200  0.90600  1.0000
  C   C30       1.0  0.06070  0.76800  0.90600  1.0000
  C   C31       1.0  0.51800  0.45300  0.96900  1.0000
  C   C32       1.0  0.01820  0.54700  0.96900  1.0000
  O   O1        1.0  0.04730  0.38900  0.04080  1.0000
  O   O2        1.0  0.54700  0.61100  0.04080  1.0000
  O   O3        1.0  0.82100  0.12800  0.08400  1.0000
  O   O4        1.0  0.32100  0.87200  0.08400  1.0000
  O   O5        1.0  0.40900  0.34400  0.22300  1.0000
  O   O6        1.0  0.90900  0.65600  0.22300  1.0000
  O   O7        1.0  0.86200  0.13600  0.40800  1.0000
  O   O8        1.0  0.36200  0.86400  0.40800  1.0000
  O   O9        1.0  0.45300  0.38900  0.54100  1.0000
  O   O10       1.0  0.95300  0.61100  0.54100  1.0000
  O   O11       1.0  0.67900  0.12800  0.58400  1.0000
  O   O12       1.0  0.17900  0.87200  0.58400  1.0000
  O   O13       1.0  0.09130  0.34400  0.72300  1.0000
  O   O14       1.0  0.59100  0.65600  0.72300  1.0000
  O   O15       1.0  0.63800  0.13600  0.90800  1.0000
  O   O16       1.0  0.13800  0.86400  0.90800  1.0000
  S   S1        1.0  0.58400  0.02610  0.24000  1.0000
  S   S2        1.0  0.08410  0.97400  0.24000  1.0000
  S   S3        1.0  0.18900  0.49600  0.39300  1.0000
  S   S4        1.0  0.68900  0.50400  0.39300  1.0000
  S   S5        1.0  0.91600  0.02610  0.74000  1.0000
  S   S6        1.0  0.41600  0.97400  0.74000  1.0000
  S   S7        1.0  0.31100  0.49600  0.89300  1.0000
  S   S8        1.0  0.81100  0.50400  0.89300  1.0000
