data_image0
_chemical_formula_structural       Co4Li4O36P12
_chemical_formula_sum              "Co4 Li4 O36 P12"
_cell_length_a       8.47414
_cell_length_b       8.57772
_cell_length_c       8.32409
_cell_angle_alpha    90
_cell_angle_beta     90
_cell_angle_gamma    90

_space_group_name_H-M_alt    "P 1"
_space_group_IT_number       1

loop_
  _space_group_symop_operation_xyz
  'x, y, z'

loop_
  _atom_site_type_symbol
  _atom_site_label
  _atom_site_symmetry_multiplicity
  _atom_site_fract_x
  _atom_site_fract_y
  _atom_site_fract_z
  _atom_site_occupancy
  Co  Co1       1.0  0.14200  0.15500  0.12900  1.0000
  Co  Co2       1.0  0.85800  0.65500  0.37100  1.0000
  Co  Co3       1.0  0.35800  0.84500  0.62900  1.0000
  Co  Co4       1.0  0.64200  0.34500  0.87100  1.0000
  Li  Li1       1.0  0.86400  0.38400  0.15100  1.0000
  Li  Li2       1.0  0.13600  0.88400  0.34900  1.0000
  Li  Li3       1.0  0.63600  0.61600  0.65100  1.0000
  Li  Li4       1.0  0.36400  0.11600  0.84900  1.0000
  O   O1        1.0  0.23100  0.64900  0.03940  1.0000
  O   O2        1.0  0.38400  0.13400  0.08770  1.0000
  O   O3        1.0  0.12400  0.91600  0.10800  1.0000
  O   O4        1.0  0.61900  0.32100  0.12100  1.0000
  O   O5        1.0  0.81200  0.62000  0.13000  1.0000
  O   O6        1.0  0.53600  0.73700  0.13800  1.0000
  O   O7        1.0  0.13500  0.39700  0.15800  1.0000
  O   O8        1.0  0.90600  0.15400  0.18700  1.0000
  O   O9        1.0  0.63300  0.04170  0.22400  1.0000
  O   O10       1.0  0.36700  0.54200  0.27600  1.0000
  O   O11       1.0  0.09400  0.65400  0.31300  1.0000
  O   O12       1.0  0.86500  0.89700  0.34200  1.0000
  O   O13       1.0  0.46400  0.23700  0.36200  1.0000
  O   O14       1.0  0.18800  0.12000  0.37000  1.0000
  O   O15       1.0  0.38100  0.82100  0.37900  1.0000
  O   O16       1.0  0.87600  0.41600  0.39200  1.0000
  O   O17       1.0  0.61600  0.63400  0.41200  1.0000
  O   O18       1.0  0.76900  0.14900  0.46100  1.0000
  O   O19       1.0  0.26900  0.35100  0.53900  1.0000
  O   O20       1.0  0.11600  0.86600  0.58800  1.0000
  O   O21       1.0  0.37600  0.08400  0.60800  1.0000
  O   O22       1.0  0.88100  0.67900  0.62100  1.0000
  O   O23       1.0  0.68800  0.38000  0.63000  1.0000
  O   O24       1.0  0.96400  0.26300  0.63800  1.0000
  O   O25       1.0  0.36500  0.60300  0.65800  1.0000
  O   O26       1.0  0.59400  0.84600  0.68700  1.0000
  O   O27       1.0  0.86700  0.95800  0.72400  1.0000
  O   O28       1.0  0.13300  0.45800  0.77600  1.0000
  O   O29       1.0  0.40600  0.34600  0.81300  1.0000
  O   O30       1.0  0.63500  0.10300  0.84200  1.0000
  O   O31       1.0  0.03550  0.76300  0.86200  1.0000
  O   O32       1.0  0.31200  0.88000  0.87000  1.0000
  O   O33       1.0  0.11900  0.17900  0.87900  1.0000
  O   O34       1.0  0.62400  0.58400  0.89200  1.0000
  O   O35       1.0  0.88400  0.36600  0.91200  1.0000
  O   O36       1.0  0.73100  0.85100  0.96100  1.0000
  P   P1        1.0  0.68100  0.68300  0.02790  1.0000
  P   P2        1.0  0.52100  0.18900  0.18500  1.0000
  P   P3        1.0  0.19200  0.55600  0.20300  1.0000
  P   P4        1.0  0.80800  0.05560  0.29700  1.0000
  P   P5        1.0  0.47900  0.68900  0.31500  1.0000
  P   P6        1.0  0.31900  0.18300  0.47200  1.0000
  P   P7        1.0  0.81900  0.31700  0.52800  1.0000
  P   P8        1.0  0.97900  0.81100  0.68500  1.0000
  P   P9        1.0  0.30800  0.44400  0.70300  1.0000
  P   P10       1.0  0.69200  0.94400  0.79700  1.0000
  P   P11       1.0  0.02090  0.31100  0.81500  1.0000
  P   P12       1.0  0.18100  0.81700  0.97200  1.0000
