data_image0
_chemical_formula_structural       Bi8O36Se12
_chemical_formula_sum              "Bi8 O36 Se12"
_cell_length_a       13.429
_cell_length_b       4.63051
_cell_length_c       14.8162
_cell_angle_alpha    90
_cell_angle_beta     115.353
_cell_angle_gamma    90

_space_group_name_H-M_alt    "P 1"
_space_group_IT_number       1

loop_
  _space_group_symop_operation_xyz
  'x, y, z'

loop_
  _atom_site_type_symbol
  _atom_site_label
  _atom_site_symmetry_multiplicity
  _atom_site_fract_x
  _atom_site_fract_y
  _atom_site_fract_z
  _atom_site_occupancy
  Bi  Bi1       1.0  0.81100  0.15200  0.15900  1.0000
  Bi  Bi2       1.0  0.35900  0.85300  0.19000  1.0000
  Bi  Bi3       1.0  0.14100  0.35300  0.31000  1.0000
  Bi  Bi4       1.0  0.68900  0.65200  0.34100  1.0000
  Bi  Bi5       1.0  0.31100  0.34800  0.65900  1.0000
  Bi  Bi6       1.0  0.85900  0.64700  0.69000  1.0000
  Bi  Bi7       1.0  0.64100  0.14700  0.81000  1.0000
  Bi  Bi8       1.0  0.18900  0.84800  0.84100  1.0000
  O   O1        1.0  0.18300  0.76300  0.01100  1.0000
  O   O2        1.0  0.62000  0.05530  0.05290  1.0000
  O   O3        1.0  0.80100  0.67800  0.09340  1.0000
  O   O4        1.0  0.32100  0.34800  0.10700  1.0000
  O   O5        1.0  0.06750  0.54000  0.14800  1.0000
  O   O6        1.0  0.53100  0.92700  0.18100  1.0000
  O   O7        1.0  0.19000  0.03080  0.20000  1.0000
  O   O8        1.0  0.00306  0.02250  0.20700  1.0000
  O   O9        1.0  0.67200  0.36000  0.20900  1.0000
  O   O10       1.0  0.82800  0.86000  0.29100  1.0000
  O   O11       1.0  0.49700  0.52200  0.29300  1.0000
  O   O12       1.0  0.31000  0.53100  0.30000  1.0000
  O   O13       1.0  0.96900  0.42700  0.31900  1.0000
  O   O14       1.0  0.43200  0.04030  0.35200  1.0000
  O   O15       1.0  0.17900  0.84800  0.39300  1.0000
  O   O16       1.0  0.69900  0.17800  0.40700  1.0000
  O   O17       1.0  0.88000  0.55500  0.44700  1.0000
  O   O18       1.0  0.31700  0.26300  0.48900  1.0000
  O   O19       1.0  0.68300  0.73700  0.51100  1.0000
  O   O20       1.0  0.12000  0.44500  0.55300  1.0000
  O   O21       1.0  0.30100  0.82200  0.59300  1.0000
  O   O22       1.0  0.82100  0.15200  0.60700  1.0000
  O   O23       1.0  0.56800  0.96000  0.64800  1.0000
  O   O24       1.0  0.03150  0.57300  0.68100  1.0000
  O   O25       1.0  0.69000  0.46900  0.70000  1.0000
  O   O26       1.0  0.50300  0.47800  0.70700  1.0000
  O   O27       1.0  0.17200  0.14000  0.70900  1.0000
  O   O28       1.0  0.32800  0.64000  0.79100  1.0000
  O   O29       1.0  0.99700  0.97800  0.79300  1.0000
  O   O30       1.0  0.81000  0.96900  0.80000  1.0000
  O   O31       1.0  0.46900  0.07280  0.81900  1.0000
  O   O32       1.0  0.93200  0.46000  0.85200  1.0000
  O   O33       1.0  0.67900  0.65200  0.89300  1.0000
  O   O34       1.0  0.19900  0.32200  0.90700  1.0000
  O   O35       1.0  0.38000  0.94500  0.94700  1.0000
  O   O36       1.0  0.81700  0.23700  0.98900  1.0000
  Se  Se1       1.0  0.18700  0.38700  0.01710  1.0000
  Se  Se2       1.0  0.55000  0.21300  0.11400  1.0000
  Se  Se3       1.0  0.05850  0.90500  0.12500  1.0000
  Se  Se4       1.0  0.44200  0.40500  0.37500  1.0000
  Se  Se5       1.0  0.95000  0.71300  0.38600  1.0000
  Se  Se6       1.0  0.31300  0.88700  0.48300  1.0000
  Se  Se7       1.0  0.68700  0.11300  0.51700  1.0000
  Se  Se8       1.0  0.05040  0.28700  0.61400  1.0000
  Se  Se9       1.0  0.55800  0.59500  0.62500  1.0000
  Se  Se10      1.0  0.94200  0.09540  0.87500  1.0000
  Se  Se11      1.0  0.45000  0.78700  0.88600  1.0000
  Se  Se12      1.0  0.81300  0.61300  0.98300  1.0000
