data_image0
_chemical_formula_structural       Ce4Ga16Na4S32
_chemical_formula_sum              "Ce4 Ga16 Na4 S32"
_cell_length_a       11.8867
_cell_length_b       11.9154
_cell_length_c       11.8867
_cell_angle_alpha    105.333
_cell_angle_beta     118.025
_cell_angle_gamma    105.333

_space_group_name_H-M_alt    "P 1"
_space_group_IT_number       1

loop_
  _space_group_symop_operation_xyz
  'x, y, z'

loop_
  _atom_site_type_symbol
  _atom_site_label
  _atom_site_symmetry_multiplicity
  _atom_site_fract_x
  _atom_site_fract_y
  _atom_site_fract_z
  _atom_site_occupancy
  Ce  Ce1       1.0  0.37500  0.25000  0.12500  1.0000
  Ce  Ce2       1.0  0.12500  0.75000  0.37500  1.0000
  Ce  Ce3       1.0  0.87500  0.25000  0.62500  1.0000
  Ce  Ce4       1.0  0.62500  0.75000  0.87500  1.0000
  Ga  Ga1       1.0  0.14000  0.49900  0.03100  1.0000
  Ga  Ga2       1.0  0.63800  0.50600  0.11600  1.0000
  Ga  Ga3       1.0  0.11100  0.99500  0.13300  1.0000
  Ga  Ga4       1.0  0.61600  0.00550  0.13800  1.0000
  Ga  Ga5       1.0  0.96800  0.99900  0.35900  1.0000
  Ga  Ga6       1.0  0.46900  0.00051  0.36000  1.0000
  Ga  Ga7       1.0  0.36700  0.50600  0.38900  1.0000
  Ga  Ga8       1.0  0.85900  0.49900  0.46800  1.0000
  Ga  Ga9       1.0  0.14100  0.50100  0.53200  1.0000
  Ga  Ga10      1.0  0.63300  0.49400  0.61100  1.0000
  Ga  Ga11      1.0  0.53100  0.99900  0.64000  1.0000
  Ga  Ga12      1.0  0.03150  0.00051  0.64100  1.0000
  Ga  Ga13      1.0  0.38400  0.99500  0.86200  1.0000
  Ga  Ga14      1.0  0.88900  0.00550  0.86700  1.0000
  Ga  Ga15      1.0  0.36200  0.49400  0.88400  1.0000
  Ga  Ga16      1.0  0.86000  0.50100  0.96900  1.0000
  Na  Na1       1.0  0.87900  0.25800  0.12900  1.0000
  Na  Na2       1.0  0.62900  0.75800  0.37900  1.0000
  Na  Na3       1.0  0.37100  0.24200  0.62100  1.0000
  Na  Na4       1.0  0.12100  0.74200  0.87100  1.0000
  S   S1        1.0  0.58100  0.66900  0.07750  1.0000
  S   S2        1.0  0.57800  0.16900  0.08100  1.0000
  S   S3        1.0  0.09160  0.16900  0.08810  1.0000
  S   S4        1.0  0.08560  0.67000  0.08890  1.0000
  S   S5        1.0  0.31500  0.99700  0.15100  1.0000
  S   S6        1.0  0.81700  0.00266  0.15400  1.0000
  S   S7        1.0  0.84500  0.50600  0.15800  1.0000
  S   S8        1.0  0.34900  0.50300  0.18500  1.0000
  S   S9        1.0  0.65400  0.50300  0.31700  1.0000
  S   S10       1.0  0.15200  0.99400  0.33900  1.0000
  S   S11       1.0  0.65800  0.00581  0.34500  1.0000
  S   S12       1.0  0.16100  0.50600  0.34800  1.0000
  S   S13       1.0  0.41200  0.33100  0.40800  1.0000
  S   S14       1.0  0.41100  0.83000  0.41400  1.0000
  S   S15       1.0  0.91900  0.83000  0.41600  1.0000
  S   S16       1.0  0.91600  0.33000  0.41900  1.0000
  S   S17       1.0  0.08410  0.67000  0.58100  1.0000
  S   S18       1.0  0.08080  0.17000  0.58400  1.0000
  S   S19       1.0  0.58900  0.17000  0.58600  1.0000
  S   S20       1.0  0.58800  0.66900  0.59200  1.0000
  S   S21       1.0  0.83900  0.49400  0.65200  1.0000
  S   S22       1.0  0.34200  0.99400  0.65500  1.0000
  S   S23       1.0  0.84800  0.00581  0.66100  1.0000
  S   S24       1.0  0.34600  0.49700  0.68300  1.0000
  S   S25       1.0  0.65100  0.49700  0.81500  1.0000
  S   S26       1.0  0.15500  0.49400  0.84200  1.0000
  S   S27       1.0  0.18300  0.99700  0.84600  1.0000
  S   S28       1.0  0.68500  0.00266  0.84900  1.0000
  S   S29       1.0  0.91400  0.33000  0.91100  1.0000
  S   S30       1.0  0.90800  0.83100  0.91200  1.0000
  S   S31       1.0  0.42200  0.83100  0.91900  1.0000
  S   S32       1.0  0.41900  0.33100  0.92200  1.0000
