data_image0
_chemical_formula_structural       Ba12I38Pr6
_chemical_formula_sum              "Ba12 I38 Pr6"
_cell_length_a       10.3035
_cell_length_b       10.3035
_cell_length_c       22.9445
_cell_angle_alpha    93.9302
_cell_angle_beta     93.9302
_cell_angle_gamma    76.1252

_space_group_name_H-M_alt    "P 1"
_space_group_IT_number       1

loop_
  _space_group_symop_operation_xyz
  'x, y, z'

loop_
  _atom_site_type_symbol
  _atom_site_label
  _atom_site_symmetry_multiplicity
  _atom_site_fract_x
  _atom_site_fract_y
  _atom_site_fract_z
  _atom_site_occupancy
  Ba  Ba1       1.0  0.41300  0.26700  0.03790  1.0000
  Ba  Ba2       1.0  0.08630  0.85400  0.10500  1.0000
  Ba  Ba3       1.0  0.58100  0.78400  0.21600  1.0000
  Ba  Ba4       1.0  0.21600  0.41900  0.28400  1.0000
  Ba  Ba5       1.0  0.14600  0.91400  0.39500  1.0000
  Ba  Ba6       1.0  0.73300  0.58700  0.46200  1.0000
  Ba  Ba7       1.0  0.26700  0.41300  0.53800  1.0000
  Ba  Ba8       1.0  0.85400  0.08630  0.60500  1.0000
  Ba  Ba9       1.0  0.78400  0.58100  0.71600  1.0000
  Ba  Ba10      1.0  0.41900  0.21600  0.78400  1.0000
  Ba  Ba11      1.0  0.91400  0.14600  0.89500  1.0000
  Ba  Ba12      1.0  0.58700  0.73300  0.96200  1.0000
  I   I1        1.0  0.30200  0.61500  0.00400  1.0000
  I   I2        1.0  0.07410  0.16000  0.03490  1.0000
  I   I3        1.0  0.41700  0.92900  0.08590  1.0000
  I   I4        1.0  0.79900  0.68900  0.09840  1.0000
  I   I5        1.0  0.75600  0.09500  0.11600  1.0000
  I   I6        1.0  0.16100  0.46100  0.13300  1.0000
  I   I7        1.0  0.55600  0.45800  0.15900  1.0000
  I   I8        1.0  0.06990  0.15400  0.21400  1.0000
  I   I9        1.0  0.47700  0.13600  0.24400  1.0000
  I   I10       1.0  0.24500  0.75500  0.25000  1.0000
  I   I11       1.0  0.86400  0.52300  0.25600  1.0000
  I   I12       1.0  0.84600  0.93000  0.28600  1.0000
  I   I13       1.0  0.54200  0.44400  0.34100  1.0000
  I   I14       1.0  0.53900  0.83900  0.36700  1.0000
  I   I15       1.0  0.90500  0.24400  0.38400  1.0000
  I   I16       1.0  0.31100  0.20100  0.40200  1.0000
  I   I17       1.0  0.07070  0.58300  0.41400  1.0000
  I   I18       1.0  0.84000  0.92600  0.46500  1.0000
  I   I19       1.0  0.38500  0.69800  0.49600  1.0000
  I   I20       1.0  0.61500  0.30200  0.50400  1.0000
  I   I21       1.0  0.16000  0.07410  0.53500  1.0000
  I   I22       1.0  0.92900  0.41700  0.58600  1.0000
  I   I23       1.0  0.68900  0.79900  0.59800  1.0000
  I   I24       1.0  0.09500  0.75600  0.61600  1.0000
  I   I25       1.0  0.46100  0.16100  0.63300  1.0000
  I   I26       1.0  0.45800  0.55600  0.65900  1.0000
  I   I27       1.0  0.15400  0.06990  0.71400  1.0000
  I   I28       1.0  0.13600  0.47700  0.74400  1.0000
  I   I29       1.0  0.75500  0.24500  0.75000  1.0000
  I   I30       1.0  0.52300  0.86400  0.75600  1.0000
  I   I31       1.0  0.93000  0.84600  0.78600  1.0000
  I   I32       1.0  0.44400  0.54200  0.84100  1.0000
  I   I33       1.0  0.83900  0.53900  0.86700  1.0000
  I   I34       1.0  0.24400  0.90500  0.88400  1.0000
  I   I35       1.0  0.20100  0.31100  0.90200  1.0000
  I   I36       1.0  0.58300  0.07070  0.91400  1.0000
  I   I37       1.0  0.92600  0.84000  0.96500  1.0000
  I   I38       1.0  0.69800  0.38500  0.99600  1.0000
  Pr  Pr1       1.0  0.87400  0.36500  0.12500  1.0000
  Pr  Pr2       1.0  0.75400  0.24600  0.25000  1.0000
  Pr  Pr3       1.0  0.63500  0.12600  0.37500  1.0000
  Pr  Pr4       1.0  0.36500  0.87400  0.62500  1.0000
  Pr  Pr5       1.0  0.24600  0.75400  0.75000  1.0000
  Pr  Pr6       1.0  0.12600  0.63500  0.87500  1.0000
