data_image0
_chemical_formula_structural       In16S32Sr8
_chemical_formula_sum              "In16 S32 Sr8"
_cell_length_a       12.4568
_cell_length_b       12.4568
_cell_length_c       12.542
_cell_angle_alpha    106.094
_cell_angle_beta     106.094
_cell_angle_gamma    116.218

_space_group_name_H-M_alt    "P 1"
_space_group_IT_number       1

loop_
  _space_group_symop_operation_xyz
  'x, y, z'

loop_
  _atom_site_type_symbol
  _atom_site_label
  _atom_site_symmetry_multiplicity
  _atom_site_fract_x
  _atom_site_fract_y
  _atom_site_fract_z
  _atom_site_occupancy
  In  In1       1.0  0.13700  0.13900  0.02510  1.0000
  In  In2       1.0  0.38800  0.88600  0.02510  1.0000
  In  In3       1.0  0.96300  0.46200  0.10700  1.0000
  In  In4       1.0  0.64400  0.64500  0.10700  1.0000
  In  In5       1.0  0.53800  0.03710  0.39300  1.0000
  In  In6       1.0  0.35500  0.35600  0.39300  1.0000
  In  In7       1.0  0.11400  0.61200  0.47500  1.0000
  In  In8       1.0  0.86100  0.86300  0.47500  1.0000
  In  In9       1.0  0.13900  0.13700  0.52500  1.0000
  In  In10      1.0  0.88600  0.38800  0.52500  1.0000
  In  In11      1.0  0.64500  0.64400  0.60700  1.0000
  In  In12      1.0  0.46200  0.96300  0.60700  1.0000
  In  In13      1.0  0.35600  0.35500  0.89300  1.0000
  In  In14      1.0  0.03710  0.53800  0.89300  1.0000
  In  In15      1.0  0.61200  0.11400  0.97500  1.0000
  In  In16      1.0  0.86300  0.86100  0.97500  1.0000
  S   S1        1.0  0.41000  0.08680  0.00025  1.0000
  S   S2        1.0  0.09020  0.91300  0.00025  1.0000
  S   S3        1.0  0.58800  0.41100  0.00111  1.0000
  S   S4        1.0  0.91300  0.59100  0.00111  1.0000
  S   S5        1.0  0.81600  0.31900  0.17300  1.0000
  S   S6        1.0  0.85700  0.85400  0.17300  1.0000
  S   S7        1.0  0.34800  0.35200  0.18800  1.0000
  S   S8        1.0  0.34000  0.83600  0.18800  1.0000
  S   S9        1.0  0.64800  0.65200  0.31200  1.0000
  S   S10       1.0  0.16400  0.66000  0.31200  1.0000
  S   S11       1.0  0.14600  0.14300  0.32700  1.0000
  S   S12       1.0  0.68100  0.18400  0.32700  1.0000
  S   S13       1.0  0.40900  0.08730  0.49900  1.0000
  S   S14       1.0  0.58900  0.41200  0.49900  1.0000
  S   S15       1.0  0.91300  0.59000  0.50000  1.0000
  S   S16       1.0  0.08650  0.91000  0.50000  1.0000
  S   S17       1.0  0.91300  0.09020  0.50000  1.0000
  S   S18       1.0  0.08680  0.41000  0.50000  1.0000
  S   S19       1.0  0.41100  0.58800  0.50100  1.0000
  S   S20       1.0  0.59100  0.91300  0.50100  1.0000
  S   S21       1.0  0.31900  0.81600  0.67300  1.0000
  S   S22       1.0  0.85400  0.85700  0.67300  1.0000
  S   S23       1.0  0.83600  0.34000  0.68800  1.0000
  S   S24       1.0  0.35200  0.34800  0.68800  1.0000
  S   S25       1.0  0.66000  0.16400  0.81200  1.0000
  S   S26       1.0  0.65200  0.64800  0.81200  1.0000
  S   S27       1.0  0.14300  0.14600  0.82700  1.0000
  S   S28       1.0  0.18400  0.68100  0.82700  1.0000
  S   S29       1.0  0.08730  0.40900  0.99900  1.0000
  S   S30       1.0  0.41200  0.58900  0.99900  1.0000
  S   S31       1.0  0.91000  0.08650  0.00000  1.0000
  S   S32       1.0  0.59000  0.91300  0.00000  1.0000
  Sr  Sr1       1.0  0.87500  0.12500  0.25000  1.0000
  Sr  Sr2       1.0  0.62200  0.37800  0.25000  1.0000
  Sr  Sr3       1.0  0.37500  0.62500  0.25000  1.0000
  Sr  Sr4       1.0  0.12800  0.87200  0.25000  1.0000
  Sr  Sr5       1.0  0.87200  0.12800  0.75000  1.0000
  Sr  Sr6       1.0  0.62500  0.37500  0.75000  1.0000
  Sr  Sr7       1.0  0.37800  0.62200  0.75000  1.0000
  Sr  Sr8       1.0  0.12500  0.87500  0.75000  1.0000
