data_image0
_chemical_formula_structural       Al4Be6O36Si12
_chemical_formula_sum              "Al4 Be6 O36 Si12"
_cell_length_a       9.22184
_cell_length_b       9.22184
_cell_length_c       9.18501
_cell_angle_alpha    90
_cell_angle_beta     90
_cell_angle_gamma    120

_space_group_name_H-M_alt    "P 1"
_space_group_IT_number       1

loop_
  _space_group_symop_operation_xyz
  'x, y, z'

loop_
  _atom_site_type_symbol
  _atom_site_label
  _atom_site_symmetry_multiplicity
  _atom_site_fract_x
  _atom_site_fract_y
  _atom_site_fract_z
  _atom_site_occupancy
  Al  Al1       1.0  0.66700  0.33300  0.25000  1.0000
  Al  Al2       1.0  0.33300  0.66700  0.25000  1.0000
  Al  Al3       1.0  0.66700  0.33300  0.75000  1.0000
  Al  Al4       1.0  0.33300  0.66700  0.75000  1.0000
  Be  Be1       1.0  0.50000  0.00000  0.25000  1.0000
  Be  Be2       1.0  0.50000  0.50000  0.25000  1.0000
  Be  Be3       1.0  0.00000  0.50000  0.25000  1.0000
  Be  Be4       1.0  0.50000  0.00000  0.75000  1.0000
  Be  Be5       1.0  0.50000  0.50000  0.75000  1.0000
  Be  Be6       1.0  0.00000  0.50000  0.75000  1.0000
  O   O1        1.0  0.76500  0.07320  0.00000  1.0000
  O   O2        1.0  0.30800  0.23500  0.00000  1.0000
  O   O3        1.0  0.07320  0.30800  0.00000  1.0000
  O   O4        1.0  0.92700  0.69200  0.00000  1.0000
  O   O5        1.0  0.69200  0.76500  0.00000  1.0000
  O   O6        1.0  0.23500  0.92700  0.00000  1.0000
  O   O7        1.0  0.85500  0.35400  0.14600  1.0000
  O   O8        1.0  0.49900  0.14500  0.14600  1.0000
  O   O9        1.0  0.35400  0.49900  0.14600  1.0000
  O   O10       1.0  0.64600  0.50100  0.14600  1.0000
  O   O11       1.0  0.14500  0.64600  0.14600  1.0000
  O   O12       1.0  0.50100  0.85500  0.14600  1.0000
  O   O13       1.0  0.50100  0.64600  0.35400  1.0000
  O   O14       1.0  0.64600  0.14500  0.35400  1.0000
  O   O15       1.0  0.49900  0.35400  0.35400  1.0000
  O   O16       1.0  0.14500  0.49900  0.35400  1.0000
  O   O17       1.0  0.85500  0.50100  0.35400  1.0000
  O   O18       1.0  0.35400  0.85500  0.35400  1.0000
  O   O19       1.0  0.30800  0.07320  0.50000  1.0000
  O   O20       1.0  0.92700  0.23500  0.50000  1.0000
  O   O21       1.0  0.23500  0.30800  0.50000  1.0000
  O   O22       1.0  0.76500  0.69200  0.50000  1.0000
  O   O23       1.0  0.07320  0.76500  0.50000  1.0000
  O   O24       1.0  0.69200  0.92700  0.50000  1.0000
  O   O25       1.0  0.64600  0.14500  0.64600  1.0000
  O   O26       1.0  0.49900  0.35400  0.64600  1.0000
  O   O27       1.0  0.14500  0.49900  0.64600  1.0000
  O   O28       1.0  0.85500  0.50100  0.64600  1.0000
  O   O29       1.0  0.35400  0.85500  0.64600  1.0000
  O   O30       1.0  0.50100  0.64600  0.64600  1.0000
  O   O31       1.0  0.64600  0.50100  0.85400  1.0000
  O   O32       1.0  0.49900  0.14500  0.85400  1.0000
  O   O33       1.0  0.85500  0.35400  0.85400  1.0000
  O   O34       1.0  0.35400  0.49900  0.85400  1.0000
  O   O35       1.0  0.14500  0.64600  0.85400  1.0000
  O   O36       1.0  0.50100  0.85500  0.85400  1.0000
  Si  Si1       1.0  0.38800  0.11600  0.00000  1.0000
  Si  Si2       1.0  0.88400  0.27200  0.00000  1.0000
  Si  Si3       1.0  0.27200  0.38800  0.00000  1.0000
  Si  Si4       1.0  0.72800  0.61200  0.00000  1.0000
  Si  Si5       1.0  0.11600  0.72800  0.00000  1.0000
  Si  Si6       1.0  0.61200  0.88400  0.00000  1.0000
  Si  Si7       1.0  0.72800  0.11600  0.50000  1.0000
  Si  Si8       1.0  0.38800  0.27200  0.50000  1.0000
  Si  Si9       1.0  0.11600  0.38800  0.50000  1.0000
  Si  Si10      1.0  0.88400  0.61200  0.50000  1.0000
  Si  Si11      1.0  0.61200  0.72800  0.50000  1.0000
  Si  Si12      1.0  0.27200  0.88400  0.50000  1.0000
