data_image0
_chemical_formula_structural       Cu28P4Se24
_chemical_formula_sum              "Cu28 P4 Se24"
_cell_length_a       14.393
_cell_length_b       7.14695
_cell_length_c       10.1124
_cell_angle_alpha    90
_cell_angle_beta     90
_cell_angle_gamma    90

_space_group_name_H-M_alt    "P 1"
_space_group_IT_number       1

loop_
  _space_group_symop_operation_xyz
  'x, y, z'

loop_
  _atom_site_type_symbol
  _atom_site_label
  _atom_site_symmetry_multiplicity
  _atom_site_fract_x
  _atom_site_fract_y
  _atom_site_fract_z
  _atom_site_occupancy
  Cu  Cu1       1.0  0.73400  0.04040  0.00298  1.0000
  Cu  Cu2       1.0  0.23400  0.46000  0.00298  1.0000
  Cu  Cu3       1.0  0.26800  0.08670  0.04510  1.0000
  Cu  Cu4       1.0  0.76800  0.41300  0.04510  1.0000
  Cu  Cu5       1.0  0.95900  0.07520  0.08540  1.0000
  Cu  Cu6       1.0  0.45900  0.42500  0.08540  1.0000
  Cu  Cu7       1.0  0.71200  0.22200  0.24400  1.0000
  Cu  Cu8       1.0  0.21200  0.27800  0.24400  1.0000
  Cu  Cu9       1.0  0.87800  0.68400  0.27300  1.0000
  Cu  Cu10      1.0  0.37800  0.81600  0.27300  1.0000
  Cu  Cu11      1.0  0.84900  0.01870  0.36000  1.0000
  Cu  Cu12      1.0  0.34900  0.48100  0.36000  1.0000
  Cu  Cu13      1.0  0.44400  0.06120  0.42700  1.0000
  Cu  Cu14      1.0  0.94400  0.43900  0.42700  1.0000
  Cu  Cu15      1.0  0.76600  0.54000  0.50300  1.0000
  Cu  Cu16      1.0  0.26600  0.96000  0.50300  1.0000
  Cu  Cu17      1.0  0.23200  0.58700  0.54500  1.0000
  Cu  Cu18      1.0  0.73200  0.91300  0.54500  1.0000
  Cu  Cu19      1.0  0.54100  0.57500  0.58500  1.0000
  Cu  Cu20      1.0  0.04080  0.92500  0.58500  1.0000
  Cu  Cu21      1.0  0.78800  0.72200  0.74400  1.0000
  Cu  Cu22      1.0  0.28800  0.77800  0.74400  1.0000
  Cu  Cu23      1.0  0.62200  0.18400  0.77300  1.0000
  Cu  Cu24      1.0  0.12200  0.31600  0.77300  1.0000
  Cu  Cu25      1.0  0.65100  0.51900  0.86000  1.0000
  Cu  Cu26      1.0  0.15100  0.98100  0.86000  1.0000
  Cu  Cu27      1.0  0.05590  0.56100  0.92700  1.0000
  Cu  Cu28      1.0  0.55600  0.93900  0.92700  1.0000
  P   P1        1.0  0.62500  0.74800  0.25300  1.0000
  P   P2        1.0  0.12500  0.75200  0.25300  1.0000
  P   P3        1.0  0.87500  0.24800  0.75300  1.0000
  P   P4        1.0  0.37500  0.25200  0.75300  1.0000
  Se  Se1       1.0  0.11000  0.23300  0.00818  1.0000
  Se  Se2       1.0  0.61000  0.26700  0.00818  1.0000
  Se  Se3       1.0  0.50300  0.74900  0.11600  1.0000
  Se  Se4       1.0  0.00252  0.75100  0.11600  1.0000
  Se  Se5       1.0  0.75100  0.74600  0.12300  1.0000
  Se  Se6       1.0  0.25100  0.75400  0.12300  1.0000
  Se  Se7       1.0  0.37800  0.21500  0.23100  1.0000
  Se  Se8       1.0  0.87800  0.28500  0.23100  1.0000
  Se  Se9       1.0  0.61900  0.00977  0.37600  1.0000
  Se  Se10      1.0  0.11900  0.49000  0.37600  1.0000
  Se  Se11      1.0  0.12600  0.00886  0.37800  1.0000
  Se  Se12      1.0  0.62600  0.49100  0.37800  1.0000
  Se  Se13      1.0  0.39000  0.73300  0.50800  1.0000
  Se  Se14      1.0  0.89000  0.76700  0.50800  1.0000
  Se  Se15      1.0  0.99700  0.24900  0.61600  1.0000
  Se  Se16      1.0  0.49700  0.25100  0.61600  1.0000
  Se  Se17      1.0  0.74900  0.24600  0.62300  1.0000
  Se  Se18      1.0  0.24900  0.25400  0.62300  1.0000
  Se  Se19      1.0  0.12200  0.71500  0.73100  1.0000
  Se  Se20      1.0  0.62200  0.78500  0.73100  1.0000
  Se  Se21      1.0  0.88100  0.51000  0.87600  1.0000
  Se  Se22      1.0  0.38100  0.99000  0.87600  1.0000
  Se  Se23      1.0  0.37400  0.50900  0.87800  1.0000
  Se  Se24      1.0  0.87400  0.99100  0.87800  1.0000
