data_image0
_chemical_formula_structural       H20O26Se4V4
_chemical_formula_sum              "H20 O26 Se4 V4"
_cell_length_a       6.23973
_cell_length_b       9.60228
_cell_length_c       10.0063
_cell_angle_alpha    113.149
_cell_angle_beta     90
_cell_angle_gamma    108.96

_space_group_name_H-M_alt    "P 1"
_space_group_IT_number       1

loop_
  _space_group_symop_operation_xyz
  'x, y, z'

loop_
  _atom_site_type_symbol
  _atom_site_label
  _atom_site_symmetry_multiplicity
  _atom_site_fract_x
  _atom_site_fract_y
  _atom_site_fract_z
  _atom_site_occupancy
  H   H1        1.0  0.84500  0.06450  0.05580  1.0000
  H   H2        1.0  0.63800  0.97200  0.12700  1.0000
  H   H3        1.0  0.58700  0.62200  0.12800  1.0000
  H   H4        1.0  0.85600  0.73100  0.15400  1.0000
  H   H5        1.0  0.34300  0.90600  0.23600  1.0000
  H   H6        1.0  0.43700  0.09430  0.26400  1.0000
  H   H7        1.0  0.12500  0.26900  0.34600  1.0000
  H   H8        1.0  0.96500  0.37800  0.37200  1.0000
  H   H9        1.0  0.66600  0.02800  0.37300  1.0000
  H   H10       1.0  0.78000  0.93600  0.44400  1.0000
  H   H11       1.0  0.22000  0.06450  0.55600  1.0000
  H   H12       1.0  0.33400  0.97200  0.62700  1.0000
  H   H13       1.0  0.03520  0.62200  0.62800  1.0000
  H   H14       1.0  0.87500  0.73100  0.65400  1.0000
  H   H15       1.0  0.56300  0.90600  0.73600  1.0000
  H   H16       1.0  0.65700  0.09430  0.76400  1.0000
  H   H17       1.0  0.14400  0.26900  0.84600  1.0000
  H   H18       1.0  0.41300  0.37800  0.87200  1.0000
  H   H19       1.0  0.36200  0.02800  0.87300  1.0000
  H   H20       1.0  0.15500  0.93600  0.94400  1.0000
  O   O1        1.0  0.63500  0.28400  0.03440  1.0000
  O   O2        1.0  0.75600  0.95700  0.05740  1.0000
  O   O3        1.0  0.71300  0.67100  0.08140  1.0000
  O   O4        1.0  0.00311  0.24300  0.09360  1.0000
  O   O5        1.0  0.41100  0.51300  0.20600  1.0000
  O   O6        1.0  0.11700  0.76300  0.24800  1.0000
  O   O7        1.0  0.48500  0.00000  0.25000  1.0000
  O   O8        1.0  0.35400  0.23700  0.25200  1.0000
  O   O9        1.0  0.89800  0.48700  0.29400  1.0000
  O   O10       1.0  0.76100  0.75700  0.40600  1.0000
  O   O11       1.0  0.04200  0.32900  0.41900  1.0000
  O   O12       1.0  0.79900  0.04310  0.44300  1.0000
  O   O13       1.0  0.35100  0.71600  0.46600  1.0000
  O   O14       1.0  0.64900  0.28400  0.53400  1.0000
  O   O15       1.0  0.20100  0.95700  0.55700  1.0000
  O   O16       1.0  0.95800  0.67100  0.58100  1.0000
  O   O17       1.0  0.23900  0.24300  0.59400  1.0000
  O   O18       1.0  0.10200  0.51300  0.70600  1.0000
  O   O19       1.0  0.64600  0.76300  0.74800  1.0000
  O   O20       1.0  0.51500  0.00000  0.75000  1.0000
  O   O21       1.0  0.88300  0.23700  0.75200  1.0000
  O   O22       1.0  0.58900  0.48700  0.79400  1.0000
  O   O23       1.0  0.99700  0.75700  0.90600  1.0000
  O   O24       1.0  0.28700  0.32900  0.91900  1.0000
  O   O25       1.0  0.24400  0.04310  0.94300  1.0000
  O   O26       1.0  0.36500  0.71600  0.96600  1.0000
  Se  Se1       1.0  0.91300  0.40100  0.10600  1.0000
  Se  Se2       1.0  0.51200  0.59900  0.39400  1.0000
  Se  Se3       1.0  0.48800  0.40100  0.60600  1.0000
  Se  Se4       1.0  0.08660  0.59900  0.89400  1.0000
  V   V1        1.0  0.33500  0.26900  0.09900  1.0000
  V   V2        1.0  0.06580  0.73100  0.40100  1.0000
  V   V3        1.0  0.93400  0.26900  0.59900  1.0000
  V   V4        1.0  0.66500  0.73100  0.90100  1.0000
