data_image0
_chemical_formula_structural       F28H20K8
_chemical_formula_sum              "F28 H20 K8"
_cell_length_a       7.90891
_cell_length_b       7.93408
_cell_length_c       9.58647
_cell_angle_alpha    90
_cell_angle_beta     101.616
_cell_angle_gamma    90

_space_group_name_H-M_alt    "P 1"
_space_group_IT_number       1

loop_
  _space_group_symop_operation_xyz
  'x, y, z'

loop_
  _atom_site_type_symbol
  _atom_site_label
  _atom_site_symmetry_multiplicity
  _atom_site_fract_x
  _atom_site_fract_y
  _atom_site_fract_z
  _atom_site_occupancy
  F   F1        1.0  0.40300  0.03640  0.11600  1.0000
  F   F2        1.0  0.90300  0.46400  0.11600  1.0000
  F   F3        1.0  0.40300  0.45800  0.11600  1.0000
  F   F4        1.0  0.90300  0.04220  0.11600  1.0000
  F   F5        1.0  0.65800  0.76700  0.14200  1.0000
  F   F6        1.0  0.15800  0.73300  0.14200  1.0000
  F   F7        1.0  0.70700  0.33300  0.32600  1.0000
  F   F8        1.0  0.20700  0.16700  0.32600  1.0000
  F   F9        1.0  0.56900  0.99200  0.34900  1.0000
  F   F10       1.0  0.06910  0.50800  0.34900  1.0000
  F   F11       1.0  0.35700  0.50900  0.35000  1.0000
  F   F12       1.0  0.85700  0.99100  0.35000  1.0000
  F   F13       1.0  0.21600  0.87800  0.35900  1.0000
  F   F14       1.0  0.71600  0.62200  0.35900  1.0000
  F   F15       1.0  0.78400  0.12200  0.64100  1.0000
  F   F16       1.0  0.28400  0.37800  0.64100  1.0000
  F   F17       1.0  0.64300  0.49100  0.65000  1.0000
  F   F18       1.0  0.14300  0.00909  0.65000  1.0000
  F   F19       1.0  0.43100  0.00812  0.65100  1.0000
  F   F20       1.0  0.93100  0.49200  0.65100  1.0000
  F   F21       1.0  0.29300  0.66700  0.67400  1.0000
  F   F22       1.0  0.79300  0.83300  0.67400  1.0000
  F   F23       1.0  0.34200  0.23300  0.85800  1.0000
  F   F24       1.0  0.84200  0.26700  0.85800  1.0000
  F   F25       1.0  0.09710  0.95800  0.88400  1.0000
  F   F26       1.0  0.59700  0.54200  0.88400  1.0000
  F   F27       1.0  0.59700  0.96400  0.88400  1.0000
  F   F28       1.0  0.09660  0.53600  0.88400  1.0000
  H   H1        1.0  0.97100  0.48800  0.21300  1.0000
  H   H2        1.0  0.47100  0.01160  0.21300  1.0000
  H   H3        1.0  0.38600  0.48500  0.21400  1.0000
  H   H4        1.0  0.88600  0.01550  0.21400  1.0000
  H   H5        1.0  0.68300  0.70100  0.23400  1.0000
  H   H6        1.0  0.18300  0.79900  0.23400  1.0000
  H   H7        1.0  0.21000  0.03510  0.33700  1.0000
  H   H8        1.0  0.71000  0.46500  0.33700  1.0000
  H   H9        1.0  0.71200  0.99200  0.34700  1.0000
  H   H10       1.0  0.21200  0.50800  0.34700  1.0000
  H   H11       1.0  0.28800  0.00794  0.65300  1.0000
  H   H12       1.0  0.78800  0.49200  0.65300  1.0000
  H   H13       1.0  0.79000  0.96500  0.66300  1.0000
  H   H14       1.0  0.29000  0.53500  0.66300  1.0000
  H   H15       1.0  0.31700  0.29900  0.76600  1.0000
  H   H16       1.0  0.81700  0.20100  0.76600  1.0000
  H   H17       1.0  0.61400  0.51500  0.78600  1.0000
  H   H18       1.0  0.11400  0.98500  0.78600  1.0000
  H   H19       1.0  0.52900  0.98800  0.78700  1.0000
  H   H20       1.0  0.02880  0.51200  0.78700  1.0000
  K   K1        1.0  0.63500  0.25800  0.03970  1.0000
  K   K2        1.0  0.13500  0.24200  0.03970  1.0000
  K   K3        1.0  0.49800  0.25000  0.49300  1.0000
  K   K4        1.0  0.99800  0.25000  0.49300  1.0000
  K   K5        1.0  0.50200  0.75000  0.50700  1.0000
  K   K6        1.0  0.00246  0.75000  0.50700  1.0000
  K   K7        1.0  0.36500  0.74200  0.96000  1.0000
  K   K8        1.0  0.86500  0.75800  0.96000  1.0000
