data_image0
_chemical_formula_structural       Al2Ca4Na10O32P8
_chemical_formula_sum              "Al2 Ca4 Na10 O32 P8"
_cell_length_a       8.82008
_cell_length_b       8.82008
_cell_length_c       10.4263
_cell_angle_alpha    107.553
_cell_angle_beta     107.553
_cell_angle_gamma    103.328

_space_group_name_H-M_alt    "P 1"
_space_group_IT_number       1

loop_
  _space_group_symop_operation_xyz
  'x, y, z'

loop_
  _atom_site_type_symbol
  _atom_site_label
  _atom_site_symmetry_multiplicity
  _atom_site_fract_x
  _atom_site_fract_y
  _atom_site_fract_z
  _atom_site_occupancy
  Al  Al1       1.0  0.59500  0.07590  0.16500  1.0000
  Al  Al2       1.0  0.07590  0.59500  0.66500  1.0000
  Ca  Ca1       1.0  0.66200  0.44300  0.02800  1.0000
  Ca  Ca2       1.0  0.98500  0.19900  0.07560  1.0000
  Ca  Ca3       1.0  0.44300  0.66200  0.52800  1.0000
  Ca  Ca4       1.0  0.19900  0.98500  0.57600  1.0000
  Na  Na1       1.0  0.18700  0.92700  0.01350  1.0000
  Na  Na2       1.0  0.42200  0.68600  0.05620  1.0000
  Na  Na3       1.0  0.11800  0.75700  0.22600  1.0000
  Na  Na4       1.0  0.73000  0.71400  0.36900  1.0000
  Na  Na5       1.0  0.25500  0.22200  0.38100  1.0000
  Na  Na6       1.0  0.92700  0.18700  0.51400  1.0000
  Na  Na7       1.0  0.68600  0.42200  0.55600  1.0000
  Na  Na8       1.0  0.75700  0.11800  0.72600  1.0000
  Na  Na9       1.0  0.71400  0.73000  0.86900  1.0000
  Na  Na10      1.0  0.22200  0.25500  0.88100  1.0000
  O   O1        1.0  0.14200  0.65800  0.00158  1.0000
  O   O2        1.0  0.26800  0.21900  0.10900  1.0000
  O   O3        1.0  0.72200  0.76500  0.11100  1.0000
  O   O4        1.0  0.48200  0.49900  0.15300  1.0000
  O   O5        1.0  0.01140  0.97300  0.15800  1.0000
  O   O6        1.0  0.58600  0.27800  0.19800  1.0000
  O   O7        1.0  0.46400  0.96600  0.23100  1.0000
  O   O8        1.0  0.80500  0.08520  0.23700  1.0000
  O   O9        1.0  0.90100  0.53900  0.23900  1.0000
  O   O10       1.0  0.11100  0.39600  0.31900  1.0000
  O   O11       1.0  0.95300  0.92900  0.36900  1.0000
  O   O12       1.0  0.47000  0.42700  0.37000  1.0000
  O   O13       1.0  0.51800  0.82000  0.40400  1.0000
  O   O14       1.0  0.33800  0.00640  0.42000  1.0000
  O   O15       1.0  0.17500  0.70400  0.46300  1.0000
  O   O16       1.0  0.94500  0.48400  0.47400  1.0000
  O   O17       1.0  0.65800  0.14200  0.50200  1.0000
  O   O18       1.0  0.21900  0.26800  0.60900  1.0000
  O   O19       1.0  0.76500  0.72200  0.61100  1.0000
  O   O20       1.0  0.49900  0.48200  0.65300  1.0000
  O   O21       1.0  0.97300  0.01140  0.65800  1.0000
  O   O22       1.0  0.27800  0.58600  0.69800  1.0000
  O   O23       1.0  0.96600  0.46400  0.73100  1.0000
  O   O24       1.0  0.08520  0.80500  0.73700  1.0000
  O   O25       1.0  0.53900  0.90100  0.73900  1.0000
  O   O26       1.0  0.39600  0.11100  0.81900  1.0000
  O   O27       1.0  0.92900  0.95300  0.86900  1.0000
  O   O28       1.0  0.42700  0.47000  0.87000  1.0000
  O   O29       1.0  0.82000  0.51800  0.90400  1.0000
  O   O30       1.0  0.00640  0.33800  0.92000  1.0000
  O   O31       1.0  0.70400  0.17500  0.96300  1.0000
  O   O32       1.0  0.48400  0.94500  0.97400  1.0000
  P   P1        1.0  0.44400  0.35800  0.20900  1.0000
  P   P2        1.0  0.87300  0.93000  0.21700  1.0000
  P   P3        1.0  0.03040  0.52700  0.36800  1.0000
  P   P4        1.0  0.49800  0.98600  0.39600  1.0000
  P   P5        1.0  0.35800  0.44400  0.70900  1.0000
  P   P6        1.0  0.93000  0.87300  0.71700  1.0000
  P   P7        1.0  0.52700  0.03040  0.86800  1.0000
  P   P8        1.0  0.98600  0.49800  0.89600  1.0000
