data_image0
_chemical_formula_structural       Bi8P12Se36
_chemical_formula_sum              "Bi8 P12 Se36"
_cell_length_a       12.4453
_cell_length_b       6.95785
_cell_length_c       18.2351
_cell_angle_alpha    90.2307
_cell_angle_beta     94.3413
_cell_angle_gamma    91.7602

_space_group_name_H-M_alt    "P 1"
_space_group_IT_number       1

loop_
  _space_group_symop_operation_xyz
  'x, y, z'

loop_
  _atom_site_type_symbol
  _atom_site_label
  _atom_site_symmetry_multiplicity
  _atom_site_fract_x
  _atom_site_fract_y
  _atom_site_fract_z
  _atom_site_occupancy
  Bi  Bi1       1.0  0.09470  0.01590  0.11300  1.0000
  Bi  Bi2       1.0  0.53200  0.93600  0.19000  1.0000
  Bi  Bi3       1.0  0.98100  0.43600  0.31200  1.0000
  Bi  Bi4       1.0  0.39900  0.52700  0.38400  1.0000
  Bi  Bi5       1.0  0.60100  0.47300  0.61600  1.0000
  Bi  Bi6       1.0  0.01940  0.56400  0.68800  1.0000
  Bi  Bi7       1.0  0.46800  0.06440  0.81000  1.0000
  Bi  Bi8       1.0  0.90500  0.98400  0.88700  1.0000
  P   P1        1.0  0.82400  0.07080  0.11300  1.0000
  P   P2        1.0  0.41300  0.43000  0.15400  1.0000
  P   P3        1.0  0.25200  0.54300  0.18200  1.0000
  P   P4        1.0  0.83600  0.95400  0.22900  1.0000
  P   P5        1.0  0.48900  0.06040  0.44200  1.0000
  P   P6        1.0  0.08000  0.43500  0.48900  1.0000
  P   P7        1.0  0.92000  0.56500  0.51100  1.0000
  P   P8        1.0  0.51100  0.94000  0.55800  1.0000
  P   P9        1.0  0.16400  0.04590  0.77100  1.0000
  P   P10       1.0  0.74800  0.45700  0.81800  1.0000
  P   P11       1.0  0.58700  0.57000  0.84600  1.0000
  P   P12       1.0  0.17600  0.92900  0.88700  1.0000
  Se  Se1       1.0  0.89400  0.83400  0.04830  1.0000
  Se  Se2       1.0  0.16300  0.60900  0.07710  1.0000
  Se  Se3       1.0  0.48700  0.64800  0.08300  1.0000
  Se  Se4       1.0  0.65300  0.13500  0.08410  1.0000
  Se  Se5       1.0  0.38200  0.16100  0.08880  1.0000
  Se  Se6       1.0  0.93900  0.32100  0.11200  1.0000
  Se  Se7       1.0  0.72800  0.69700  0.22500  1.0000
  Se  Se8       1.0  0.18800  0.29500  0.24300  1.0000
  Se  Se9       1.0  0.01090  0.88600  0.25100  1.0000
  Se  Se10      1.0  0.29900  0.79200  0.25600  1.0000
  Se  Se11      1.0  0.51200  0.37900  0.25900  1.0000
  Se  Se12      1.0  0.78300  0.18200  0.29900  1.0000
  Se  Se13      1.0  0.56400  0.84300  0.37400  1.0000
  Se  Se14      1.0  0.83400  0.62600  0.40400  1.0000
  Se  Se15      1.0  0.15100  0.64800  0.41400  1.0000
  Se  Se16      1.0  0.31900  0.12300  0.41700  1.0000
  Se  Se17      1.0  0.03360  0.17200  0.42300  1.0000
  Se  Se18      1.0  0.59400  0.33100  0.44700  1.0000
  Se  Se19      1.0  0.40600  0.66900  0.55300  1.0000
  Se  Se20      1.0  0.96600  0.82800  0.57700  1.0000
  Se  Se21      1.0  0.68100  0.87700  0.58300  1.0000
  Se  Se22      1.0  0.84900  0.35200  0.58600  1.0000
  Se  Se23      1.0  0.16600  0.37400  0.59600  1.0000
  Se  Se24      1.0  0.43600  0.15700  0.62600  1.0000
  Se  Se25      1.0  0.21700  0.81800  0.70100  1.0000
  Se  Se26      1.0  0.48800  0.62100  0.74100  1.0000
  Se  Se27      1.0  0.70100  0.20800  0.74400  1.0000
  Se  Se28      1.0  0.98900  0.11400  0.74900  1.0000
  Se  Se29      1.0  0.81200  0.70500  0.75700  1.0000
  Se  Se30      1.0  0.27200  0.30300  0.77500  1.0000
  Se  Se31      1.0  0.06100  0.67900  0.88800  1.0000
  Se  Se32      1.0  0.61800  0.83900  0.91100  1.0000
  Se  Se33      1.0  0.34700  0.86500  0.91600  1.0000
  Se  Se34      1.0  0.51300  0.35200  0.91700  1.0000
  Se  Se35      1.0  0.83700  0.39100  0.92300  1.0000
  Se  Se36      1.0  0.10600  0.16600  0.95200  1.0000
