data_image0
_chemical_formula_structural       Co4H16N32
_chemical_formula_sum              "Co4 H16 N32"
_cell_length_a       6.24795
_cell_length_b       7.09911
_cell_length_c       11.2495
_cell_angle_alpha    90
_cell_angle_beta     90
_cell_angle_gamma    63.8928

_space_group_name_H-M_alt    "P 1"
_space_group_IT_number       1

loop_
  _space_group_symop_operation_xyz
  'x, y, z'

loop_
  _atom_site_type_symbol
  _atom_site_label
  _atom_site_symmetry_multiplicity
  _atom_site_fract_x
  _atom_site_fract_y
  _atom_site_fract_z
  _atom_site_occupancy
  Co  Co1       1.0  0.46900  0.06290  0.25000  1.0000
  Co  Co2       1.0  0.85700  0.28500  0.25000  1.0000
  Co  Co3       1.0  0.14300  0.71500  0.75000  1.0000
  Co  Co4       1.0  0.53100  0.93700  0.75000  1.0000
  H   H1        1.0  0.95100  0.40800  0.05520  1.0000
  H   H2        1.0  0.37200  0.24300  0.05580  1.0000
  H   H3        1.0  0.08050  0.15100  0.06280  1.0000
  H   H4        1.0  0.24300  0.43200  0.15600  1.0000
  H   H5        1.0  0.32500  0.43200  0.34400  1.0000
  H   H6        1.0  0.76800  0.15100  0.43700  1.0000
  H   H7        1.0  0.38500  0.24300  0.44400  1.0000
  H   H8        1.0  0.64100  0.40800  0.44500  1.0000
  H   H9        1.0  0.04930  0.59200  0.55500  1.0000
  H   H10       1.0  0.62800  0.75700  0.55600  1.0000
  H   H11       1.0  0.92000  0.84900  0.56300  1.0000
  H   H12       1.0  0.75700  0.56800  0.65600  1.0000
  H   H13       1.0  0.67500  0.56800  0.84400  1.0000
  H   H14       1.0  0.23200  0.84900  0.93700  1.0000
  H   H15       1.0  0.61500  0.75700  0.94400  1.0000
  H   H16       1.0  0.35900  0.59200  0.94500  1.0000
  N   N1        1.0  0.02670  0.73800  0.08570  1.0000
  N   N2        1.0  0.04640  0.28400  0.11100  1.0000
  N   N3        1.0  0.90900  0.90100  0.13100  1.0000
  N   N4        1.0  0.47600  0.85900  0.13100  1.0000
  N   N5        1.0  0.27500  0.28000  0.13400  1.0000
  N   N6        1.0  0.52400  0.68000  0.15500  1.0000
  N   N7        1.0  0.56500  0.50200  0.17200  1.0000
  N   N8        1.0  0.77600  0.06400  0.17700  1.0000
  N   N9        1.0  0.16000  0.06400  0.32300  1.0000
  N   N10       1.0  0.93300  0.50200  0.32800  1.0000
  N   N11       1.0  0.79600  0.68000  0.34500  1.0000
  N   N12       1.0  0.44400  0.28000  0.36600  1.0000
  N   N13       1.0  0.66600  0.85900  0.36900  1.0000
  N   N14       1.0  0.19000  0.90100  0.36900  1.0000
  N   N15       1.0  0.67000  0.28400  0.38900  1.0000
  N   N16       1.0  0.23600  0.73800  0.41400  1.0000
  N   N17       1.0  0.97300  0.26200  0.58600  1.0000
  N   N18       1.0  0.95400  0.71600  0.61100  1.0000
  N   N19       1.0  0.09060  0.09950  0.63100  1.0000
  N   N20       1.0  0.52400  0.14100  0.63100  1.0000
  N   N21       1.0  0.72500  0.72000  0.63400  1.0000
  N   N22       1.0  0.47600  0.32000  0.65500  1.0000
  N   N23       1.0  0.43500  0.49800  0.67200  1.0000
  N   N24       1.0  0.22400  0.93600  0.67700  1.0000
  N   N25       1.0  0.84000  0.93600  0.82300  1.0000
  N   N26       1.0  0.06710  0.49800  0.82800  1.0000
  N   N27       1.0  0.20400  0.32000  0.84500  1.0000
  N   N28       1.0  0.55600  0.72000  0.86600  1.0000
  N   N29       1.0  0.33400  0.14100  0.86900  1.0000
  N   N30       1.0  0.81000  0.09950  0.86900  1.0000
  N   N31       1.0  0.33000  0.71600  0.88900  1.0000
  N   N32       1.0  0.76400  0.26200  0.91400  1.0000
