data_image0
_chemical_formula_structural       Cs3Mn4O36P12
_chemical_formula_sum              "Cs3 Mn4 O36 P12"
_cell_length_a       9.43083
_cell_length_b       9.43083
_cell_length_c       10.9487
_cell_angle_alpha    101.114
_cell_angle_beta     106.61
_cell_angle_gamma    116.382

_space_group_name_H-M_alt    "P 1"
_space_group_IT_number       1

loop_
  _space_group_symop_operation_xyz
  'x, y, z'

loop_
  _atom_site_type_symbol
  _atom_site_label
  _atom_site_symmetry_multiplicity
  _atom_site_fract_x
  _atom_site_fract_y
  _atom_site_fract_z
  _atom_site_occupancy
  Cs  Cs1       1.0  0.21700  0.21700  0.00000  1.0000
  Cs  Cs2       1.0  0.78300  0.78300  0.00000  1.0000
  Cs  Cs3       1.0  0.50000  0.00000  0.50000  1.0000
  Mn  Mn1       1.0  0.32400  0.74900  0.07330  1.0000
  Mn  Mn2       1.0  0.20700  0.20100  0.40900  1.0000
  Mn  Mn3       1.0  0.79300  0.79900  0.59100  1.0000
  Mn  Mn4       1.0  0.67600  0.25100  0.92700  1.0000
  O   O1        1.0  0.84700  0.16800  0.01550  1.0000
  O   O2        1.0  0.56500  0.19600  0.07620  1.0000
  O   O3        1.0  0.88000  0.51200  0.07620  1.0000
  O   O4        1.0  0.48600  0.65100  0.13700  1.0000
  O   O5        1.0  0.05510  0.16000  0.21500  1.0000
  O   O6        1.0  0.21700  0.71100  0.21900  1.0000
  O   O7        1.0  0.50800  0.00267  0.21900  1.0000
  O   O8        1.0  0.80800  0.17600  0.23800  1.0000
  O   O9        1.0  0.06230  0.43000  0.23800  1.0000
  O   O10       1.0  0.53500  0.47200  0.26100  1.0000
  O   O11       1.0  0.78900  0.72500  0.26100  1.0000
  O   O12       1.0  0.01120  0.64500  0.33800  1.0000
  O   O13       1.0  0.69300  0.32700  0.33800  1.0000
  O   O14       1.0  0.40400  0.23700  0.34300  1.0000
  O   O15       1.0  0.10600  0.93900  0.34300  1.0000
  O   O16       1.0  0.63200  0.77200  0.40400  1.0000
  O   O17       1.0  0.01400  0.16800  0.48400  1.0000
  O   O18       1.0  0.31600  0.47000  0.48400  1.0000
  O   O19       1.0  0.68400  0.53000  0.51600  1.0000
  O   O20       1.0  0.98600  0.83200  0.51600  1.0000
  O   O21       1.0  0.36800  0.22800  0.59600  1.0000
  O   O22       1.0  0.59600  0.76300  0.65700  1.0000
  O   O23       1.0  0.89400  0.06070  0.65700  1.0000
  O   O24       1.0  0.98900  0.35500  0.66200  1.0000
  O   O25       1.0  0.30700  0.67300  0.66200  1.0000
  O   O26       1.0  0.21100  0.27500  0.73900  1.0000
  O   O27       1.0  0.46500  0.52800  0.73900  1.0000
  O   O28       1.0  0.19200  0.82400  0.76200  1.0000
  O   O29       1.0  0.93800  0.57000  0.76200  1.0000
  O   O30       1.0  0.78300  0.28900  0.78100  1.0000
  O   O31       1.0  0.49200  0.99700  0.78100  1.0000
  O   O32       1.0  0.94500  0.84000  0.78500  1.0000
  O   O33       1.0  0.51400  0.34900  0.86300  1.0000
  O   O34       1.0  0.12000  0.48800  0.92400  1.0000
  O   O35       1.0  0.43500  0.80400  0.92400  1.0000
  O   O36       1.0  0.15300  0.83200  0.98400  1.0000
  P   P1        1.0  0.94000  0.22800  0.16900  1.0000
  P   P2        1.0  0.04160  0.58100  0.20400  1.0000
  P   P3        1.0  0.62400  0.16300  0.20400  1.0000
  P   P4        1.0  0.60500  0.66400  0.26900  1.0000
  P   P5        1.0  0.57500  0.39300  0.37700  1.0000
  P   P6        1.0  0.98400  0.80200  0.37700  1.0000
  P   P7        1.0  0.01570  0.19800  0.62300  1.0000
  P   P8        1.0  0.42500  0.60700  0.62300  1.0000
  P   P9        1.0  0.39500  0.33600  0.73100  1.0000
  P   P10       1.0  0.37600  0.83700  0.79600  1.0000
  P   P11       1.0  0.95800  0.41900  0.79600  1.0000
  P   P12       1.0  0.05970  0.77200  0.83100  1.0000
