data_image0
_chemical_formula_structural       F24H16O8Sr4Ti4
_chemical_formula_sum              "F24 H16 O8 Sr4 Ti4"
_cell_length_a       5.63404
_cell_length_b       10.8222
_cell_length_c       9.36968
_cell_angle_alpha    90
_cell_angle_beta     90
_cell_angle_gamma    99.0639

_space_group_name_H-M_alt    "P 1"
_space_group_IT_number       1

loop_
  _space_group_symop_operation_xyz
  'x, y, z'

loop_
  _atom_site_type_symbol
  _atom_site_label
  _atom_site_symmetry_multiplicity
  _atom_site_fract_x
  _atom_site_fract_y
  _atom_site_fract_z
  _atom_site_occupancy
  F   F1        1.0  0.09190  0.88200  0.03770  1.0000
  F   F2        1.0  0.34800  0.68100  0.06550  1.0000
  F   F3        1.0  0.84900  0.66300  0.09350  1.0000
  F   F4        1.0  0.93900  0.43400  0.12700  1.0000
  F   F5        1.0  0.16900  0.24900  0.16200  1.0000
  F   F6        1.0  0.68900  0.20400  0.17400  1.0000
  F   F7        1.0  0.18900  0.70400  0.32600  1.0000
  F   F8        1.0  0.66900  0.74900  0.33800  1.0000
  F   F9        1.0  0.43900  0.93400  0.37300  1.0000
  F   F10       1.0  0.34900  0.16300  0.40700  1.0000
  F   F11       1.0  0.84800  0.18100  0.43500  1.0000
  F   F12       1.0  0.59200  0.38200  0.46200  1.0000
  F   F13       1.0  0.40800  0.61800  0.53800  1.0000
  F   F14       1.0  0.15200  0.81900  0.56500  1.0000
  F   F15       1.0  0.65100  0.83700  0.59300  1.0000
  F   F16       1.0  0.56100  0.06560  0.62700  1.0000
  F   F17       1.0  0.33100  0.25100  0.66200  1.0000
  F   F18       1.0  0.81100  0.29600  0.67400  1.0000
  F   F19       1.0  0.31100  0.79600  0.82600  1.0000
  F   F20       1.0  0.83100  0.75100  0.83800  1.0000
  F   F21       1.0  0.06140  0.56600  0.87300  1.0000
  F   F22       1.0  0.15100  0.33700  0.90700  1.0000
  F   F23       1.0  0.65200  0.31900  0.93500  1.0000
  F   F24       1.0  0.90800  0.11800  0.96200  1.0000
  H   H1        1.0  0.55500  0.81600  0.10900  1.0000
  H   H2        1.0  0.38300  0.54900  0.14000  1.0000
  H   H3        1.0  0.38900  0.40300  0.14200  1.0000
  H   H4        1.0  0.74700  0.92900  0.16200  1.0000
  H   H5        1.0  0.24700  0.42900  0.33800  1.0000
  H   H6        1.0  0.88900  0.90300  0.35800  1.0000
  H   H7        1.0  0.88300  0.04850  0.36000  1.0000
  H   H8        1.0  0.05520  0.31600  0.39100  1.0000
  H   H9        1.0  0.94500  0.68400  0.60900  1.0000
  H   H10       1.0  0.11700  0.95200  0.64000  1.0000
  H   H11       1.0  0.11100  0.09750  0.64200  1.0000
  H   H12       1.0  0.75300  0.57100  0.66200  1.0000
  H   H13       1.0  0.25300  0.07090  0.83800  1.0000
  H   H14       1.0  0.61100  0.59700  0.85800  1.0000
  H   H15       1.0  0.61700  0.45200  0.86000  1.0000
  H   H16       1.0  0.44500  0.18400  0.89100  1.0000
  O   O1        1.0  0.61300  0.90600  0.09250  1.0000
  O   O2        1.0  0.43200  0.48000  0.19700  1.0000
  O   O3        1.0  0.93200  0.98000  0.30300  1.0000
  O   O4        1.0  0.11300  0.40600  0.40800  1.0000
  O   O5        1.0  0.88700  0.59400  0.59300  1.0000
  O   O6        1.0  0.06800  0.02050  0.69700  1.0000
  O   O7        1.0  0.56800  0.52100  0.80300  1.0000
  O   O8        1.0  0.38700  0.09430  0.90700  1.0000
  Sr  Sr1       1.0  0.31800  0.05130  0.17300  1.0000
  Sr  Sr2       1.0  0.81800  0.55100  0.32700  1.0000
  Sr  Sr3       1.0  0.18200  0.44900  0.67300  1.0000
  Sr  Sr4       1.0  0.68200  0.94900  0.82700  1.0000
  Ti  Ti1       1.0  0.91500  0.27900  0.03960  1.0000
  Ti  Ti2       1.0  0.41500  0.77900  0.46000  1.0000
  Ti  Ti3       1.0  0.58500  0.22100  0.54000  1.0000
  Ti  Ti4       1.0  0.08540  0.72100  0.96000  1.0000
