data_image0
_chemical_formula_structural       Eu2Ga4S8
_chemical_formula_sum              "Eu2 Ga4 S8"
_cell_length_a       5.94426
_cell_length_b       5.94426
_cell_length_c       10.2994
_cell_angle_alpha    90
_cell_angle_beta     90
_cell_angle_gamma    118.809

_space_group_name_H-M_alt    "P 1"
_space_group_IT_number       1

loop_
  _space_group_symop_operation_xyz
  'x, y, z'

loop_
  _atom_site_type_symbol
  _atom_site_label
  _atom_site_symmetry_multiplicity
  _atom_site_fract_x
  _atom_site_fract_y
  _atom_site_fract_z
  _atom_site_occupancy
  Eu  Eu1       1.0  0.50000  0.50000  0.25000  1.0000
  Eu  Eu2       1.0  0.50000  0.50000  0.75000  1.0000
  Ga  Ga1       1.0  0.76300  0.23500  0.00000  1.0000
  Ga  Ga2       1.0  0.23700  0.76500  0.00000  1.0000
  Ga  Ga3       1.0  0.76500  0.23700  0.50000  1.0000
  Ga  Ga4       1.0  0.23500  0.76300  0.50000  1.0000
  S   S1        1.0  0.18900  0.35100  0.00000  1.0000
  S   S2        1.0  0.81100  0.64900  0.00000  1.0000
  S   S3        1.0  0.50000  0.00000  0.16900  1.0000
  S   S4        1.0  0.00000  0.50000  0.33100  1.0000
  S   S5        1.0  0.35100  0.18900  0.50000  1.0000
  S   S6        1.0  0.64900  0.81100  0.50000  1.0000
  S   S7        1.0  0.00000  0.50000  0.66900  1.0000
  S   S8        1.0  0.50000  0.00000  0.83100  1.0000
