data_image0
_chemical_formula_structural       Cd2Cl18Cu14K2O16Se4
_chemical_formula_sum              "Cd2 Cl18 Cu14 K2 O16 Se4"
_cell_length_a       8.79241
_cell_length_b       8.78952
_cell_length_c       15.5418
_cell_angle_alpha    90
_cell_angle_beta     90
_cell_angle_gamma    120.011

_space_group_name_H-M_alt    "P 1"
_space_group_IT_number       1

loop_
  _space_group_symop_operation_xyz
  'x, y, z'

loop_
  _atom_site_type_symbol
  _atom_site_label
  _atom_site_symmetry_multiplicity
  _atom_site_fract_x
  _atom_site_fract_y
  _atom_site_fract_z
  _atom_site_occupancy
  Cd  Cd1       1.0  0.00000  0.00000  0.00000  1.0000
  Cd  Cd2       1.0  0.00000  0.00000  0.50000  1.0000
  Cl  Cl1       1.0  0.27700  0.13900  0.10200  1.0000
  Cl  Cl2       1.0  0.86100  0.13900  0.10200  1.0000
  Cl  Cl3       1.0  0.86100  0.72300  0.10200  1.0000
  Cl  Cl4       1.0  0.50800  0.01670  0.25000  1.0000
  Cl  Cl5       1.0  0.50800  0.49200  0.25000  1.0000
  Cl  Cl6       1.0  0.98300  0.49200  0.25000  1.0000
  Cl  Cl7       1.0  0.86100  0.72300  0.39800  1.0000
  Cl  Cl8       1.0  0.27700  0.13900  0.39800  1.0000
  Cl  Cl9       1.0  0.86100  0.13900  0.39800  1.0000
  Cl  Cl10      1.0  0.13900  0.86100  0.60200  1.0000
  Cl  Cl11      1.0  0.72300  0.86100  0.60200  1.0000
  Cl  Cl12      1.0  0.13900  0.27700  0.60200  1.0000
  Cl  Cl13      1.0  0.01670  0.50800  0.75000  1.0000
  Cl  Cl14      1.0  0.49200  0.50800  0.75000  1.0000
  Cl  Cl15      1.0  0.49200  0.98300  0.75000  1.0000
  Cl  Cl16      1.0  0.13900  0.27700  0.89800  1.0000
  Cl  Cl17      1.0  0.13900  0.86100  0.89800  1.0000
  Cl  Cl18      1.0  0.72300  0.86100  0.89800  1.0000
  Cu  Cu1       1.0  0.54700  0.45300  0.09240  1.0000
  Cu  Cu2       1.0  0.90500  0.45300  0.09240  1.0000
  Cu  Cu3       1.0  0.54700  0.09480  0.09240  1.0000
  Cu  Cu4       1.0  0.66700  0.33300  0.25000  1.0000
  Cu  Cu5       1.0  0.54700  0.09480  0.40800  1.0000
  Cu  Cu6       1.0  0.54700  0.45300  0.40800  1.0000
  Cu  Cu7       1.0  0.90500  0.45300  0.40800  1.0000
  Cu  Cu8       1.0  0.09480  0.54700  0.59200  1.0000
  Cu  Cu9       1.0  0.45300  0.54700  0.59200  1.0000
  Cu  Cu10      1.0  0.45300  0.90500  0.59200  1.0000
  Cu  Cu11      1.0  0.33300  0.66700  0.75000  1.0000
  Cu  Cu12      1.0  0.45300  0.90500  0.90800  1.0000
  Cu  Cu13      1.0  0.09480  0.54700  0.90800  1.0000
  Cu  Cu14      1.0  0.45300  0.54700  0.90800  1.0000
  K   K1        1.0  0.00000  0.00000  0.25000  1.0000
  K   K2        1.0  0.00000  0.00000  0.75000  1.0000
  O   O1        1.0  0.43300  0.86500  0.04570  1.0000
  O   O2        1.0  0.13500  0.56800  0.04570  1.0000
  O   O3        1.0  0.43300  0.56800  0.04570  1.0000
  O   O4        1.0  0.66700  0.33300  0.12800  1.0000
  O   O5        1.0  0.66700  0.33300  0.37200  1.0000
  O   O6        1.0  0.13500  0.56800  0.45400  1.0000
  O   O7        1.0  0.43300  0.56800  0.45400  1.0000
  O   O8        1.0  0.43300  0.86500  0.45400  1.0000
  O   O9        1.0  0.56700  0.13500  0.54600  1.0000
  O   O10       1.0  0.56700  0.43200  0.54600  1.0000
  O   O11       1.0  0.86500  0.43200  0.54600  1.0000
  O   O12       1.0  0.33300  0.66700  0.62800  1.0000
  O   O13       1.0  0.33300  0.66700  0.87200  1.0000
  O   O14       1.0  0.56700  0.43200  0.95400  1.0000
  O   O15       1.0  0.86500  0.43200  0.95400  1.0000
  O   O16       1.0  0.56700  0.13500  0.95400  1.0000
  Se  Se1       1.0  0.33300  0.66700  0.10100  1.0000
  Se  Se2       1.0  0.33300  0.66700  0.39900  1.0000
  Se  Se3       1.0  0.66700  0.33300  0.60100  1.0000
  Se  Se4       1.0  0.66700  0.33300  0.89900  1.0000
