data_image0
_chemical_formula_structural       Gd4Mo20O32
_chemical_formula_sum              "Gd4 Mo20 O32"
_cell_length_a       7.57505
_cell_length_b       9.02239
_cell_length_c       9.93062
_cell_angle_alpha    90
_cell_angle_beta     110.022
_cell_angle_gamma    90

_space_group_name_H-M_alt    "P 1"
_space_group_IT_number       1

loop_
  _space_group_symop_operation_xyz
  'x, y, z'

loop_
  _atom_site_type_symbol
  _atom_site_label
  _atom_site_symmetry_multiplicity
  _atom_site_fract_x
  _atom_site_fract_y
  _atom_site_fract_z
  _atom_site_occupancy
  Gd  Gd1       1.0  0.27100  0.00000  0.02660  1.0000
  Gd  Gd2       1.0  0.72900  0.50000  0.47300  1.0000
  Gd  Gd3       1.0  0.27100  0.50000  0.52700  1.0000
  Gd  Gd4       1.0  0.72900  0.00019  0.97300  1.0000
  Mo  Mo1       1.0  0.39700  0.38400  0.01250  1.0000
  Mo  Mo2       1.0  0.99800  0.62400  0.08620  1.0000
  Mo  Mo3       1.0  0.83000  0.37100  0.11800  1.0000
  Mo  Mo4       1.0  0.38600  0.61900  0.17600  1.0000
  Mo  Mo5       1.0  0.19400  0.36900  0.20000  1.0000
  Mo  Mo6       1.0  0.80600  0.86900  0.30000  1.0000
  Mo  Mo7       1.0  0.61400  0.11900  0.32400  1.0000
  Mo  Mo8       1.0  0.17000  0.87100  0.38200  1.0000
  Mo  Mo9       1.0  0.00181  0.12400  0.41400  1.0000
  Mo  Mo10      1.0  0.60300  0.88400  0.48800  1.0000
  Mo  Mo11      1.0  0.39700  0.11600  0.51200  1.0000
  Mo  Mo12      1.0  0.99800  0.87600  0.58600  1.0000
  Mo  Mo13      1.0  0.83000  0.12900  0.61800  1.0000
  Mo  Mo14      1.0  0.38600  0.88100  0.67600  1.0000
  Mo  Mo15      1.0  0.19400  0.13100  0.70000  1.0000
  Mo  Mo16      1.0  0.80600  0.63100  0.80000  1.0000
  Mo  Mo17      1.0  0.61400  0.38100  0.82400  1.0000
  Mo  Mo18      1.0  0.17000  0.62900  0.88200  1.0000
  Mo  Mo19      1.0  0.00181  0.37600  0.91400  1.0000
  Mo  Mo20      1.0  0.60300  0.61600  0.98800  1.0000
  O   O1        1.0  0.38800  0.75900  0.01250  1.0000
  O   O2        1.0  0.00112  0.21700  0.06550  1.0000
  O   O3        1.0  0.79500  0.76200  0.11300  1.0000
  O   O4        1.0  0.59600  0.99400  0.14800  1.0000
  O   O5        1.0  0.39100  0.23000  0.16700  1.0000
  O   O6        1.0  0.62100  0.49300  0.17600  1.0000
  O   O7        1.0  0.20300  0.76000  0.21000  1.0000
  O   O8        1.0  0.97900  0.00336  0.22800  1.0000
  O   O9        1.0  0.02120  0.50300  0.27200  1.0000
  O   O10       1.0  0.79700  0.26000  0.29000  1.0000
  O   O11       1.0  0.37900  0.99300  0.32400  1.0000
  O   O12       1.0  0.60900  0.73000  0.33300  1.0000
  O   O13       1.0  0.40400  0.49400  0.35200  1.0000
  O   O14       1.0  0.20500  0.26200  0.38700  1.0000
  O   O15       1.0  0.99900  0.71700  0.43400  1.0000
  O   O16       1.0  0.61200  0.25900  0.48800  1.0000
  O   O17       1.0  0.38800  0.74100  0.51200  1.0000
  O   O18       1.0  0.00112  0.28300  0.56600  1.0000
  O   O19       1.0  0.79500  0.73800  0.61300  1.0000
  O   O20       1.0  0.59600  0.50600  0.64800  1.0000
  O   O21       1.0  0.39100  0.27000  0.66700  1.0000
  O   O22       1.0  0.62100  0.00737  0.67600  1.0000
  O   O23       1.0  0.20300  0.74000  0.71000  1.0000
  O   O24       1.0  0.97900  0.49700  0.72800  1.0000
  O   O25       1.0  0.02120  0.99700  0.77200  1.0000
  O   O26       1.0  0.79700  0.24000  0.79000  1.0000
  O   O27       1.0  0.37900  0.50700  0.82400  1.0000
  O   O28       1.0  0.60900  0.77000  0.83300  1.0000
  O   O29       1.0  0.40400  0.00639  0.85200  1.0000
  O   O30       1.0  0.20500  0.23800  0.88700  1.0000
  O   O31       1.0  0.99900  0.78300  0.93400  1.0000
  O   O32       1.0  0.61200  0.24100  0.98800  1.0000
