data_image0
_chemical_formula_structural       H12Mn2O32S8
_chemical_formula_sum              "H12 Mn2 O32 S8"
_cell_length_a       5.0064
_cell_length_b       15.106
_cell_length_c       7.65569
_cell_angle_alpha    90
_cell_angle_beta     104.72
_cell_angle_gamma    90

_space_group_name_H-M_alt    "P 1"
_space_group_IT_number       1

loop_
  _space_group_symop_operation_xyz
  'x, y, z'

loop_
  _atom_site_type_symbol
  _atom_site_label
  _atom_site_symmetry_multiplicity
  _atom_site_fract_x
  _atom_site_fract_y
  _atom_site_fract_z
  _atom_site_occupancy
  H   H1        1.0  0.27200  0.47300  0.08960  1.0000
  H   H2        1.0  0.54500  0.73900  0.14000  1.0000
  H   H3        1.0  0.82700  0.22800  0.19700  1.0000
  H   H4        1.0  0.17300  0.72800  0.30300  1.0000
  H   H5        1.0  0.45500  0.23900  0.36000  1.0000
  H   H6        1.0  0.72800  0.97300  0.41000  1.0000
  H   H7        1.0  0.27200  0.02680  0.59000  1.0000
  H   H8        1.0  0.54500  0.76100  0.64000  1.0000
  H   H9        1.0  0.82700  0.27200  0.69700  1.0000
  H   H10       1.0  0.17300  0.77200  0.80300  1.0000
  H   H11       1.0  0.45500  0.26100  0.86000  1.0000
  H   H12       1.0  0.72800  0.52700  0.91000  1.0000
  Mn  Mn1       1.0  0.00000  0.00000  0.00000  1.0000
  Mn  Mn2       1.0  0.00000  0.50000  0.50000  1.0000
  O   O1        1.0  0.26500  0.54100  0.07490  1.0000
  O   O2        1.0  0.67400  0.78400  0.09720  1.0000
  O   O3        1.0  0.68600  0.05970  0.09900  1.0000
  O   O4        1.0  0.95300  0.26000  0.12800  1.0000
  O   O5        1.0  0.28700  0.37300  0.12900  1.0000
  O   O6        1.0  0.04090  0.88900  0.17900  1.0000
  O   O7        1.0  0.36100  0.68300  0.21000  1.0000
  O   O8        1.0  0.28200  0.06960  0.21900  1.0000
  O   O9        1.0  0.71800  0.57000  0.28100  1.0000
  O   O10       1.0  0.63900  0.18300  0.29000  1.0000
  O   O11       1.0  0.95900  0.38900  0.32100  1.0000
  O   O12       1.0  0.71300  0.87300  0.37100  1.0000
  O   O13       1.0  0.04740  0.76000  0.37200  1.0000
  O   O14       1.0  0.31400  0.56000  0.40100  1.0000
  O   O15       1.0  0.32600  0.28400  0.40300  1.0000
  O   O16       1.0  0.73500  0.04090  0.42500  1.0000
  O   O17       1.0  0.26500  0.95900  0.57500  1.0000
  O   O18       1.0  0.67400  0.71600  0.59700  1.0000
  O   O19       1.0  0.68600  0.44000  0.59900  1.0000
  O   O20       1.0  0.95300  0.24000  0.62800  1.0000
  O   O21       1.0  0.28700  0.12700  0.62900  1.0000
  O   O22       1.0  0.04090  0.61100  0.67900  1.0000
  O   O23       1.0  0.36100  0.81700  0.71000  1.0000
  O   O24       1.0  0.28200  0.43000  0.71900  1.0000
  O   O25       1.0  0.71800  0.93000  0.78100  1.0000
  O   O26       1.0  0.63900  0.31700  0.79000  1.0000
  O   O27       1.0  0.95900  0.11100  0.82100  1.0000
  O   O28       1.0  0.71300  0.62700  0.87100  1.0000
  O   O29       1.0  0.04740  0.74000  0.87200  1.0000
  O   O30       1.0  0.31400  0.94000  0.90100  1.0000
  O   O31       1.0  0.32600  0.21600  0.90300  1.0000
  O   O32       1.0  0.73500  0.45900  0.92500  1.0000
  S   S1        1.0  0.13100  0.33200  0.24300  1.0000
  S   S2        1.0  0.57700  0.08750  0.24900  1.0000
  S   S3        1.0  0.42300  0.58700  0.25100  1.0000
  S   S4        1.0  0.86900  0.83200  0.25700  1.0000
  S   S5        1.0  0.13100  0.16800  0.74300  1.0000
  S   S6        1.0  0.57700  0.41300  0.74900  1.0000
  S   S7        1.0  0.42300  0.91300  0.75100  1.0000
  S   S8        1.0  0.86900  0.66800  0.75700  1.0000
