data_image0
_chemical_formula_structural       Co30Er6Si18
_chemical_formula_sum              "Co30 Er6 Si18"
_cell_length_a       14.629
_cell_length_b       14.629
_cell_length_c       3.67566
_cell_angle_alpha    90
_cell_angle_beta     90
_cell_angle_gamma    120

_space_group_name_H-M_alt    "P 1"
_space_group_IT_number       1

loop_
  _space_group_symop_operation_xyz
  'x, y, z'

loop_
  _atom_site_type_symbol
  _atom_site_label
  _atom_site_symmetry_multiplicity
  _atom_site_fract_x
  _atom_site_fract_y
  _atom_site_fract_z
  _atom_site_occupancy
  Co  Co1       1.0  0.12800  0.02860  0.25000  1.0000
  Co  Co2       1.0  0.78200  0.04880  0.25000  1.0000
  Co  Co3       1.0  0.97100  0.09930  0.25000  1.0000
  Co  Co4       1.0  0.26700  0.21800  0.25000  1.0000
  Co  Co5       1.0  0.65300  0.22500  0.25000  1.0000
  Co  Co6       1.0  0.57200  0.34700  0.25000  1.0000
  Co  Co7       1.0  0.14800  0.41200  0.25000  1.0000
  Co  Co8       1.0  0.77500  0.42800  0.25000  1.0000
  Co  Co9       1.0  0.07440  0.53400  0.25000  1.0000
  Co  Co10      1.0  0.46600  0.54000  0.25000  1.0000
  Co  Co11      1.0  0.95100  0.73300  0.25000  1.0000
  Co  Co12      1.0  0.58800  0.73500  0.25000  1.0000
  Co  Co13      1.0  0.26500  0.85200  0.25000  1.0000
  Co  Co14      1.0  0.90100  0.87200  0.25000  1.0000
  Co  Co15      1.0  0.46000  0.92600  0.25000  1.0000
  Co  Co16      1.0  0.54000  0.07440  0.75000  1.0000
  Co  Co17      1.0  0.09930  0.12800  0.75000  1.0000
  Co  Co18      1.0  0.73500  0.14800  0.75000  1.0000
  Co  Co19      1.0  0.41200  0.26500  0.75000  1.0000
  Co  Co20      1.0  0.04880  0.26700  0.75000  1.0000
  Co  Co21      1.0  0.53400  0.46000  0.75000  1.0000
  Co  Co22      1.0  0.92600  0.46600  0.75000  1.0000
  Co  Co23      1.0  0.22500  0.57200  0.75000  1.0000
  Co  Co24      1.0  0.85200  0.58800  0.75000  1.0000
  Co  Co25      1.0  0.42800  0.65300  0.75000  1.0000
  Co  Co26      1.0  0.34700  0.77500  0.75000  1.0000
  Co  Co27      1.0  0.73300  0.78200  0.75000  1.0000
  Co  Co28      1.0  0.02860  0.90100  0.75000  1.0000
  Co  Co29      1.0  0.21800  0.95100  0.75000  1.0000
  Co  Co30      1.0  0.87200  0.97100  0.75000  1.0000
  Er  Er1       1.0  0.39400  0.10100  0.25000  1.0000
  Er  Er2       1.0  0.89900  0.29300  0.25000  1.0000
  Er  Er3       1.0  0.70700  0.60600  0.25000  1.0000
  Er  Er4       1.0  0.29300  0.39400  0.75000  1.0000
  Er  Er5       1.0  0.10100  0.70700  0.75000  1.0000
  Er  Er6       1.0  0.60600  0.89900  0.75000  1.0000
  Si  Si1       1.0  0.63100  0.06170  0.25000  1.0000
  Si  Si2       1.0  0.13000  0.24700  0.25000  1.0000
  Si  Si3       1.0  0.43100  0.36900  0.25000  1.0000
  Si  Si4       1.0  0.31800  0.55700  0.25000  1.0000
  Si  Si5       1.0  0.93800  0.56900  0.25000  1.0000
  Si  Si6       1.0  0.23900  0.68200  0.25000  1.0000
  Si  Si7       1.0  0.44300  0.76100  0.25000  1.0000
  Si  Si8       1.0  0.11700  0.87000  0.25000  1.0000
  Si  Si9       1.0  0.75300  0.88300  0.25000  1.0000
  Si  Si10      1.0  0.24700  0.11700  0.75000  1.0000
  Si  Si11      1.0  0.88300  0.13000  0.75000  1.0000
  Si  Si12      1.0  0.55700  0.23900  0.75000  1.0000
  Si  Si13      1.0  0.76100  0.31800  0.75000  1.0000
  Si  Si14      1.0  0.06170  0.43100  0.75000  1.0000
  Si  Si15      1.0  0.68200  0.44300  0.75000  1.0000
  Si  Si16      1.0  0.56900  0.63100  0.75000  1.0000
  Si  Si17      1.0  0.87000  0.75300  0.75000  1.0000
  Si  Si18      1.0  0.36900  0.93800  0.75000  1.0000
