data_image0
_chemical_formula_structural       Al22Na2O34
_chemical_formula_sum              "Al22 Na2 O34"
_cell_length_a       5.59784
_cell_length_b       5.59782
_cell_length_c       22.4418
_cell_angle_alpha    90
_cell_angle_beta     90
_cell_angle_gamma    120

_space_group_name_H-M_alt    "P 1"
_space_group_IT_number       1

loop_
  _space_group_symop_operation_xyz
  'x, y, z'

loop_
  _atom_site_type_symbol
  _atom_site_label
  _atom_site_symmetry_multiplicity
  _atom_site_fract_x
  _atom_site_fract_y
  _atom_site_fract_z
  _atom_site_occupancy
  Al  Al1       1.0  0.00000  0.00000  0.00000  1.0000
  Al  Al2       1.0  0.33300  0.66700  0.02500  1.0000
  Al  Al3       1.0  0.83300  0.66500  0.10800  1.0000
  Al  Al4       1.0  0.33500  0.16700  0.10800  1.0000
  Al  Al5       1.0  0.83300  0.16700  0.10800  1.0000
  Al  Al6       1.0  0.33300  0.66700  0.17600  1.0000
  Al  Al7       1.0  0.33300  0.66700  0.32400  1.0000
  Al  Al8       1.0  0.33500  0.16700  0.39200  1.0000
  Al  Al9       1.0  0.83300  0.16700  0.39200  1.0000
  Al  Al10      1.0  0.83300  0.66500  0.39200  1.0000
  Al  Al11      1.0  0.33300  0.66700  0.47500  1.0000
  Al  Al12      1.0  0.00000  0.00000  0.50000  1.0000
  Al  Al13      1.0  0.66700  0.33300  0.52500  1.0000
  Al  Al14      1.0  0.16700  0.33500  0.60800  1.0000
  Al  Al15      1.0  0.16700  0.83300  0.60800  1.0000
  Al  Al16      1.0  0.66500  0.83300  0.60800  1.0000
  Al  Al17      1.0  0.66700  0.33300  0.67600  1.0000
  Al  Al18      1.0  0.66700  0.33300  0.82400  1.0000
  Al  Al19      1.0  0.16700  0.83300  0.89200  1.0000
  Al  Al20      1.0  0.66500  0.83300  0.89200  1.0000
  Al  Al21      1.0  0.16700  0.33500  0.89200  1.0000
  Al  Al22      1.0  0.66700  0.33300  0.97500  1.0000
  Na  Na1       1.0  0.66700  0.33300  0.25000  1.0000
  Na  Na2       1.0  0.33300  0.66700  0.75000  1.0000
  O   O1        1.0  0.15700  0.31400  0.05030  1.0000
  O   O2        1.0  0.15700  0.84300  0.05030  1.0000
  O   O3        1.0  0.68600  0.84300  0.05030  1.0000
  O   O4        1.0  0.66700  0.33300  0.05550  1.0000
  O   O5        1.0  0.00000  0.00000  0.14400  1.0000
  O   O6        1.0  0.50400  0.49600  0.14700  1.0000
  O   O7        1.0  0.99200  0.49600  0.14700  1.0000
  O   O8        1.0  0.50400  0.00817  0.14700  1.0000
  O   O9        1.0  0.33300  0.66700  0.25000  1.0000
  O   O10       1.0  0.50400  0.00817  0.35300  1.0000
  O   O11       1.0  0.50400  0.49600  0.35300  1.0000
  O   O12       1.0  0.99200  0.49600  0.35300  1.0000
  O   O13       1.0  0.00000  0.00000  0.35600  1.0000
  O   O14       1.0  0.66700  0.33300  0.44400  1.0000
  O   O15       1.0  0.15700  0.84300  0.45000  1.0000
  O   O16       1.0  0.68600  0.84300  0.45000  1.0000
  O   O17       1.0  0.15700  0.31400  0.45000  1.0000
  O   O18       1.0  0.31400  0.15700  0.55000  1.0000
  O   O19       1.0  0.84300  0.15700  0.55000  1.0000
  O   O20       1.0  0.84300  0.68600  0.55000  1.0000
  O   O21       1.0  0.33300  0.66700  0.55600  1.0000
  O   O22       1.0  0.00000  0.00000  0.64400  1.0000
  O   O23       1.0  0.00818  0.50400  0.64700  1.0000
  O   O24       1.0  0.49600  0.50400  0.64700  1.0000
  O   O25       1.0  0.49600  0.99200  0.64700  1.0000
  O   O26       1.0  0.66700  0.33300  0.75000  1.0000
  O   O27       1.0  0.49600  0.99200  0.85300  1.0000
  O   O28       1.0  0.00818  0.50400  0.85300  1.0000
  O   O29       1.0  0.49600  0.50400  0.85300  1.0000
  O   O30       1.0  0.00000  0.00000  0.85600  1.0000
  O   O31       1.0  0.33300  0.66700  0.94400  1.0000
  O   O32       1.0  0.31400  0.15700  0.95000  1.0000
  O   O33       1.0  0.84300  0.15700  0.95000  1.0000
  O   O34       1.0  0.84300  0.68600  0.95000  1.0000
