data_image0
_chemical_formula_structural       B16F36P4
_chemical_formula_sum              "B16 F36 P4"
_cell_length_a       12.6202
_cell_length_b       9.64165
_cell_length_c       5.48871
_cell_angle_alpha    90
_cell_angle_beta     90
_cell_angle_gamma    90

_space_group_name_H-M_alt    "P 1"
_space_group_IT_number       1

loop_
  _space_group_symop_operation_xyz
  'x, y, z'

loop_
  _atom_site_type_symbol
  _atom_site_label
  _atom_site_symmetry_multiplicity
  _atom_site_fract_x
  _atom_site_fract_y
  _atom_site_fract_z
  _atom_site_occupancy
  B   B1        1.0  0.27300  0.75000  0.08420  1.0000
  B   B2        1.0  0.78000  0.25000  0.18900  1.0000
  B   B3        1.0  0.23200  0.60800  0.22200  1.0000
  B   B4        1.0  0.23200  0.89200  0.22200  1.0000
  B   B5        1.0  0.73200  0.60800  0.27800  1.0000
  B   B6        1.0  0.73200  0.89200  0.27800  1.0000
  B   B7        1.0  0.28000  0.25000  0.31100  1.0000
  B   B8        1.0  0.77300  0.75000  0.41600  1.0000
  B   B9        1.0  0.22700  0.25000  0.58400  1.0000
  B   B10       1.0  0.72000  0.75000  0.68900  1.0000
  B   B11       1.0  0.26800  0.10800  0.72200  1.0000
  B   B12       1.0  0.26800  0.39200  0.72200  1.0000
  B   B13       1.0  0.76800  0.10800  0.77800  1.0000
  B   B14       1.0  0.76800  0.39200  0.77800  1.0000
  B   B15       1.0  0.22000  0.75000  0.81100  1.0000
  B   B16       1.0  0.72700  0.25000  0.91600  1.0000
  F   F1        1.0  0.53100  0.12600  0.04700  1.0000
  F   F2        1.0  0.53100  0.37400  0.04700  1.0000
  F   F3        1.0  0.22200  0.25000  0.10400  1.0000
  F   F4        1.0  0.96800  0.75000  0.16500  1.0000
  F   F5        1.0  0.80200  0.50900  0.20000  1.0000
  F   F6        1.0  0.80200  0.99100  0.20000  1.0000
  F   F7        1.0  0.88500  0.25000  0.22100  1.0000
  F   F8        1.0  0.63100  0.57800  0.23700  1.0000
  F   F9        1.0  0.63100  0.92200  0.23700  1.0000
  F   F10       1.0  0.13100  0.57800  0.26300  1.0000
  F   F11       1.0  0.13100  0.92200  0.26300  1.0000
  F   F12       1.0  0.38500  0.25000  0.27900  1.0000
  F   F13       1.0  0.30200  0.50900  0.30000  1.0000
  F   F14       1.0  0.30200  0.99100  0.30000  1.0000
  F   F15       1.0  0.46800  0.75000  0.33500  1.0000
  F   F16       1.0  0.72200  0.25000  0.39600  1.0000
  F   F17       1.0  0.03130  0.12600  0.45300  1.0000
  F   F18       1.0  0.03130  0.37400  0.45300  1.0000
  F   F19       1.0  0.96900  0.62600  0.54700  1.0000
  F   F20       1.0  0.96900  0.87400  0.54700  1.0000
  F   F21       1.0  0.27800  0.75000  0.60400  1.0000
  F   F22       1.0  0.53200  0.25000  0.66500  1.0000
  F   F23       1.0  0.69800  0.00902  0.70000  1.0000
  F   F24       1.0  0.69800  0.49100  0.70000  1.0000
  F   F25       1.0  0.61500  0.75000  0.72100  1.0000
  F   F26       1.0  0.86900  0.07790  0.73700  1.0000
  F   F27       1.0  0.86900  0.42200  0.73700  1.0000
  F   F28       1.0  0.36900  0.07790  0.76300  1.0000
  F   F29       1.0  0.36900  0.42200  0.76300  1.0000
  F   F30       1.0  0.11500  0.75000  0.77900  1.0000
  F   F31       1.0  0.19800  0.00902  0.80000  1.0000
  F   F32       1.0  0.19800  0.49100  0.80000  1.0000
  F   F33       1.0  0.03180  0.25000  0.83500  1.0000
  F   F34       1.0  0.77800  0.75000  0.89600  1.0000
  F   F35       1.0  0.46900  0.62600  0.95300  1.0000
  F   F36       1.0  0.46900  0.87400  0.95300  1.0000
  P   P1        1.0  0.41600  0.75000  0.08010  1.0000
  P   P2        1.0  0.91600  0.75000  0.42000  1.0000
  P   P3        1.0  0.08400  0.25000  0.58000  1.0000
  P   P4        1.0  0.58400  0.25000  0.92000  1.0000
