data_image0
_chemical_formula_structural       Cu12Mo8O36
_chemical_formula_sum              "Cu12 Mo8 O36"
_cell_length_a       7.56517
_cell_length_b       14.4957
_cell_length_c       6.85521
_cell_angle_alpha    90
_cell_angle_beta     90
_cell_angle_gamma    90

_space_group_name_H-M_alt    "P 1"
_space_group_IT_number       1

loop_
  _space_group_symop_operation_xyz
  'x, y, z'

loop_
  _atom_site_type_symbol
  _atom_site_label
  _atom_site_symmetry_multiplicity
  _atom_site_fract_x
  _atom_site_fract_y
  _atom_site_fract_z
  _atom_site_occupancy
  Cu  Cu1       1.0  0.00000  0.00000  0.00000  1.0000
  Cu  Cu2       1.0  0.50000  0.50000  0.00000  1.0000
  Cu  Cu3       1.0  0.70700  0.06450  0.25000  1.0000
  Cu  Cu4       1.0  0.20700  0.43500  0.25000  1.0000
  Cu  Cu5       1.0  0.34300  0.64300  0.25000  1.0000
  Cu  Cu6       1.0  0.84300  0.85700  0.25000  1.0000
  Cu  Cu7       1.0  0.00000  0.00000  0.50000  1.0000
  Cu  Cu8       1.0  0.50000  0.50000  0.50000  1.0000
  Cu  Cu9       1.0  0.15700  0.14300  0.75000  1.0000
  Cu  Cu10      1.0  0.65700  0.35700  0.75000  1.0000
  Cu  Cu11      1.0  0.79300  0.56500  0.75000  1.0000
  Cu  Cu12      1.0  0.29300  0.93500  0.75000  1.0000
  Mo  Mo1       1.0  0.25800  0.16900  0.25000  1.0000
  Mo  Mo2       1.0  0.75800  0.33100  0.25000  1.0000
  Mo  Mo3       1.0  0.84900  0.61100  0.25000  1.0000
  Mo  Mo4       1.0  0.34900  0.88900  0.25000  1.0000
  Mo  Mo5       1.0  0.65100  0.11100  0.75000  1.0000
  Mo  Mo6       1.0  0.15100  0.38900  0.75000  1.0000
  Mo  Mo7       1.0  0.24200  0.66900  0.75000  1.0000
  Mo  Mo8       1.0  0.74200  0.83100  0.75000  1.0000
  O   O1        1.0  0.75500  0.55900  0.03410  1.0000
  O   O2        1.0  0.25500  0.94100  0.03410  1.0000
  O   O3        1.0  0.13000  0.13800  0.03570  1.0000
  O   O4        1.0  0.63000  0.36200  0.03570  1.0000
  O   O5        1.0  0.46500  0.10800  0.25000  1.0000
  O   O6        1.0  0.80100  0.21300  0.25000  1.0000
  O   O7        1.0  0.30100  0.28700  0.25000  1.0000
  O   O8        1.0  0.96500  0.39200  0.25000  1.0000
  O   O9        1.0  0.41300  0.51600  0.25000  1.0000
  O   O10       1.0  0.07770  0.59700  0.25000  1.0000
  O   O11       1.0  0.79300  0.73000  0.25000  1.0000
  O   O12       1.0  0.29300  0.77000  0.25000  1.0000
  O   O13       1.0  0.57800  0.90300  0.25000  1.0000
  O   O14       1.0  0.91300  0.98400  0.25000  1.0000
  O   O15       1.0  0.13000  0.13800  0.46400  1.0000
  O   O16       1.0  0.63000  0.36200  0.46400  1.0000
  O   O17       1.0  0.75500  0.55900  0.46600  1.0000
  O   O18       1.0  0.25500  0.94100  0.46600  1.0000
  O   O19       1.0  0.74500  0.05910  0.53400  1.0000
  O   O20       1.0  0.24500  0.44100  0.53400  1.0000
  O   O21       1.0  0.37000  0.63800  0.53600  1.0000
  O   O22       1.0  0.87000  0.86200  0.53600  1.0000
  O   O23       1.0  0.08740  0.01640  0.75000  1.0000
  O   O24       1.0  0.42200  0.09700  0.75000  1.0000
  O   O25       1.0  0.70700  0.23000  0.75000  1.0000
  O   O26       1.0  0.20700  0.27000  0.75000  1.0000
  O   O27       1.0  0.92200  0.40300  0.75000  1.0000
  O   O28       1.0  0.58700  0.48400  0.75000  1.0000
  O   O29       1.0  0.03530  0.60800  0.75000  1.0000
  O   O30       1.0  0.69900  0.71300  0.75000  1.0000
  O   O31       1.0  0.19900  0.78700  0.75000  1.0000
  O   O32       1.0  0.53500  0.89200  0.75000  1.0000
  O   O33       1.0  0.37000  0.63800  0.96400  1.0000
  O   O34       1.0  0.87000  0.86200  0.96400  1.0000
  O   O35       1.0  0.74500  0.05910  0.96600  1.0000
  O   O36       1.0  0.24500  0.44100  0.96600  1.0000
