data_image0
_chemical_formula_structural       As44Cs12
_chemical_formula_sum              "As44 Cs12"
_cell_length_a       10.3528
_cell_length_b       10.3528
_cell_length_c       19.857
_cell_angle_alpha    93.3316
_cell_angle_beta     93.3316
_cell_angle_gamma    99.0716

_space_group_name_H-M_alt    "P 1"
_space_group_IT_number       1

loop_
  _space_group_symop_operation_xyz
  'x, y, z'

loop_
  _atom_site_type_symbol
  _atom_site_label
  _atom_site_symmetry_multiplicity
  _atom_site_fract_x
  _atom_site_fract_y
  _atom_site_fract_z
  _atom_site_occupancy
  As  As1       1.0  0.25400  0.47600  0.00585  1.0000
  As  As2       1.0  0.27100  0.11600  0.02020  1.0000
  As  As3       1.0  0.39800  0.33700  0.05440  1.0000
  As  As4       1.0  0.05130  0.14700  0.05910  1.0000
  As  As5       1.0  0.06790  0.39100  0.06900  1.0000
  As  As6       1.0  0.36200  0.99000  0.10400  1.0000
  As  As7       1.0  0.37600  0.35100  0.18000  1.0000
  As  As8       1.0  0.06700  0.09240  0.18100  1.0000
  As  As9       1.0  0.16500  0.44300  0.18600  1.0000
  As  As10      1.0  0.30900  0.11500  0.20300  1.0000
  As  As11      1.0  0.02150  0.28500  0.24500  1.0000
  As  As12      1.0  0.71500  0.97800  0.25500  1.0000
  As  As13      1.0  0.88500  0.69100  0.29700  1.0000
  As  As14      1.0  0.55700  0.83500  0.31400  1.0000
  As  As15      1.0  0.90800  0.93300  0.31900  1.0000
  As  As16      1.0  0.64900  0.62400  0.32000  1.0000
  As  As17      1.0  0.01040  0.63800  0.39600  1.0000
  As  As18      1.0  0.60900  0.93200  0.43100  1.0000
  As  As19      1.0  0.85300  0.94900  0.44100  1.0000
  As  As20      1.0  0.66300  0.60200  0.44600  1.0000
  As  As21      1.0  0.88400  0.72900  0.48000  1.0000
  As  As22      1.0  0.52400  0.74600  0.49400  1.0000
  As  As23      1.0  0.47600  0.25400  0.50600  1.0000
  As  As24      1.0  0.11600  0.27100  0.52000  1.0000
  As  As25      1.0  0.33700  0.39800  0.55400  1.0000
  As  As26      1.0  0.14700  0.05130  0.55900  1.0000
  As  As27      1.0  0.39100  0.06790  0.56900  1.0000
  As  As28      1.0  0.99000  0.36200  0.60400  1.0000
  As  As29      1.0  0.35100  0.37600  0.68000  1.0000
  As  As30      1.0  0.09240  0.06700  0.68100  1.0000
  As  As31      1.0  0.44300  0.16500  0.68600  1.0000
  As  As32      1.0  0.11500  0.30900  0.70300  1.0000
  As  As33      1.0  0.28500  0.02150  0.74500  1.0000
  As  As34      1.0  0.97800  0.71500  0.75500  1.0000
  As  As35      1.0  0.69100  0.88500  0.79700  1.0000
  As  As36      1.0  0.83500  0.55700  0.81400  1.0000
  As  As37      1.0  0.93300  0.90800  0.81900  1.0000
  As  As38      1.0  0.62400  0.64900  0.82000  1.0000
  As  As39      1.0  0.63800  0.01040  0.89600  1.0000
  As  As40      1.0  0.93200  0.60900  0.93100  1.0000
  As  As41      1.0  0.94900  0.85300  0.94100  1.0000
  As  As42      1.0  0.60200  0.66300  0.94600  1.0000
  As  As43      1.0  0.72900  0.88400  0.98000  1.0000
  As  As44      1.0  0.74600  0.52400  0.99400  1.0000
  Cs  Cs1       1.0  0.71000  0.20300  0.11000  1.0000
  Cs  Cs2       1.0  0.02730  0.74200  0.12000  1.0000
  Cs  Cs3       1.0  0.53000  0.69800  0.12900  1.0000
  Cs  Cs4       1.0  0.30200  0.47000  0.37100  1.0000
  Cs  Cs5       1.0  0.25800  0.97300  0.38000  1.0000
  Cs  Cs6       1.0  0.79700  0.29000  0.39000  1.0000
  Cs  Cs7       1.0  0.20300  0.71000  0.61000  1.0000
  Cs  Cs8       1.0  0.74200  0.02730  0.62000  1.0000
  Cs  Cs9       1.0  0.69800  0.53000  0.62900  1.0000
  Cs  Cs10      1.0  0.47000  0.30200  0.87100  1.0000
  Cs  Cs11      1.0  0.97300  0.25800  0.88000  1.0000
  Cs  Cs12      1.0  0.29000  0.79700  0.89000  1.0000
