data_image0
_chemical_formula_structural       Ga4H32N16Na4
_chemical_formula_sum              "Ga4 H32 N16 Na4"
_cell_length_a       7.45443
_cell_length_b       5.5408
_cell_length_c       12.3
_cell_angle_alpha    90
_cell_angle_beta     87.9861
_cell_angle_gamma    90.0004

_space_group_name_H-M_alt    "P 1"
_space_group_IT_number       1

loop_
  _space_group_symop_operation_xyz
  'x, y, z'

loop_
  _atom_site_type_symbol
  _atom_site_label
  _atom_site_symmetry_multiplicity
  _atom_site_fract_x
  _atom_site_fract_y
  _atom_site_fract_z
  _atom_site_occupancy
  Ga  Ga1       1.0  0.22800  0.12800  0.15200  1.0000
  Ga  Ga2       1.0  0.77200  0.62800  0.34800  1.0000
  Ga  Ga3       1.0  0.22800  0.37200  0.65200  1.0000
  Ga  Ga4       1.0  0.77200  0.87200  0.84800  1.0000
  H   H1        1.0  0.43500  0.22700  0.00261  1.0000
  H   H2        1.0  0.01010  0.18500  0.01090  1.0000
  H   H3        1.0  0.31800  0.75800  0.05700  1.0000
  H   H4        1.0  0.43000  0.44300  0.09160  1.0000
  H   H5        1.0  0.97600  0.39800  0.10000  1.0000
  H   H6        1.0  0.14500  0.68900  0.13300  1.0000
  H   H7        1.0  0.66100  0.73600  0.16300  1.0000
  H   H8        1.0  0.87200  0.81900  0.16900  1.0000
  H   H9        1.0  0.12800  0.31900  0.33100  1.0000
  H   H10       1.0  0.33900  0.23600  0.33700  1.0000
  H   H11       1.0  0.85500  0.18900  0.36700  1.0000
  H   H12       1.0  0.02400  0.89800  0.40000  1.0000
  H   H13       1.0  0.57000  0.94300  0.40800  1.0000
  H   H14       1.0  0.68200  0.25800  0.44300  1.0000
  H   H15       1.0  0.99000  0.68500  0.48900  1.0000
  H   H16       1.0  0.56500  0.72700  0.49700  1.0000
  H   H17       1.0  0.43500  0.27300  0.50300  1.0000
  H   H18       1.0  0.01010  0.31500  0.51100  1.0000
  H   H19       1.0  0.31800  0.74200  0.55700  1.0000
  H   H20       1.0  0.43000  0.05690  0.59200  1.0000
  H   H21       1.0  0.97600  0.10200  0.60000  1.0000
  H   H22       1.0  0.14500  0.81100  0.63300  1.0000
  H   H23       1.0  0.66100  0.76400  0.66300  1.0000
  H   H24       1.0  0.87200  0.68100  0.66900  1.0000
  H   H25       1.0  0.12800  0.18100  0.83100  1.0000
  H   H26       1.0  0.33900  0.26400  0.83700  1.0000
  H   H27       1.0  0.85500  0.31100  0.86700  1.0000
  H   H28       1.0  0.02400  0.60200  0.90000  1.0000
  H   H29       1.0  0.57000  0.55700  0.90800  1.0000
  H   H30       1.0  0.68200  0.24200  0.94300  1.0000
  H   H31       1.0  0.99000  0.81500  0.98900  1.0000
  H   H32       1.0  0.56500  0.77300  0.99700  1.0000
  N   N1        1.0  0.44500  0.25900  0.08420  1.0000
  N   N2        1.0  0.00219  0.21700  0.09310  1.0000
  N   N3        1.0  0.26400  0.78300  0.13400  1.0000
  N   N4        1.0  0.78200  0.68800  0.19300  1.0000
  N   N5        1.0  0.21800  0.18800  0.30700  1.0000
  N   N6        1.0  0.73600  0.28300  0.36600  1.0000
  N   N7        1.0  0.99800  0.71700  0.40700  1.0000
  N   N8        1.0  0.55500  0.75900  0.41600  1.0000
  N   N9        1.0  0.44500  0.24100  0.58400  1.0000
  N   N10       1.0  0.00220  0.28300  0.59300  1.0000
  N   N11       1.0  0.26400  0.71700  0.63400  1.0000
  N   N12       1.0  0.78200  0.81200  0.69300  1.0000
  N   N13       1.0  0.21800  0.31200  0.80700  1.0000
  N   N14       1.0  0.73600  0.21700  0.86600  1.0000
  N   N15       1.0  0.99800  0.78300  0.90700  1.0000
  N   N16       1.0  0.55500  0.74100  0.91600  1.0000
  Na  Na1       1.0  0.71100  0.22200  0.17700  1.0000
  Na  Na2       1.0  0.28900  0.72200  0.32300  1.0000
  Na  Na3       1.0  0.71100  0.27800  0.67700  1.0000
  Na  Na4       1.0  0.28900  0.77800  0.82300  1.0000
