data_image0
_chemical_formula_structural       Ce20Se38
_chemical_formula_sum              "Ce20 Se38"
_cell_length_a       9.4444
_cell_length_b       9.4444
_cell_length_c       17.2309
_cell_angle_alpha    90
_cell_angle_beta     90
_cell_angle_gamma    90

_space_group_name_H-M_alt    "P 1"
_space_group_IT_number       1

loop_
  _space_group_symop_operation_xyz
  'x, y, z'

loop_
  _atom_site_type_symbol
  _atom_site_label
  _atom_site_symmetry_multiplicity
  _atom_site_fract_x
  _atom_site_fract_y
  _atom_site_fract_z
  _atom_site_occupancy
  Ce  Ce1       1.0  0.14800  0.05400  0.10500  1.0000
  Ce  Ce2       1.0  0.35200  0.44600  0.10500  1.0000
  Ce  Ce3       1.0  0.75000  0.25000  0.11700  1.0000
  Ce  Ce4       1.0  0.95700  0.65300  0.12000  1.0000
  Ce  Ce5       1.0  0.54300  0.84700  0.12000  1.0000
  Ce  Ce6       1.0  0.65300  0.54300  0.38000  1.0000
  Ce  Ce7       1.0  0.84700  0.95700  0.38000  1.0000
  Ce  Ce8       1.0  0.25000  0.75000  0.38300  1.0000
  Ce  Ce9       1.0  0.44600  0.14800  0.39500  1.0000
  Ce  Ce10      1.0  0.05400  0.35200  0.39500  1.0000
  Ce  Ce11      1.0  0.94600  0.64800  0.60500  1.0000
  Ce  Ce12      1.0  0.55400  0.85200  0.60500  1.0000
  Ce  Ce13      1.0  0.75000  0.25000  0.61700  1.0000
  Ce  Ce14      1.0  0.15300  0.04330  0.62000  1.0000
  Ce  Ce15      1.0  0.34700  0.45700  0.62000  1.0000
  Ce  Ce16      1.0  0.45700  0.15300  0.88000  1.0000
  Ce  Ce17      1.0  0.04330  0.34700  0.88000  1.0000
  Ce  Ce18      1.0  0.25000  0.75000  0.88300  1.0000
  Ce  Ce19      1.0  0.64800  0.55400  0.89500  1.0000
  Ce  Ce20      1.0  0.85200  0.94600  0.89500  1.0000
  Se  Se1       1.0  0.44800  0.14900  0.06320  1.0000
  Se  Se2       1.0  0.05180  0.35100  0.06320  1.0000
  Se  Se3       1.0  0.25000  0.75000  0.06450  1.0000
  Se  Se4       1.0  0.65300  0.54900  0.07170  1.0000
  Se  Se5       1.0  0.84700  0.95100  0.07170  1.0000
  Se  Se6       1.0  0.43300  0.61600  0.24900  1.0000
  Se  Se7       1.0  0.06680  0.88400  0.24900  1.0000
  Se  Se8       1.0  0.97100  0.17400  0.25000  1.0000
  Se  Se9       1.0  0.52900  0.32600  0.25000  1.0000
  Se  Se10      1.0  0.75000  0.75000  0.25000  1.0000
  Se  Se11      1.0  0.17400  0.52900  0.25000  1.0000
  Se  Se12      1.0  0.32600  0.97100  0.25000  1.0000
  Se  Se13      1.0  0.61600  0.06680  0.25100  1.0000
  Se  Se14      1.0  0.88400  0.43300  0.25100  1.0000
  Se  Se15      1.0  0.95100  0.65300  0.42800  1.0000
  Se  Se16      1.0  0.54900  0.84700  0.42800  1.0000
  Se  Se17      1.0  0.75000  0.25000  0.43500  1.0000
  Se  Se18      1.0  0.14900  0.05180  0.43700  1.0000
  Se  Se19      1.0  0.35100  0.44800  0.43700  1.0000
  Se  Se20      1.0  0.64900  0.55200  0.56300  1.0000
  Se  Se21      1.0  0.85100  0.94800  0.56300  1.0000
  Se  Se22      1.0  0.25000  0.75000  0.56500  1.0000
  Se  Se23      1.0  0.45100  0.15300  0.57200  1.0000
  Se  Se24      1.0  0.04890  0.34700  0.57200  1.0000
  Se  Se25      1.0  0.11600  0.56700  0.74900  1.0000
  Se  Se26      1.0  0.38400  0.93300  0.74900  1.0000
  Se  Se27      1.0  0.67400  0.02950  0.75000  1.0000
  Se  Se28      1.0  0.82600  0.47100  0.75000  1.0000
  Se  Se29      1.0  0.25000  0.25000  0.75000  1.0000
  Se  Se30      1.0  0.47100  0.67400  0.75000  1.0000
  Se  Se31      1.0  0.02950  0.82600  0.75000  1.0000
  Se  Se32      1.0  0.93300  0.11600  0.75100  1.0000
  Se  Se33      1.0  0.56700  0.38400  0.75100  1.0000
  Se  Se34      1.0  0.15300  0.04890  0.92800  1.0000
  Se  Se35      1.0  0.34700  0.45100  0.92800  1.0000
  Se  Se36      1.0  0.75000  0.25000  0.93500  1.0000
  Se  Se37      1.0  0.94800  0.64900  0.93700  1.0000
  Se  Se38      1.0  0.55200  0.85100  0.93700  1.0000
