data_image0
_chemical_formula_structural       O36S8W4
_chemical_formula_sum              "O36 S8 W4"
_cell_length_a       7.24321
_cell_length_b       11.4686
_cell_length_c       7.6775
_cell_angle_alpha    90
_cell_angle_beta     106.941
_cell_angle_gamma    90

_space_group_name_H-M_alt    "P 1"
_space_group_IT_number       1

loop_
  _space_group_symop_operation_xyz
  'x, y, z'

loop_
  _atom_site_type_symbol
  _atom_site_label
  _atom_site_symmetry_multiplicity
  _atom_site_fract_x
  _atom_site_fract_y
  _atom_site_fract_z
  _atom_site_occupancy
  O   O1        1.0  0.17000  0.09360  0.01950  1.0000
  O   O2        1.0  0.47600  0.70000  0.05680  1.0000
  O   O3        1.0  0.80800  0.10600  0.08870  1.0000
  O   O4        1.0  0.16700  0.56300  0.10900  1.0000
  O   O5        1.0  0.99000  0.29300  0.10900  1.0000
  O   O6        1.0  0.85800  0.65400  0.12700  1.0000
  O   O7        1.0  0.65400  0.93800  0.19900  1.0000
  O   O8        1.0  0.17700  0.75200  0.21100  1.0000
  O   O9        1.0  0.49100  0.47800  0.21700  1.0000
  O   O10       1.0  0.00911  0.97800  0.28300  1.0000
  O   O11       1.0  0.32300  0.25200  0.28900  1.0000
  O   O12       1.0  0.84600  0.43800  0.30100  1.0000
  O   O13       1.0  0.64200  0.15400  0.37300  1.0000
  O   O14       1.0  0.51000  0.79300  0.39100  1.0000
  O   O15       1.0  0.33300  0.06300  0.39100  1.0000
  O   O16       1.0  0.69200  0.60600  0.41100  1.0000
  O   O17       1.0  0.02440  0.20000  0.44300  1.0000
  O   O18       1.0  0.33000  0.59400  0.48100  1.0000
  O   O19       1.0  0.67000  0.40600  0.51900  1.0000
  O   O20       1.0  0.97600  0.80000  0.55700  1.0000
  O   O21       1.0  0.30800  0.39400  0.58900  1.0000
  O   O22       1.0  0.66700  0.93700  0.60900  1.0000
  O   O23       1.0  0.49000  0.20700  0.60900  1.0000
  O   O24       1.0  0.35800  0.84600  0.62700  1.0000
  O   O25       1.0  0.15400  0.56200  0.69900  1.0000
  O   O26       1.0  0.67700  0.74800  0.71100  1.0000
  O   O27       1.0  0.99100  0.02230  0.71700  1.0000
  O   O28       1.0  0.50900  0.52200  0.78300  1.0000
  O   O29       1.0  0.82300  0.24800  0.78900  1.0000
  O   O30       1.0  0.34600  0.06170  0.80100  1.0000
  O   O31       1.0  0.14200  0.34600  0.87300  1.0000
  O   O32       1.0  0.01010  0.70700  0.89100  1.0000
  O   O33       1.0  0.83300  0.43700  0.89100  1.0000
  O   O34       1.0  0.19200  0.89400  0.91100  1.0000
  O   O35       1.0  0.52400  0.30000  0.94300  1.0000
  O   O36       1.0  0.83000  0.90600  0.98100  1.0000
  S   S1        1.0  0.03390  0.66900  0.08530  1.0000
  S   S2        1.0  0.81000  0.97500  0.13500  1.0000
  S   S3        1.0  0.69000  0.47500  0.36500  1.0000
  S   S4        1.0  0.46600  0.16900  0.41500  1.0000
  S   S5        1.0  0.53400  0.83100  0.58500  1.0000
  S   S6        1.0  0.31000  0.52500  0.63500  1.0000
  S   S7        1.0  0.19000  0.02520  0.86500  1.0000
  S   S8        1.0  0.96600  0.33100  0.91500  1.0000
  W   W1        1.0  0.42200  0.64900  0.24400  1.0000
  W   W2        1.0  0.07780  0.14900  0.25600  1.0000
  W   W3        1.0  0.92200  0.85100  0.74400  1.0000
  W   W4        1.0  0.57800  0.35100  0.75600  1.0000
