data_image0
_chemical_formula_structural       Br30C2Cs6Zr12
_chemical_formula_sum              "Br30 C2 Cs6 Zr12"
_cell_length_a       13.2914
_cell_length_b       13.2914
_cell_length_c       14.4247
_cell_angle_alpha    117.433
_cell_angle_beta     117.434
_cell_angle_gamma    60

_space_group_name_H-M_alt    "P 1"
_space_group_IT_number       1

loop_
  _space_group_symop_operation_xyz
  'x, y, z'

loop_
  _atom_site_type_symbol
  _atom_site_label
  _atom_site_symmetry_multiplicity
  _atom_site_fract_x
  _atom_site_fract_y
  _atom_site_fract_z
  _atom_site_occupancy
  Br  Br1       1.0  0.82600  0.33400  0.00379  1.0000
  Br  Br2       1.0  0.84400  0.82600  0.00379  1.0000
  Br  Br3       1.0  0.33400  0.84400  0.00379  1.0000
  Br  Br4       1.0  0.57600  0.24600  0.24600  1.0000
  Br  Br5       1.0  0.24600  0.42500  0.24600  1.0000
  Br  Br6       1.0  0.42500  0.57600  0.24600  1.0000
  Br  Br7       1.0  0.40400  0.09620  0.25000  1.0000
  Br  Br8       1.0  0.75000  0.40400  0.25000  1.0000
  Br  Br9       1.0  0.09620  0.75000  0.25000  1.0000
  Br  Br10      1.0  0.92400  0.07540  0.25400  1.0000
  Br  Br11      1.0  0.07540  0.25400  0.25400  1.0000
  Br  Br12      1.0  0.25400  0.92400  0.25400  1.0000
  Br  Br13      1.0  0.65600  0.16600  0.49600  1.0000
  Br  Br14      1.0  0.67400  0.65600  0.49600  1.0000
  Br  Br15      1.0  0.16600  0.67400  0.49600  1.0000
  Br  Br16      1.0  0.83400  0.32600  0.50400  1.0000
  Br  Br17      1.0  0.32600  0.34400  0.50400  1.0000
  Br  Br18      1.0  0.34400  0.83400  0.50400  1.0000
  Br  Br19      1.0  0.74600  0.07570  0.74600  1.0000
  Br  Br20      1.0  0.92500  0.74600  0.74600  1.0000
  Br  Br21      1.0  0.07570  0.92500  0.74600  1.0000
  Br  Br22      1.0  0.90400  0.25000  0.75000  1.0000
  Br  Br23      1.0  0.25000  0.59600  0.75000  1.0000
  Br  Br24      1.0  0.59600  0.90400  0.75000  1.0000
  Br  Br25      1.0  0.57500  0.42400  0.75400  1.0000
  Br  Br26      1.0  0.75400  0.57500  0.75400  1.0000
  Br  Br27      1.0  0.42400  0.75400  0.75400  1.0000
  Br  Br28      1.0  0.66600  0.15600  0.99600  1.0000
  Br  Br29      1.0  0.15600  0.17400  0.99600  1.0000
  Br  Br30      1.0  0.17400  0.66600  0.99600  1.0000
  C   C1        1.0  0.00000  0.00000  0.00000  1.0000
  C   C2        1.0  0.50000  0.50000  0.50000  1.0000
  Cs  Cs1       1.0  0.50000  0.00000  0.00000  1.0000
  Cs  Cs2       1.0  0.00000  0.50000  0.00000  1.0000
  Cs  Cs3       1.0  0.50000  0.50000  0.00000  1.0000
  Cs  Cs4       1.0  0.00000  0.00000  0.50000  1.0000
  Cs  Cs5       1.0  0.50000  0.00000  0.50000  1.0000
  Cs  Cs6       1.0  0.00000  0.50000  0.50000  1.0000
  Zr  Zr1       1.0  0.17200  0.04390  0.10800  1.0000
  Zr  Zr2       1.0  0.89300  0.17200  0.10800  1.0000
  Zr  Zr3       1.0  0.04390  0.89300  0.10800  1.0000
  Zr  Zr4       1.0  0.45600  0.32800  0.39200  1.0000
  Zr  Zr5       1.0  0.60700  0.45600  0.39200  1.0000
  Zr  Zr6       1.0  0.32800  0.60700  0.39200  1.0000
  Zr  Zr7       1.0  0.67200  0.39300  0.60800  1.0000
  Zr  Zr8       1.0  0.39300  0.54400  0.60800  1.0000
  Zr  Zr9       1.0  0.54400  0.67200  0.60800  1.0000
  Zr  Zr10      1.0  0.95600  0.10700  0.89200  1.0000
  Zr  Zr11      1.0  0.10700  0.82800  0.89200  1.0000
  Zr  Zr12      1.0  0.82800  0.95600  0.89200  1.0000
