data_image0
_chemical_formula_structural       Ni32U22
_chemical_formula_sum              "Ni32 U22"
_cell_length_a       9.59682
_cell_length_b       9.59682
_cell_length_c       9.59682
_cell_angle_alpha    75.0029
_cell_angle_beta     104.997
_cell_angle_gamma    104.997

_space_group_name_H-M_alt    "P 1"
_space_group_IT_number       1

loop_
  _space_group_symop_operation_xyz
  'x, y, z'

loop_
  _atom_site_type_symbol
  _atom_site_label
  _atom_site_symmetry_multiplicity
  _atom_site_fract_x
  _atom_site_fract_y
  _atom_site_fract_z
  _atom_site_occupancy
  Ni  Ni1       1.0  0.57400  0.27300  0.00789  1.0000
  Ni  Ni2       1.0  0.93800  0.06160  0.06160  1.0000
  Ni  Ni3       1.0  0.27900  0.84500  0.11200  1.0000
  Ni  Ni4       1.0  0.11200  0.27900  0.15500  1.0000
  Ni  Ni5       1.0  0.72500  0.44200  0.18200  1.0000
  Ni  Ni6       1.0  0.64800  0.66600  0.18600  1.0000
  Ni  Ni7       1.0  0.41500  0.65200  0.25700  1.0000
  Ni  Ni8       1.0  0.99200  0.42600  0.27300  1.0000
  Ni  Ni9       1.0  0.55800  0.18200  0.27500  1.0000
  Ni  Ni10      1.0  0.84500  0.88800  0.27900  1.0000
  Ni  Ni11      1.0  0.18600  0.64800  0.33400  1.0000
  Ni  Ni12      1.0  0.25700  0.41500  0.34800  1.0000
  Ni  Ni13      1.0  0.33400  0.18600  0.35200  1.0000
  Ni  Ni14      1.0  0.65200  0.74300  0.41500  1.0000
  Ni  Ni15      1.0  0.72700  0.00789  0.42600  1.0000
  Ni  Ni16      1.0  0.81800  0.27500  0.44200  1.0000
  Ni  Ni17      1.0  0.18200  0.72500  0.55800  1.0000
  Ni  Ni18      1.0  0.27300  0.99200  0.57400  1.0000
  Ni  Ni19      1.0  0.34800  0.25700  0.58500  1.0000
  Ni  Ni20      1.0  0.66600  0.81400  0.64800  1.0000
  Ni  Ni21      1.0  0.74300  0.58500  0.65200  1.0000
  Ni  Ni22      1.0  0.81400  0.35200  0.66600  1.0000
  Ni  Ni23      1.0  0.15500  0.11200  0.72100  1.0000
  Ni  Ni24      1.0  0.44200  0.81800  0.72500  1.0000
  Ni  Ni25      1.0  0.00789  0.57400  0.72700  1.0000
  Ni  Ni26      1.0  0.58500  0.34800  0.74300  1.0000
  Ni  Ni27      1.0  0.35200  0.33400  0.81400  1.0000
  Ni  Ni28      1.0  0.27500  0.55800  0.81800  1.0000
  Ni  Ni29      1.0  0.88800  0.72100  0.84500  1.0000
  Ni  Ni30      1.0  0.72100  0.15500  0.88800  1.0000
  Ni  Ni31      1.0  0.06160  0.93800  0.93800  1.0000
  Ni  Ni32      1.0  0.42600  0.72700  0.99200  1.0000
  U   U1        1.0  0.12500  0.58700  0.05240  1.0000
  U   U2        1.0  0.27800  0.14600  0.05650  1.0000
  U   U3        1.0  0.41400  0.42300  0.11600  1.0000
  U   U4        1.0  0.58700  0.94800  0.12500  1.0000
  U   U5        1.0  0.94300  0.72200  0.14600  1.0000
  U   U6        1.0  0.80600  0.19400  0.19400  1.0000
  U   U7        1.0  0.14600  0.94300  0.27800  1.0000
  U   U8        1.0  0.05240  0.12500  0.41300  1.0000
  U   U9        1.0  0.42300  0.88400  0.41400  1.0000
  U   U10       1.0  0.88400  0.58600  0.42300  1.0000
  U   U11       1.0  0.57200  0.42800  0.42800  1.0000
  U   U12       1.0  0.42800  0.57200  0.57200  1.0000
  U   U13       1.0  0.11600  0.41400  0.57700  1.0000
  U   U14       1.0  0.57700  0.11600  0.58600  1.0000
  U   U15       1.0  0.94800  0.87500  0.58700  1.0000
  U   U16       1.0  0.85400  0.05650  0.72200  1.0000
  U   U17       1.0  0.19400  0.80600  0.80600  1.0000
  U   U18       1.0  0.05650  0.27800  0.85400  1.0000
  U   U19       1.0  0.41300  0.05240  0.87500  1.0000
  U   U20       1.0  0.58600  0.57700  0.88400  1.0000
  U   U21       1.0  0.72200  0.85400  0.94300  1.0000
  U   U22       1.0  0.87500  0.41300  0.94800  1.0000
