data_image0
_chemical_formula_structural       Ca6Cu6O32P8
_chemical_formula_sum              "Ca6 Cu6 O32 P8"
_cell_length_a       17.662
_cell_length_b       4.87206
_cell_length_c       8.79386
_cell_angle_alpha    90
_cell_angle_beta     124.615
_cell_angle_gamma    90

_space_group_name_H-M_alt    "P 1"
_space_group_IT_number       1

loop_
  _space_group_symop_operation_xyz
  'x, y, z'

loop_
  _atom_site_type_symbol
  _atom_site_label
  _atom_site_symmetry_multiplicity
  _atom_site_fract_x
  _atom_site_fract_y
  _atom_site_fract_z
  _atom_site_occupancy
  Ca  Ca1       1.0  0.23400  0.96700  0.27100  1.0000
  Ca  Ca2       1.0  0.73400  0.53300  0.27100  1.0000
  Ca  Ca3       1.0  0.50000  0.00000  0.50000  1.0000
  Ca  Ca4       1.0  0.00000  0.50000  0.50000  1.0000
  Ca  Ca5       1.0  0.76600  0.03300  0.72900  1.0000
  Ca  Ca6       1.0  0.26600  0.46700  0.72900  1.0000
  Cu  Cu1       1.0  0.00000  0.00000  0.00000  1.0000
  Cu  Cu2       1.0  0.50000  0.50000  0.00000  1.0000
  Cu  Cu3       1.0  0.38000  0.96900  0.05520  1.0000
  Cu  Cu4       1.0  0.88000  0.53100  0.05520  1.0000
  Cu  Cu5       1.0  0.62000  0.03120  0.94500  1.0000
  Cu  Cu6       1.0  0.12000  0.46900  0.94500  1.0000
  O   O1        1.0  0.85200  0.93100  0.06490  1.0000
  O   O2        1.0  0.35200  0.56900  0.06490  1.0000
  O   O3        1.0  0.58000  0.81200  0.08380  1.0000
  O   O4        1.0  0.08010  0.68800  0.08380  1.0000
  O   O5        1.0  0.24000  0.53600  0.16200  1.0000
  O   O6        1.0  0.74000  0.96400  0.16200  1.0000
  O   O7        1.0  0.10100  0.20400  0.20900  1.0000
  O   O8        1.0  0.60100  0.29600  0.20900  1.0000
  O   O9        1.0  0.35600  0.16400  0.24900  1.0000
  O   O10       1.0  0.85600  0.33600  0.24900  1.0000
  O   O11       1.0  0.01040  0.56500  0.25700  1.0000
  O   O12       1.0  0.51000  0.93500  0.25700  1.0000
  O   O13       1.0  0.90200  0.86400  0.40000  1.0000
  O   O14       1.0  0.40200  0.63600  0.40000  1.0000
  O   O15       1.0  0.18300  0.60700  0.42600  1.0000
  O   O16       1.0  0.68300  0.89300  0.42600  1.0000
  O   O17       1.0  0.81700  0.39300  0.57400  1.0000
  O   O18       1.0  0.31700  0.10700  0.57400  1.0000
  O   O19       1.0  0.09800  0.13600  0.60000  1.0000
  O   O20       1.0  0.59800  0.36400  0.60000  1.0000
  O   O21       1.0  0.49000  0.06510  0.74300  1.0000
  O   O22       1.0  0.99000  0.43500  0.74300  1.0000
  O   O23       1.0  0.14400  0.66400  0.75100  1.0000
  O   O24       1.0  0.64400  0.83600  0.75100  1.0000
  O   O25       1.0  0.89900  0.79600  0.79100  1.0000
  O   O26       1.0  0.39900  0.70400  0.79100  1.0000
  O   O27       1.0  0.26000  0.03600  0.83800  1.0000
  O   O28       1.0  0.76000  0.46400  0.83800  1.0000
  O   O29       1.0  0.42000  0.18800  0.91600  1.0000
  O   O30       1.0  0.92000  0.31200  0.91600  1.0000
  O   O31       1.0  0.14800  0.06890  0.93500  1.0000
  O   O32       1.0  0.64800  0.43100  0.93500  1.0000
  P   P1        1.0  0.34100  0.47900  0.22100  1.0000
  P   P2        1.0  0.84100  0.02080  0.22100  1.0000
  P   P3        1.0  0.59400  0.98900  0.25100  1.0000
  P   P4        1.0  0.09430  0.51100  0.25100  1.0000
  P   P5        1.0  0.40600  0.01100  0.74900  1.0000
  P   P6        1.0  0.90600  0.48900  0.74900  1.0000
  P   P7        1.0  0.65900  0.52100  0.77900  1.0000
  P   P8        1.0  0.15900  0.97900  0.77900  1.0000
