data_image0
_chemical_formula_structural       Cu3F12H24Mn2O12
_chemical_formula_sum              "Cu3 F12 H24 Mn2 O12"
_cell_length_a       7.29207
_cell_length_b       7.29721
_cell_length_c       7.83507
_cell_angle_alpha    91.784
_cell_angle_beta     89.5896
_cell_angle_gamma    92.4123

_space_group_name_H-M_alt    "P 1"
_space_group_IT_number       1

loop_
  _space_group_symop_operation_xyz
  'x, y, z'

loop_
  _atom_site_type_symbol
  _atom_site_label
  _atom_site_symmetry_multiplicity
  _atom_site_fract_x
  _atom_site_fract_y
  _atom_site_fract_z
  _atom_site_occupancy
  Cu  Cu1       1.0  0.00000  0.00000  0.00000  1.0000
  Cu  Cu2       1.0  0.50000  0.50000  0.00000  1.0000
  Cu  Cu3       1.0  0.00000  0.50000  0.50000  1.0000
  F   F1        1.0  0.88800  0.71900  0.03350  1.0000
  F   F2        1.0  0.22200  0.60100  0.10600  1.0000
  F   F3        1.0  0.89600  0.41400  0.23500  1.0000
  F   F4        1.0  0.58200  0.91400  0.28200  1.0000
  F   F5        1.0  0.23300  0.99400  0.41100  1.0000
  F   F6        1.0  0.53900  0.23800  0.42300  1.0000
  F   F7        1.0  0.46100  0.76200  0.57700  1.0000
  F   F8        1.0  0.76700  0.00631  0.58900  1.0000
  F   F9        1.0  0.41800  0.08570  0.71800  1.0000
  F   F10       1.0  0.10400  0.58600  0.76500  1.0000
  F   F11       1.0  0.77800  0.39900  0.89400  1.0000
  F   F12       1.0  0.11200  0.28100  0.96600  1.0000
  H   H1        1.0  0.29900  0.85300  0.06010  1.0000
  H   H2        1.0  0.39000  0.15700  0.06520  1.0000
  H   H3        1.0  0.50700  0.25500  0.21300  1.0000
  H   H4        1.0  0.23700  0.97500  0.22400  1.0000
  H   H5        1.0  0.89300  0.20700  0.23400  1.0000
  H   H6        1.0  0.71600  0.52400  0.23900  1.0000
  H   H7        1.0  0.78500  0.00937  0.24600  1.0000
  H   H8        1.0  0.60000  0.70600  0.24800  1.0000
  H   H9        1.0  0.25300  0.54600  0.29400  1.0000
  H   H10       1.0  0.07020  0.83600  0.42800  1.0000
  H   H11       1.0  0.33900  0.59500  0.47700  1.0000
  H   H12       1.0  0.12500  0.17900  0.48900  1.0000
  H   H13       1.0  0.87500  0.82100  0.51100  1.0000
  H   H14       1.0  0.66100  0.40500  0.52300  1.0000
  H   H15       1.0  0.93000  0.16400  0.57200  1.0000
  H   H16       1.0  0.74700  0.45400  0.70600  1.0000
  H   H17       1.0  0.40000  0.29400  0.75200  1.0000
  H   H18       1.0  0.21500  0.99100  0.75400  1.0000
  H   H19       1.0  0.28400  0.47600  0.76100  1.0000
  H   H20       1.0  0.10700  0.79300  0.76600  1.0000
  H   H21       1.0  0.76300  0.02480  0.77600  1.0000
  H   H22       1.0  0.49200  0.74500  0.78700  1.0000
  H   H23       1.0  0.61000  0.84300  0.93500  1.0000
  H   H24       1.0  0.70100  0.14700  0.94000  1.0000
  Mn  Mn1       1.0  0.00000  0.50000  0.00000  1.0000
  Mn  Mn2       1.0  0.50000  0.00000  0.50000  1.0000
  O   O1        1.0  0.49300  0.24900  0.08690  1.0000
  O   O2        1.0  0.24700  0.97200  0.09440  1.0000
  O   O3        1.0  0.90700  0.07020  0.22500  1.0000
  O   O4        1.0  0.59100  0.57100  0.22600  1.0000
  O   O5        1.0  0.25200  0.50900  0.41600  1.0000
  O   O6        1.0  0.96000  0.75100  0.43800  1.0000
  O   O7        1.0  0.03960  0.24900  0.56200  1.0000
  O   O8        1.0  0.74800  0.49100  0.58400  1.0000
  O   O9        1.0  0.40900  0.42900  0.77400  1.0000
  O   O10       1.0  0.09290  0.93000  0.77500  1.0000
  O   O11       1.0  0.75300  0.02820  0.90600  1.0000
  O   O12       1.0  0.50700  0.75100  0.91300  1.0000
