data_image0
_chemical_formula_structural       As24Ga16Na16
_chemical_formula_sum              "As24 Ga16 Na16"
_cell_length_a       13.2768
_cell_length_b       6.76455
_cell_length_c       14.509
_cell_angle_alpha    90
_cell_angle_beta     89.8912
_cell_angle_gamma    90

_space_group_name_H-M_alt    "P 1"
_space_group_IT_number       1

loop_
  _space_group_symop_operation_xyz
  'x, y, z'

loop_
  _atom_site_type_symbol
  _atom_site_label
  _atom_site_symmetry_multiplicity
  _atom_site_fract_x
  _atom_site_fract_y
  _atom_site_fract_z
  _atom_site_occupancy
  As  As1       1.0  0.15900  0.55300  0.08430  1.0000
  As  As2       1.0  0.34000  0.05770  0.10100  1.0000
  As  As3       1.0  0.48000  0.53000  0.15400  1.0000
  As  As4       1.0  0.02980  0.03530  0.16700  1.0000
  As  As5       1.0  0.74800  0.83700  0.17300  1.0000
  As  As6       1.0  0.74900  0.20900  0.17800  1.0000
  As  As7       1.0  0.25100  0.70900  0.32200  1.0000
  As  As8       1.0  0.25200  0.33700  0.32700  1.0000
  As  As9       1.0  0.97000  0.53500  0.33300  1.0000
  As  As10      1.0  0.52000  0.03000  0.34600  1.0000
  As  As11      1.0  0.66000  0.55800  0.39900  1.0000
  As  As12      1.0  0.84100  0.05280  0.41600  1.0000
  As  As13      1.0  0.15900  0.94700  0.58400  1.0000
  As  As14      1.0  0.34000  0.44200  0.60100  1.0000
  As  As15      1.0  0.48000  0.97000  0.65400  1.0000
  As  As16      1.0  0.02980  0.46500  0.66700  1.0000
  As  As17      1.0  0.74800  0.66300  0.67300  1.0000
  As  As18      1.0  0.74900  0.29100  0.67800  1.0000
  As  As19      1.0  0.25100  0.79100  0.82200  1.0000
  As  As20      1.0  0.25200  0.16300  0.82700  1.0000
  As  As21      1.0  0.97000  0.96500  0.83300  1.0000
  As  As22      1.0  0.52000  0.47000  0.84600  1.0000
  As  As23      1.0  0.66000  0.94200  0.89900  1.0000
  As  As24      1.0  0.84100  0.44700  0.91600  1.0000
  Ga  Ga1       1.0  0.31800  0.71900  0.16000  1.0000
  Ga  Ga2       1.0  0.18700  0.24000  0.16900  1.0000
  Ga  Ga3       1.0  0.09060  0.71300  0.22900  1.0000
  Ga  Ga4       1.0  0.41300  0.23800  0.24100  1.0000
  Ga  Ga5       1.0  0.58700  0.73800  0.25900  1.0000
  Ga  Ga6       1.0  0.90900  0.21300  0.27100  1.0000
  Ga  Ga7       1.0  0.81300  0.74000  0.33100  1.0000
  Ga  Ga8       1.0  0.68200  0.21900  0.34000  1.0000
  Ga  Ga9       1.0  0.31800  0.78100  0.66000  1.0000
  Ga  Ga10      1.0  0.18700  0.26000  0.66900  1.0000
  Ga  Ga11      1.0  0.09060  0.78700  0.72900  1.0000
  Ga  Ga12      1.0  0.41300  0.26200  0.74100  1.0000
  Ga  Ga13      1.0  0.58700  0.76200  0.75900  1.0000
  Ga  Ga14      1.0  0.90900  0.28700  0.77100  1.0000
  Ga  Ga15      1.0  0.81300  0.76000  0.83100  1.0000
  Ga  Ga16      1.0  0.68200  0.28100  0.84000  1.0000
  Na  Na1       1.0  0.86000  0.04650  0.01120  1.0000
  Na  Na2       1.0  0.65400  0.57700  0.02230  1.0000
  Na  Na3       1.0  0.56500  0.09090  0.08790  1.0000
  Na  Na4       1.0  0.91600  0.54500  0.10900  1.0000
  Na  Na5       1.0  0.08420  0.04540  0.39100  1.0000
  Na  Na6       1.0  0.43500  0.59100  0.41200  1.0000
  Na  Na7       1.0  0.34600  0.07740  0.47800  1.0000
  Na  Na8       1.0  0.14000  0.54600  0.48900  1.0000
  Na  Na9       1.0  0.86000  0.45400  0.51100  1.0000
  Na  Na10      1.0  0.65400  0.92300  0.52200  1.0000
  Na  Na11      1.0  0.56500  0.40900  0.58800  1.0000
  Na  Na12      1.0  0.91600  0.95500  0.60900  1.0000
  Na  Na13      1.0  0.08420  0.45500  0.89100  1.0000
  Na  Na14      1.0  0.43500  0.90900  0.91200  1.0000
  Na  Na15      1.0  0.34600  0.42300  0.97800  1.0000
  Na  Na16      1.0  0.14000  0.95400  0.98900  1.0000
