data_image0
_chemical_formula_structural       La4Mo20O32
_chemical_formula_sum              "La4 Mo20 O32"
_cell_length_a       9.93276
_cell_length_b       9.13683
_cell_length_c       7.59862
_cell_angle_alpha    90
_cell_angle_beta     109.161
_cell_angle_gamma    90

_space_group_name_H-M_alt    "P 1"
_space_group_IT_number       1

loop_
  _space_group_symop_operation_xyz
  'x, y, z'

loop_
  _atom_site_type_symbol
  _atom_site_label
  _atom_site_symmetry_multiplicity
  _atom_site_fract_x
  _atom_site_fract_y
  _atom_site_fract_z
  _atom_site_occupancy
  La  La1       1.0  0.53800  0.49600  0.26300  1.0000
  La  La2       1.0  0.03810  0.00384  0.26300  1.0000
  La  La3       1.0  0.96200  0.99600  0.73700  1.0000
  La  La4       1.0  0.46200  0.50400  0.73700  1.0000
  Mo  Mo1       1.0  0.41400  0.87800  0.00290  1.0000
  Mo  Mo2       1.0  0.91400  0.62200  0.00290  1.0000
  Mo  Mo3       1.0  0.88400  0.37200  0.17300  1.0000
  Mo  Mo4       1.0  0.38400  0.12800  0.17300  1.0000
  Mo  Mo5       1.0  0.70100  0.87000  0.19100  1.0000
  Mo  Mo6       1.0  0.20100  0.63000  0.19100  1.0000
  Mo  Mo7       1.0  0.67600  0.11800  0.38400  1.0000
  Mo  Mo8       1.0  0.17600  0.38200  0.38400  1.0000
  Mo  Mo9       1.0  0.51300  0.88600  0.39500  1.0000
  Mo  Mo10      1.0  0.01320  0.61400  0.39500  1.0000
  Mo  Mo11      1.0  0.98700  0.38600  0.60500  1.0000
  Mo  Mo12      1.0  0.48700  0.11400  0.60500  1.0000
  Mo  Mo13      1.0  0.82400  0.61800  0.61600  1.0000
  Mo  Mo14      1.0  0.32400  0.88200  0.61600  1.0000
  Mo  Mo15      1.0  0.79900  0.37000  0.80900  1.0000
  Mo  Mo16      1.0  0.29900  0.13000  0.80900  1.0000
  Mo  Mo17      1.0  0.61600  0.87200  0.82700  1.0000
  Mo  Mo18      1.0  0.11600  0.62800  0.82700  1.0000
  Mo  Mo19      1.0  0.08580  0.37800  0.99700  1.0000
  Mo  Mo20      1.0  0.58600  0.12200  0.99700  1.0000
  O   O1        1.0  0.56600  0.72100  0.00109  1.0000
  O   O2        1.0  0.06600  0.77900  0.00109  1.0000
  O   O3        1.0  0.76900  0.00196  0.01260  1.0000
  O   O4        1.0  0.26900  0.49800  0.01260  1.0000
  O   O5        1.0  0.21000  0.24100  0.20000  1.0000
  O   O6        1.0  0.71000  0.25900  0.20000  1.0000
  O   O7        1.0  0.88500  0.75700  0.20500  1.0000
  O   O8        1.0  0.38500  0.74300  0.20500  1.0000
  O   O9        1.0  0.82600  0.49200  0.38200  1.0000
  O   O10       1.0  0.32600  0.00777  0.38200  1.0000
  O   O11       1.0  0.51300  0.25500  0.39200  1.0000
  O   O12       1.0  0.01280  0.24500  0.39200  1.0000
  O   O13       1.0  0.67100  0.73600  0.39500  1.0000
  O   O14       1.0  0.17100  0.76400  0.39500  1.0000
  O   O15       1.0  0.34900  0.50600  0.39800  1.0000
  O   O16       1.0  0.84900  0.99400  0.39800  1.0000
  O   O17       1.0  0.15100  0.00573  0.60200  1.0000
  O   O18       1.0  0.65100  0.49400  0.60200  1.0000
  O   O19       1.0  0.82900  0.23600  0.60500  1.0000
  O   O20       1.0  0.32900  0.26400  0.60500  1.0000
  O   O21       1.0  0.48700  0.74500  0.60800  1.0000
  O   O22       1.0  0.98700  0.75500  0.60800  1.0000
  O   O23       1.0  0.17400  0.50800  0.61800  1.0000
  O   O24       1.0  0.67400  0.99200  0.61800  1.0000
  O   O25       1.0  0.61500  0.25700  0.79500  1.0000
  O   O26       1.0  0.11500  0.24300  0.79500  1.0000
  O   O27       1.0  0.29000  0.74100  0.80000  1.0000
  O   O28       1.0  0.79000  0.75900  0.80000  1.0000
  O   O29       1.0  0.73100  0.50200  0.98700  1.0000
  O   O30       1.0  0.23100  0.99800  0.98700  1.0000
  O   O31       1.0  0.93400  0.22100  0.99900  1.0000
  O   O32       1.0  0.43400  0.27900  0.99900  1.0000
