data_image0
_chemical_formula_structural       Ba8Eu8O30Pt2Zn6
_chemical_formula_sum              "Ba8 Eu8 O30 Pt2 Zn6"
_cell_length_a       11.6183
_cell_length_b       11.6173
_cell_length_c       6.77787
_cell_angle_alpha    90
_cell_angle_beta     90
_cell_angle_gamma    120.003

_space_group_name_H-M_alt    "P 1"
_space_group_IT_number       1

loop_
  _space_group_symop_operation_xyz
  'x, y, z'

loop_
  _atom_site_type_symbol
  _atom_site_label
  _atom_site_symmetry_multiplicity
  _atom_site_fract_x
  _atom_site_fract_y
  _atom_site_fract_z
  _atom_site_occupancy
  Ba  Ba1       1.0  0.83400  0.66900  0.16300  1.0000
  Ba  Ba2       1.0  0.33100  0.16600  0.16300  1.0000
  Ba  Ba3       1.0  0.83400  0.16600  0.16300  1.0000
  Ba  Ba4       1.0  0.33300  0.66700  0.33200  1.0000
  Ba  Ba5       1.0  0.16600  0.33100  0.66300  1.0000
  Ba  Ba6       1.0  0.16600  0.83400  0.66300  1.0000
  Ba  Ba7       1.0  0.66900  0.83400  0.66300  1.0000
  Ba  Ba8       1.0  0.66700  0.33300  0.83200  1.0000
  Eu  Eu1       1.0  0.04520  0.52300  0.01610  1.0000
  Eu  Eu2       1.0  0.47700  0.52300  0.01610  1.0000
  Eu  Eu3       1.0  0.47700  0.95500  0.01610  1.0000
  Eu  Eu4       1.0  0.00000  0.00000  0.31600  1.0000
  Eu  Eu5       1.0  0.52300  0.47700  0.51600  1.0000
  Eu  Eu6       1.0  0.95500  0.47700  0.51600  1.0000
  Eu  Eu7       1.0  0.52300  0.04530  0.51600  1.0000
  Eu  Eu8       1.0  0.00000  0.00000  0.81600  1.0000
  O   O1        1.0  0.08740  0.91300  0.04660  1.0000
  O   O2        1.0  0.82500  0.91300  0.04660  1.0000
  O   O3        1.0  0.08740  0.17500  0.04660  1.0000
  O   O4        1.0  0.58600  0.17100  0.15900  1.0000
  O   O5        1.0  0.58600  0.41400  0.15900  1.0000
  O   O6        1.0  0.82900  0.41400  0.15900  1.0000
  O   O7        1.0  0.33200  0.93900  0.31200  1.0000
  O   O8        1.0  0.60600  0.93900  0.31200  1.0000
  O   O9        1.0  0.06140  0.39400  0.31200  1.0000
  O   O10       1.0  0.33200  0.39400  0.31200  1.0000
  O   O11       1.0  0.06140  0.66800  0.31200  1.0000
  O   O12       1.0  0.60600  0.66800  0.31200  1.0000
  O   O13       1.0  0.74700  0.49400  0.48900  1.0000
  O   O14       1.0  0.50600  0.25300  0.48900  1.0000
  O   O15       1.0  0.74700  0.25300  0.48900  1.0000
  O   O16       1.0  0.17500  0.08740  0.54700  1.0000
  O   O17       1.0  0.91300  0.08740  0.54700  1.0000
  O   O18       1.0  0.91300  0.82500  0.54700  1.0000
  O   O19       1.0  0.41400  0.82900  0.65900  1.0000
  O   O20       1.0  0.17100  0.58600  0.65900  1.0000
  O   O21       1.0  0.41400  0.58600  0.65900  1.0000
  O   O22       1.0  0.39400  0.06140  0.81200  1.0000
  O   O23       1.0  0.66800  0.06140  0.81200  1.0000
  O   O24       1.0  0.66800  0.60600  0.81200  1.0000
  O   O25       1.0  0.93900  0.60600  0.81200  1.0000
  O   O26       1.0  0.39400  0.33200  0.81200  1.0000
  O   O27       1.0  0.93900  0.33200  0.81200  1.0000
  O   O28       1.0  0.25300  0.50600  0.98900  1.0000
  O   O29       1.0  0.25300  0.74700  0.98900  1.0000
  O   O30       1.0  0.49400  0.74700  0.98900  1.0000
  Pt  Pt1       1.0  0.66700  0.33300  0.31700  1.0000
  Pt  Pt2       1.0  0.33300  0.66700  0.81700  1.0000
  Zn  Zn1       1.0  0.17100  0.82900  0.17400  1.0000
  Zn  Zn2       1.0  0.65900  0.82900  0.17400  1.0000
  Zn  Zn3       1.0  0.17100  0.34100  0.17400  1.0000
  Zn  Zn4       1.0  0.34100  0.17100  0.67400  1.0000
  Zn  Zn5       1.0  0.82900  0.17100  0.67400  1.0000
  Zn  Zn6       1.0  0.82900  0.65900  0.67400  1.0000
