data_image0
_chemical_formula_structural       Be17Ca12O29
_chemical_formula_sum              "Be17 Ca12 O29"
_cell_length_a       9.85262
_cell_length_b       9.85262
_cell_length_c       9.85262
_cell_angle_alpha    120
_cell_angle_beta     90
_cell_angle_gamma    120

_space_group_name_H-M_alt    "P 1"
_space_group_IT_number       1

loop_
  _space_group_symop_operation_xyz
  'x, y, z'

loop_
  _atom_site_type_symbol
  _atom_site_label
  _atom_site_symmetry_multiplicity
  _atom_site_fract_x
  _atom_site_fract_y
  _atom_site_fract_z
  _atom_site_occupancy
  Be  Be1       1.0  0.67400  0.34900  0.02290  1.0000
  Be  Be2       1.0  0.36200  0.72500  0.08740  1.0000
  Be  Be3       1.0  0.46800  0.31200  0.15600  1.0000
  Be  Be4       1.0  0.84400  0.31200  0.15600  1.0000
  Be  Be5       1.0  0.84400  0.68800  0.15600  1.0000
  Be  Be6       1.0  0.67400  0.34900  0.32600  1.0000
  Be  Be7       1.0  0.67400  0.65100  0.32600  1.0000
  Be  Be8       1.0  0.97700  0.65100  0.32600  1.0000
  Be  Be9       1.0  0.15800  0.31600  0.47400  1.0000
  Be  Be10      1.0  0.50000  0.00000  0.50000  1.0000
  Be  Be11      1.0  0.84400  0.68800  0.53200  1.0000
  Be  Be12      1.0  0.36200  0.27500  0.63800  1.0000
  Be  Be13      1.0  0.91300  0.27500  0.63800  1.0000
  Be  Be14      1.0  0.36200  0.72500  0.63800  1.0000
  Be  Be15      1.0  0.15800  0.31600  0.84200  1.0000
  Be  Be16      1.0  0.15800  0.68400  0.84200  1.0000
  Be  Be17      1.0  0.52600  0.68400  0.84200  1.0000
  Ca  Ca1       1.0  0.70600  0.00000  0.29400  1.0000
  Ca  Ca2       1.0  0.29400  0.00000  0.29400  1.0000
  Ca  Ca3       1.0  0.29400  0.58700  0.29400  1.0000
  Ca  Ca4       1.0  0.00409  0.00819  0.50400  1.0000
  Ca  Ca5       1.0  0.00409  0.50000  0.50400  1.0000
  Ca  Ca6       1.0  0.49600  0.50000  0.50400  1.0000
  Ca  Ca7       1.0  0.29400  0.00000  0.70600  1.0000
  Ca  Ca8       1.0  0.70600  0.00000  0.70600  1.0000
  Ca  Ca9       1.0  0.70600  0.41300  0.70600  1.0000
  Ca  Ca10      1.0  0.00409  0.50000  0.99600  1.0000
  Ca  Ca11      1.0  0.49600  0.50000  0.99600  1.0000
  Ca  Ca12      1.0  0.49600  0.99200  0.99600  1.0000
  O   O1        1.0  0.24900  0.77300  0.02180  1.0000
  O   O2        1.0  0.52400  0.77300  0.02180  1.0000
  O   O3        1.0  0.24900  0.49800  0.02180  1.0000
  O   O4        1.0  0.47500  0.22600  0.24900  1.0000
  O   O5        1.0  0.02360  0.49800  0.24900  1.0000
  O   O6        1.0  0.47500  0.49800  0.24900  1.0000
  O   O7        1.0  0.75100  0.22600  0.24900  1.0000
  O   O8        1.0  0.02360  0.77400  0.24900  1.0000
  O   O9        1.0  0.75100  0.77400  0.24900  1.0000
  O   O10       1.0  0.75000  0.50000  0.25000  1.0000
  O   O11       1.0  0.43100  0.86200  0.29300  1.0000
  O   O12       1.0  0.97800  0.22700  0.47600  1.0000
  O   O13       1.0  0.24900  0.22700  0.47600  1.0000
  O   O14       1.0  0.24900  0.49800  0.47600  1.0000
  O   O15       1.0  0.75100  0.50200  0.52500  1.0000
  O   O16       1.0  0.75100  0.77400  0.52500  1.0000
  O   O17       1.0  0.02360  0.77400  0.52500  1.0000
  O   O18       1.0  0.43100  0.13800  0.56900  1.0000
  O   O19       1.0  0.43100  0.86200  0.56900  1.0000
  O   O20       1.0  0.70700  0.13800  0.56900  1.0000
  O   O21       1.0  0.24900  0.22700  0.75100  1.0000
  O   O22       1.0  0.97800  0.22700  0.75100  1.0000
  O   O23       1.0  0.52400  0.50200  0.75100  1.0000
  O   O24       1.0  0.97800  0.50200  0.75100  1.0000
  O   O25       1.0  0.24900  0.77300  0.75100  1.0000
  O   O26       1.0  0.52400  0.77300  0.75100  1.0000
  O   O27       1.0  0.47500  0.22600  0.97600  1.0000
  O   O28       1.0  0.75100  0.22600  0.97600  1.0000
  O   O29       1.0  0.75100  0.50200  0.97600  1.0000
