data_image0
_chemical_formula_structural       C4Cl4F2H26O16
_chemical_formula_sum              "C4 Cl4 F2 H26 O16"
_cell_length_a       9.47057
_cell_length_b       7.97518
_cell_length_c       8.37989
_cell_angle_alpha    84.8201
_cell_angle_beta     55.4821
_cell_angle_gamma    62.0268

_space_group_name_H-M_alt    "P 1"
_space_group_IT_number       1

loop_
  _space_group_symop_operation_xyz
  'x, y, z'

loop_
  _atom_site_type_symbol
  _atom_site_label
  _atom_site_symmetry_multiplicity
  _atom_site_fract_x
  _atom_site_fract_y
  _atom_site_fract_z
  _atom_site_occupancy
  C   C1        1.0  0.74300  0.43200  0.09110  1.0000
  C   C2        1.0  0.60600  0.65900  0.17000  1.0000
  C   C3        1.0  0.39400  0.34100  0.83000  1.0000
  C   C4        1.0  0.25700  0.56800  0.90900  1.0000
  Cl  Cl1       1.0  0.44100  0.74900  0.10900  1.0000
  Cl  Cl2       1.0  0.47800  0.72200  0.43300  1.0000
  Cl  Cl3       1.0  0.52200  0.27800  0.56700  1.0000
  Cl  Cl4       1.0  0.55900  0.25100  0.89100  1.0000
  F   F1        1.0  0.72200  0.74600  0.08320  1.0000
  F   F2        1.0  0.27800  0.25400  0.91700  1.0000
  H   H1        1.0  0.15700  0.88400  0.05080  1.0000
  H   H2        1.0  0.99800  0.11600  0.11200  1.0000
  H   H3        1.0  0.92200  0.45100  0.14600  1.0000
  H   H4        1.0  0.86800  0.72700  0.24400  1.0000
  H   H5        1.0  0.77500  0.97900  0.24600  1.0000
  H   H6        1.0  0.69800  0.96500  0.25400  1.0000
  H   H7        1.0  0.24100  0.51000  0.26700  1.0000
  H   H8        1.0  0.42300  0.43500  0.27700  1.0000
  H   H9        1.0  0.02330  0.08980  0.31800  1.0000
  H   H10       1.0  0.29200  0.27100  0.37600  1.0000
  H   H11       1.0  0.13500  0.15800  0.39100  1.0000
  H   H12       1.0  0.34300  0.05940  0.43100  1.0000
  H   H13       1.0  0.88600  0.31200  0.49200  1.0000
  H   H14       1.0  0.11400  0.68800  0.50800  1.0000
  H   H15       1.0  0.65700  0.94100  0.56900  1.0000
  H   H16       1.0  0.86500  0.84200  0.60900  1.0000
  H   H17       1.0  0.70800  0.72900  0.62400  1.0000
  H   H18       1.0  0.97700  0.91000  0.68300  1.0000
  H   H19       1.0  0.57700  0.56500  0.72300  1.0000
  H   H20       1.0  0.75900  0.49000  0.73300  1.0000
  H   H21       1.0  0.30200  0.03460  0.74600  1.0000
  H   H22       1.0  0.22500  0.02140  0.75400  1.0000
  H   H23       1.0  0.13200  0.27300  0.75600  1.0000
  H   H24       1.0  0.07850  0.54900  0.85400  1.0000
  H   H25       1.0  0.00156  0.88400  0.88800  1.0000
  H   H26       1.0  0.84300  0.11600  0.94900  1.0000
  O   O1        1.0  0.88100  0.36100  0.13300  1.0000
  O   O2        1.0  0.14100  0.59900  0.13700  1.0000
  O   O3        1.0  0.65300  0.33400  0.13800  1.0000
  O   O4        1.0  0.03480  0.99900  0.16500  1.0000
  O   O5        1.0  0.95900  0.59300  0.23600  1.0000
  O   O6        1.0  0.31000  0.13900  0.34900  1.0000
  O   O7        1.0  0.27500  0.47900  0.36300  1.0000
  O   O8        1.0  0.00258  0.17100  0.42800  1.0000
  O   O9        1.0  0.99700  0.82900  0.57200  1.0000
  O   O10       1.0  0.72500  0.52100  0.63700  1.0000
  O   O11       1.0  0.69000  0.86100  0.65100  1.0000
  O   O12       1.0  0.04110  0.40700  0.76400  1.0000
  O   O13       1.0  0.96500  0.00113  0.83500  1.0000
  O   O14       1.0  0.34700  0.66600  0.86200  1.0000
  O   O15       1.0  0.85900  0.40100  0.86300  1.0000
  O   O16       1.0  0.11900  0.63900  0.86700  1.0000
