data_image0
_chemical_formula_structural       Mo20O32Pr4
_chemical_formula_sum              "Mo20 O32 Pr4"
_cell_length_a       7.58667
_cell_length_b       9.09964
_cell_length_c       9.91924
_cell_angle_alpha    90
_cell_angle_beta     109.376
_cell_angle_gamma    90

_space_group_name_H-M_alt    "P 1"
_space_group_IT_number       1

loop_
  _space_group_symop_operation_xyz
  'x, y, z'

loop_
  _atom_site_type_symbol
  _atom_site_label
  _atom_site_symmetry_multiplicity
  _atom_site_fract_x
  _atom_site_fract_y
  _atom_site_fract_z
  _atom_site_occupancy
  Mo  Mo1       1.0  0.39600  0.38500  0.01320  1.0000
  Mo  Mo2       1.0  0.99700  0.62300  0.08580  1.0000
  Mo  Mo3       1.0  0.82800  0.37200  0.11700  1.0000
  Mo  Mo4       1.0  0.38400  0.61800  0.17600  1.0000
  Mo  Mo5       1.0  0.19200  0.37000  0.20100  1.0000
  Mo  Mo6       1.0  0.80800  0.87000  0.29900  1.0000
  Mo  Mo7       1.0  0.61600  0.11800  0.32400  1.0000
  Mo  Mo8       1.0  0.17200  0.87200  0.38300  1.0000
  Mo  Mo9       1.0  0.00285  0.12300  0.41400  1.0000
  Mo  Mo10      1.0  0.60400  0.88500  0.48700  1.0000
  Mo  Mo11      1.0  0.39600  0.11500  0.51300  1.0000
  Mo  Mo12      1.0  0.99700  0.87700  0.58600  1.0000
  Mo  Mo13      1.0  0.82800  0.12800  0.61700  1.0000
  Mo  Mo14      1.0  0.38400  0.88200  0.67600  1.0000
  Mo  Mo15      1.0  0.19200  0.13000  0.70100  1.0000
  Mo  Mo16      1.0  0.80800  0.63000  0.79900  1.0000
  Mo  Mo17      1.0  0.61600  0.38200  0.82400  1.0000
  Mo  Mo18      1.0  0.17200  0.62800  0.88300  1.0000
  Mo  Mo19      1.0  0.00285  0.37700  0.91400  1.0000
  Mo  Mo20      1.0  0.60400  0.61500  0.98700  1.0000
  O   O1        1.0  0.39100  0.75600  0.01200  1.0000
  O   O2        1.0  0.00135  0.21900  0.06620  1.0000
  O   O3        1.0  0.79500  0.75900  0.11400  1.0000
  O   O4        1.0  0.60100  0.99500  0.15000  1.0000
  O   O5        1.0  0.39400  0.23500  0.17000  1.0000
  O   O6        1.0  0.61900  0.49300  0.17500  1.0000
  O   O7        1.0  0.20000  0.76000  0.20800  1.0000
  O   O8        1.0  0.98500  0.00269  0.23000  1.0000
  O   O9        1.0  0.01490  0.50300  0.27000  1.0000
  O   O10       1.0  0.80000  0.26000  0.29200  1.0000
  O   O11       1.0  0.38100  0.99300  0.32500  1.0000
  O   O12       1.0  0.60600  0.73500  0.33000  1.0000
  O   O13       1.0  0.39900  0.49500  0.35000  1.0000
  O   O14       1.0  0.20500  0.25900  0.38600  1.0000
  O   O15       1.0  0.99900  0.71900  0.43400  1.0000
  O   O16       1.0  0.60900  0.25600  0.48800  1.0000
  O   O17       1.0  0.39100  0.74400  0.51200  1.0000
  O   O18       1.0  0.00135  0.28100  0.56600  1.0000
  O   O19       1.0  0.79500  0.74100  0.61400  1.0000
  O   O20       1.0  0.60100  0.50500  0.65000  1.0000
  O   O21       1.0  0.39400  0.26500  0.67000  1.0000
  O   O22       1.0  0.61900  0.00720  0.67500  1.0000
  O   O23       1.0  0.20000  0.74000  0.70800  1.0000
  O   O24       1.0  0.98500  0.49700  0.73000  1.0000
  O   O25       1.0  0.01490  0.99700  0.77000  1.0000
  O   O26       1.0  0.80000  0.24000  0.79200  1.0000
  O   O27       1.0  0.38100  0.50700  0.82500  1.0000
  O   O28       1.0  0.60600  0.76500  0.83000  1.0000
  O   O29       1.0  0.39900  0.00539  0.85000  1.0000
  O   O30       1.0  0.20500  0.24100  0.88600  1.0000
  O   O31       1.0  0.99900  0.78100  0.93400  1.0000
  O   O32       1.0  0.60900  0.24400  0.98800  1.0000
  Pr  Pr1       1.0  0.26300  0.99700  0.03700  1.0000
  Pr  Pr2       1.0  0.73700  0.49700  0.46300  1.0000
  Pr  Pr3       1.0  0.26300  0.50300  0.53700  1.0000
  Pr  Pr4       1.0  0.73700  0.00318  0.96300  1.0000
