data_image0
_chemical_formula_structural       Eu4Mo20O32
_chemical_formula_sum              "Eu4 Mo20 O32"
_cell_length_a       7.56054
_cell_length_b       9.11392
_cell_length_c       9.94615
_cell_angle_alpha    90
_cell_angle_beta     109.711
_cell_angle_gamma    90

_space_group_name_H-M_alt    "P 1"
_space_group_IT_number       1

loop_
  _space_group_symop_operation_xyz
  'x, y, z'

loop_
  _atom_site_type_symbol
  _atom_site_label
  _atom_site_symmetry_multiplicity
  _atom_site_fract_x
  _atom_site_fract_y
  _atom_site_fract_z
  _atom_site_occupancy
  Eu  Eu1       1.0  0.25900  0.99700  0.03450  1.0000
  Eu  Eu2       1.0  0.74100  0.49700  0.46500  1.0000
  Eu  Eu3       1.0  0.25900  0.50300  0.53500  1.0000
  Eu  Eu4       1.0  0.74100  0.00338  0.96500  1.0000
  Mo  Mo1       1.0  0.39100  0.38500  0.01650  1.0000
  Mo  Mo2       1.0  0.99800  0.62300  0.08630  1.0000
  Mo  Mo3       1.0  0.82400  0.37200  0.11400  1.0000
  Mo  Mo4       1.0  0.38200  0.61600  0.18100  1.0000
  Mo  Mo5       1.0  0.18800  0.36800  0.20100  1.0000
  Mo  Mo6       1.0  0.81200  0.86800  0.29900  1.0000
  Mo  Mo7       1.0  0.61800  0.11600  0.31900  1.0000
  Mo  Mo8       1.0  0.17600  0.87200  0.38600  1.0000
  Mo  Mo9       1.0  0.00199  0.12300  0.41400  1.0000
  Mo  Mo10      1.0  0.60900  0.88500  0.48400  1.0000
  Mo  Mo11      1.0  0.39100  0.11500  0.51600  1.0000
  Mo  Mo12      1.0  0.99800  0.87700  0.58600  1.0000
  Mo  Mo13      1.0  0.82400  0.12800  0.61400  1.0000
  Mo  Mo14      1.0  0.38200  0.88400  0.68100  1.0000
  Mo  Mo15      1.0  0.18800  0.13200  0.70100  1.0000
  Mo  Mo16      1.0  0.81200  0.63200  0.79900  1.0000
  Mo  Mo17      1.0  0.61800  0.38400  0.81900  1.0000
  Mo  Mo18      1.0  0.17600  0.62800  0.88600  1.0000
  Mo  Mo19      1.0  0.00199  0.37700  0.91400  1.0000
  Mo  Mo20      1.0  0.60900  0.61500  0.98400  1.0000
  O   O1        1.0  0.39900  0.75000  0.01960  1.0000
  O   O2        1.0  0.99500  0.22000  0.06420  1.0000
  O   O3        1.0  0.79700  0.75600  0.11500  1.0000
  O   O4        1.0  0.60300  0.99500  0.15500  1.0000
  O   O5        1.0  0.39500  0.23700  0.17100  1.0000
  O   O6        1.0  0.61900  0.49900  0.17200  1.0000
  O   O7        1.0  0.20400  0.75500  0.21500  1.0000
  O   O8        1.0  0.98800  0.00159  0.23300  1.0000
  O   O9        1.0  0.01150  0.50200  0.26700  1.0000
  O   O10       1.0  0.79600  0.25500  0.28500  1.0000
  O   O11       1.0  0.38100  0.99900  0.32800  1.0000
  O   O12       1.0  0.60500  0.73700  0.32900  1.0000
  O   O13       1.0  0.39700  0.49500  0.34500  1.0000
  O   O14       1.0  0.20300  0.25600  0.38500  1.0000
  O   O15       1.0  0.00480  0.72000  0.43600  1.0000
  O   O16       1.0  0.60100  0.25000  0.48000  1.0000
  O   O17       1.0  0.39900  0.75000  0.52000  1.0000
  O   O18       1.0  0.99500  0.28000  0.56400  1.0000
  O   O19       1.0  0.79700  0.74400  0.61500  1.0000
  O   O20       1.0  0.60300  0.50500  0.65500  1.0000
  O   O21       1.0  0.39500  0.26300  0.67100  1.0000
  O   O22       1.0  0.61900  0.00115  0.67200  1.0000
  O   O23       1.0  0.20400  0.74500  0.71500  1.0000
  O   O24       1.0  0.98800  0.49800  0.73300  1.0000
  O   O25       1.0  0.01150  0.99800  0.76700  1.0000
  O   O26       1.0  0.79600  0.24500  0.78500  1.0000
  O   O27       1.0  0.38100  0.50100  0.82800  1.0000
  O   O28       1.0  0.60500  0.76300  0.82900  1.0000
  O   O29       1.0  0.39700  0.00524  0.84500  1.0000
  O   O30       1.0  0.20300  0.24400  0.88500  1.0000
  O   O31       1.0  0.00480  0.78000  0.93600  1.0000
  O   O32       1.0  0.60100  0.25000  0.98000  1.0000
