data_image0
_chemical_formula_structural       Bi4K8Mo4O32P4
_chemical_formula_sum              "Bi4 K8 Mo4 O32 P4"
_cell_length_a       7.01262
_cell_length_b       12.0987
_cell_length_c       12.0987
_cell_angle_alpha    107.78
_cell_angle_beta     106.847
_cell_angle_gamma    106.847

_space_group_name_H-M_alt    "P 1"
_space_group_IT_number       1

loop_
  _space_group_symop_operation_xyz
  'x, y, z'

loop_
  _atom_site_type_symbol
  _atom_site_label
  _atom_site_symmetry_multiplicity
  _atom_site_fract_x
  _atom_site_fract_y
  _atom_site_fract_z
  _atom_site_occupancy
  Bi  Bi1       1.0  0.92200  0.67200  0.17200  1.0000
  Bi  Bi2       1.0  0.57800  0.82800  0.32800  1.0000
  Bi  Bi3       1.0  0.42200  0.17200  0.67200  1.0000
  Bi  Bi4       1.0  0.07840  0.32800  0.82800  1.0000
  K   K1        1.0  0.45500  0.26400  0.07640  1.0000
  K   K2        1.0  0.11500  0.42400  0.23600  1.0000
  K   K3        1.0  0.95500  0.07640  0.26400  1.0000
  K   K4        1.0  0.61500  0.23600  0.42400  1.0000
  K   K5        1.0  0.38500  0.76400  0.57600  1.0000
  K   K6        1.0  0.04520  0.92400  0.73600  1.0000
  K   K7        1.0  0.88500  0.57600  0.76400  1.0000
  K   K8        1.0  0.54500  0.73600  0.92400  1.0000
  Mo  Mo1       1.0  0.25000  0.92000  0.08010  1.0000
  Mo  Mo2       1.0  0.75000  0.58000  0.42000  1.0000
  Mo  Mo3       1.0  0.25000  0.42000  0.58000  1.0000
  Mo  Mo4       1.0  0.75000  0.08010  0.92000  1.0000
  O   O1        1.0  0.27900  0.43600  0.06260  1.0000
  O   O2        1.0  0.78000  0.43700  0.06370  1.0000
  O   O3        1.0  0.80100  0.14400  0.08390  1.0000
  O   O4        1.0  0.01030  0.83700  0.09880  1.0000
  O   O5        1.0  0.57000  0.66300  0.13900  1.0000
  O   O6        1.0  0.30100  0.08390  0.14400  1.0000
  O   O7        1.0  0.23100  0.63900  0.16300  1.0000
  O   O8        1.0  0.49000  0.90100  0.16300  1.0000
  O   O9        1.0  0.92500  0.59900  0.33700  1.0000
  O   O10       1.0  0.93000  0.86100  0.33700  1.0000
  O   O11       1.0  0.57300  0.41600  0.35600  1.0000
  O   O12       1.0  0.26900  0.83700  0.36100  1.0000
  O   O13       1.0  0.57500  0.66300  0.40100  1.0000
  O   O14       1.0  0.07330  0.35600  0.41600  1.0000
  O   O15       1.0  0.77900  0.06260  0.43600  1.0000
  O   O16       1.0  0.28000  0.06370  0.43700  1.0000
  O   O17       1.0  0.72000  0.93600  0.56300  1.0000
  O   O18       1.0  0.22100  0.93700  0.56400  1.0000
  O   O19       1.0  0.92700  0.64400  0.58400  1.0000
  O   O20       1.0  0.42500  0.33700  0.59900  1.0000
  O   O21       1.0  0.73100  0.16300  0.63900  1.0000
  O   O22       1.0  0.42700  0.58400  0.64400  1.0000
  O   O23       1.0  0.07050  0.13900  0.66300  1.0000
  O   O24       1.0  0.07480  0.40100  0.66300  1.0000
  O   O25       1.0  0.51000  0.09880  0.83700  1.0000
  O   O26       1.0  0.76900  0.36100  0.83700  1.0000
  O   O27       1.0  0.69900  0.91600  0.85600  1.0000
  O   O28       1.0  0.43000  0.33700  0.86100  1.0000
  O   O29       1.0  0.99000  0.16300  0.90100  1.0000
  O   O30       1.0  0.19900  0.85600  0.91600  1.0000
  O   O31       1.0  0.22000  0.56300  0.93600  1.0000
  O   O32       1.0  0.72100  0.56400  0.93700  1.0000
  P   P1        1.0  0.32200  0.57200  0.07210  1.0000
  P   P2        1.0  0.17800  0.92800  0.42800  1.0000
  P   P3        1.0  0.82200  0.07210  0.57200  1.0000
  P   P4        1.0  0.67800  0.42800  0.92800  1.0000
