data_image0
_chemical_formula_structural       Al42Pt16
_chemical_formula_sum              "Al42 Pt16"
_cell_length_a       10.675
_cell_length_b       10.675
_cell_length_c       10.675
_cell_angle_alpha    119.556
_cell_angle_beta     104.676
_cell_angle_gamma    104.676

_space_group_name_H-M_alt    "P 1"
_space_group_IT_number       1

loop_
  _space_group_symop_operation_xyz
  'x, y, z'

loop_
  _atom_site_type_symbol
  _atom_site_label
  _atom_site_symmetry_multiplicity
  _atom_site_fract_x
  _atom_site_fract_y
  _atom_site_fract_z
  _atom_site_occupancy
  Al  Al1       1.0  0.00000  0.00000  0.00000  1.0000
  Al  Al2       1.0  0.07190  0.51500  0.00638  1.0000
  Al  Al3       1.0  0.29100  0.73900  0.01160  1.0000
  Al  Al4       1.0  0.84000  0.39000  0.05370  1.0000
  Al  Al5       1.0  0.50900  0.99400  0.06550  1.0000
  Al  Al6       1.0  0.66300  0.59300  0.11500  1.0000
  Al  Al7       1.0  0.83700  0.15700  0.13500  1.0000
  Al  Al8       1.0  0.99100  0.75600  0.18400  1.0000
  Al  Al9       1.0  0.66000  0.36000  0.19600  1.0000
  Al  Al10      1.0  0.20900  0.01070  0.23800  1.0000
  Al  Al11      1.0  0.42800  0.23500  0.24400  1.0000
  Al  Al12      1.0  0.50000  0.75000  0.25000  1.0000
  Al  Al13      1.0  0.27200  0.55200  0.26100  1.0000
  Al  Al14      1.0  0.72800  0.98800  0.28000  1.0000
  Al  Al15      1.0  0.16300  0.29900  0.32100  1.0000
  Al  Al16      1.0  0.03630  0.49000  0.34700  1.0000
  Al  Al17      1.0  0.52200  0.07070  0.40700  1.0000
  Al  Al18      1.0  0.92800  0.93400  0.44300  1.0000
  Al  Al19      1.0  0.70900  0.72000  0.44800  1.0000
  Al  Al20      1.0  0.96400  0.31100  0.45300  1.0000
  Al  Al21      1.0  0.16400  0.80400  0.46400  1.0000
  Al  Al22      1.0  0.49100  0.55700  0.48500  1.0000
  Al  Al23      1.0  0.85700  0.54700  0.51000  1.0000
  Al  Al24      1.0  0.47800  0.88500  0.54900  1.0000
  Al  Al25      1.0  0.16000  0.21400  0.55000  1.0000
  Al  Al26      1.0  0.35700  0.09710  0.56100  1.0000
  Al  Al27      1.0  0.66400  0.45000  0.61000  1.0000
  Al  Al28      1.0  0.83600  0.30000  0.64000  1.0000
  Al  Al29      1.0  0.14300  0.65300  0.68900  1.0000
  Al  Al30      1.0  0.34000  0.53600  0.70000  1.0000
  Al  Al31      1.0  0.02190  0.86500  0.70100  1.0000
  Al  Al32      1.0  0.64300  0.20300  0.74000  1.0000
  Al  Al33      1.0  0.00886  0.19300  0.76500  1.0000
  Al  Al34      1.0  0.33600  0.94600  0.78600  1.0000
  Al  Al35      1.0  0.53600  0.43900  0.79700  1.0000
  Al  Al36      1.0  0.79100  0.02980  0.80200  1.0000
  Al  Al37      1.0  0.57200  0.81600  0.80700  1.0000
  Al  Al38      1.0  0.97800  0.67900  0.84300  1.0000
  Al  Al39      1.0  0.46400  0.26000  0.90300  1.0000
  Al  Al40      1.0  0.33700  0.45100  0.92900  1.0000
  Al  Al41      1.0  0.77200  0.76200  0.97000  1.0000
  Al  Al42      1.0  0.22800  0.19800  0.98900  1.0000
  Pt  Pt1       1.0  0.53700  0.72500  0.00232  1.0000
  Pt  Pt2       1.0  0.03730  0.28500  0.06190  1.0000
  Pt  Pt3       1.0  0.46300  0.46500  0.18800  1.0000
  Pt  Pt4       1.0  0.96300  0.02460  0.24800  1.0000
  Pt  Pt5       1.0  0.27700  0.81200  0.27500  1.0000
  Pt  Pt6       1.0  0.88400  0.64100  0.32800  1.0000
  Pt  Pt7       1.0  0.68700  0.24300  0.35900  1.0000
  Pt  Pt8       1.0  0.38400  0.30600  0.49300  1.0000
  Pt  Pt9       1.0  0.72300  0.99800  0.53500  1.0000
  Pt  Pt10      1.0  0.31300  0.67200  0.55600  1.0000
  Pt  Pt11      1.0  0.18700  0.07810  0.69400  1.0000
  Pt  Pt12      1.0  0.77700  0.75200  0.71500  1.0000
  Pt  Pt13      1.0  0.11600  0.44400  0.75700  1.0000
  Pt  Pt14      1.0  0.81300  0.50700  0.89100  1.0000
  Pt  Pt15      1.0  0.61600  0.10900  0.92200  1.0000
  Pt  Pt16      1.0  0.22300  0.93800  0.97500  1.0000
