data_image0
_chemical_formula_structural       In4K12O32P8
_chemical_formula_sum              "In4 K12 O32 P8"
_cell_length_a       9.5845
_cell_length_b       9.5845
_cell_length_c       9.72723
_cell_angle_alpha    91.1503
_cell_angle_beta     91.1503
_cell_angle_gamma    71.4511

_space_group_name_H-M_alt    "P 1"
_space_group_IT_number       1

loop_
  _space_group_symop_operation_xyz
  'x, y, z'

loop_
  _atom_site_type_symbol
  _atom_site_label
  _atom_site_symmetry_multiplicity
  _atom_site_fract_x
  _atom_site_fract_y
  _atom_site_fract_z
  _atom_site_occupancy
  In  In1       1.0  0.76700  0.48500  0.08090  1.0000
  In  In2       1.0  0.51500  0.23300  0.41900  1.0000
  In  In3       1.0  0.48500  0.76700  0.58100  1.0000
  In  In4       1.0  0.23300  0.51500  0.91900  1.0000
  K   K1        1.0  0.19600  0.99000  0.09930  1.0000
  K   K2        1.0  0.61500  0.86600  0.19800  1.0000
  K   K3        1.0  0.87100  0.12900  0.25000  1.0000
  K   K4        1.0  0.38900  0.61100  0.25000  1.0000
  K   K5        1.0  0.13400  0.38500  0.30200  1.0000
  K   K6        1.0  0.01010  0.80400  0.40100  1.0000
  K   K7        1.0  0.99000  0.19600  0.59900  1.0000
  K   K8        1.0  0.86600  0.61500  0.69800  1.0000
  K   K9        1.0  0.61100  0.38900  0.75000  1.0000
  K   K10       1.0  0.12900  0.87100  0.75000  1.0000
  K   K11       1.0  0.38500  0.13400  0.80200  1.0000
  K   K12       1.0  0.80400  0.01010  0.90100  1.0000
  O   O1        1.0  0.56400  0.64800  0.03680  1.0000
  O   O2        1.0  0.57600  0.09860  0.05380  1.0000
  O   O3        1.0  0.69100  0.29600  0.06200  1.0000
  O   O4        1.0  0.98900  0.30400  0.09240  1.0000
  O   O5        1.0  0.86000  0.66000  0.11200  1.0000
  O   O6        1.0  0.97100  0.86400  0.12300  1.0000
  O   O7        1.0  0.13900  0.59400  0.12600  1.0000
  O   O8        1.0  0.47000  0.31800  0.21800  1.0000
  O   O9        1.0  0.68200  0.53000  0.28200  1.0000
  O   O10       1.0  0.40600  0.86100  0.37400  1.0000
  O   O11       1.0  0.13600  0.02860  0.37700  1.0000
  O   O12       1.0  0.34000  0.14000  0.38800  1.0000
  O   O13       1.0  0.69600  0.01060  0.40800  1.0000
  O   O14       1.0  0.70400  0.30900  0.43800  1.0000
  O   O15       1.0  0.90100  0.42400  0.44600  1.0000
  O   O16       1.0  0.35200  0.43600  0.46300  1.0000
  O   O17       1.0  0.64800  0.56400  0.53700  1.0000
  O   O18       1.0  0.09860  0.57600  0.55400  1.0000
  O   O19       1.0  0.29600  0.69100  0.56200  1.0000
  O   O20       1.0  0.30400  0.98900  0.59200  1.0000
  O   O21       1.0  0.66000  0.86000  0.61200  1.0000
  O   O22       1.0  0.86400  0.97100  0.62300  1.0000
  O   O23       1.0  0.59400  0.13900  0.62600  1.0000
  O   O24       1.0  0.31800  0.47000  0.71800  1.0000
  O   O25       1.0  0.53000  0.68200  0.78200  1.0000
  O   O26       1.0  0.86100  0.40600  0.87400  1.0000
  O   O27       1.0  0.02860  0.13600  0.87700  1.0000
  O   O28       1.0  0.14000  0.34000  0.88800  1.0000
  O   O29       1.0  0.01060  0.69600  0.90800  1.0000
  O   O30       1.0  0.30900  0.70400  0.93800  1.0000
  O   O31       1.0  0.42400  0.90100  0.94600  1.0000
  O   O32       1.0  0.43600  0.35200  0.96300  1.0000
  P   P1        1.0  0.99300  0.70700  0.06840  1.0000
  P   P2        1.0  0.54200  0.26300  0.07670  1.0000
  P   P3        1.0  0.73700  0.45800  0.42300  1.0000
  P   P4        1.0  0.29300  0.00686  0.43200  1.0000
  P   P5        1.0  0.70700  0.99300  0.56800  1.0000
  P   P6        1.0  0.26300  0.54200  0.57700  1.0000
  P   P7        1.0  0.45800  0.73700  0.92300  1.0000
  P   P8        1.0  0.00686  0.29300  0.93200  1.0000
