data_image0
_chemical_formula_structural       Al16As24Na16
_chemical_formula_sum              "Al16 As24 Na16"
_cell_length_a       13.1396
_cell_length_b       6.72881
_cell_length_c       14.4512
_cell_angle_alpha    90
_cell_angle_beta     89.8908
_cell_angle_gamma    90

_space_group_name_H-M_alt    "P 1"
_space_group_IT_number       1

loop_
  _space_group_symop_operation_xyz
  'x, y, z'

loop_
  _atom_site_type_symbol
  _atom_site_label
  _atom_site_symmetry_multiplicity
  _atom_site_fract_x
  _atom_site_fract_y
  _atom_site_fract_z
  _atom_site_occupancy
  Al  Al1       1.0  0.31600  0.71400  0.16500  1.0000
  Al  Al2       1.0  0.18900  0.23900  0.17200  1.0000
  Al  Al3       1.0  0.09420  0.70600  0.23000  1.0000
  Al  Al4       1.0  0.41100  0.23900  0.24100  1.0000
  Al  Al5       1.0  0.58900  0.73900  0.25900  1.0000
  Al  Al6       1.0  0.90600  0.20600  0.27000  1.0000
  Al  Al7       1.0  0.81100  0.73900  0.32800  1.0000
  Al  Al8       1.0  0.68400  0.21400  0.33500  1.0000
  Al  Al9       1.0  0.31600  0.78600  0.66500  1.0000
  Al  Al10      1.0  0.18900  0.26100  0.67200  1.0000
  Al  Al11      1.0  0.09420  0.79400  0.73000  1.0000
  Al  Al12      1.0  0.41100  0.26100  0.74100  1.0000
  Al  Al13      1.0  0.58900  0.76100  0.75900  1.0000
  Al  Al14      1.0  0.90600  0.29400  0.77000  1.0000
  Al  Al15      1.0  0.81100  0.76100  0.82800  1.0000
  Al  Al16      1.0  0.68400  0.28600  0.83500  1.0000
  As  As1       1.0  0.16100  0.54900  0.08520  1.0000
  As  As2       1.0  0.33900  0.05200  0.10300  1.0000
  As  As3       1.0  0.48000  0.53200  0.15600  1.0000
  As  As4       1.0  0.74700  0.84000  0.17000  1.0000
  As  As5       1.0  0.03240  0.03130  0.17200  1.0000
  As  As6       1.0  0.74900  0.21700  0.17400  1.0000
  As  As7       1.0  0.25100  0.71700  0.32700  1.0000
  As  As8       1.0  0.96800  0.53100  0.32800  1.0000
  As  As9       1.0  0.25300  0.34000  0.33000  1.0000
  As  As10      1.0  0.52000  0.03210  0.34400  1.0000
  As  As11      1.0  0.66100  0.55200  0.39700  1.0000
  As  As12      1.0  0.83900  0.04890  0.41500  1.0000
  As  As13      1.0  0.16100  0.95100  0.58500  1.0000
  As  As14      1.0  0.33900  0.44800  0.60300  1.0000
  As  As15      1.0  0.48000  0.96800  0.65600  1.0000
  As  As16      1.0  0.74700  0.66000  0.67000  1.0000
  As  As17      1.0  0.03240  0.46900  0.67200  1.0000
  As  As18      1.0  0.74900  0.28300  0.67300  1.0000
  As  As19      1.0  0.25100  0.78300  0.82700  1.0000
  As  As20      1.0  0.96800  0.96900  0.82800  1.0000
  As  As21      1.0  0.25300  0.16000  0.83000  1.0000
  As  As22      1.0  0.52000  0.46800  0.84400  1.0000
  As  As23      1.0  0.66100  0.94800  0.89700  1.0000
  As  As24      1.0  0.83900  0.45100  0.91500  1.0000
  Na  Na1       1.0  0.86200  0.05380  0.00988  1.0000
  Na  Na2       1.0  0.65100  0.58700  0.01970  1.0000
  Na  Na3       1.0  0.56600  0.10400  0.08270  1.0000
  Na  Na4       1.0  0.91500  0.55200  0.10700  1.0000
  Na  Na5       1.0  0.08450  0.05240  0.39300  1.0000
  Na  Na6       1.0  0.43400  0.60400  0.41700  1.0000
  Na  Na7       1.0  0.34900  0.08700  0.48000  1.0000
  Na  Na8       1.0  0.13800  0.55400  0.49000  1.0000
  Na  Na9       1.0  0.86200  0.44600  0.51000  1.0000
  Na  Na10      1.0  0.65100  0.91300  0.52000  1.0000
  Na  Na11      1.0  0.56600  0.39600  0.58300  1.0000
  Na  Na12      1.0  0.91500  0.94800  0.60700  1.0000
  Na  Na13      1.0  0.08450  0.44800  0.89300  1.0000
  Na  Na14      1.0  0.43400  0.89600  0.91700  1.0000
  Na  Na15      1.0  0.34900  0.41300  0.98000  1.0000
  Na  Na16      1.0  0.13800  0.94600  0.99000  1.0000
