data_image0
_chemical_formula_structural       H32N8O14P4
_chemical_formula_sum              "H32 N8 O14 P4"
_cell_length_a       6.4158
_cell_length_b       6.59962
_cell_length_c       13.4798
_cell_angle_alpha    102.887
_cell_angle_beta     90
_cell_angle_gamma    119.083

_space_group_name_H-M_alt    "P 1"
_space_group_IT_number       1

loop_
  _space_group_symop_operation_xyz
  'x, y, z'

loop_
  _atom_site_type_symbol
  _atom_site_label
  _atom_site_symmetry_multiplicity
  _atom_site_fract_x
  _atom_site_fract_y
  _atom_site_fract_z
  _atom_site_occupancy
  H   H1        1.0  0.25200  0.11900  0.02490  1.0000
  H   H2        1.0  0.77300  0.35700  0.04570  1.0000
  H   H3        1.0  0.04310  0.57800  0.11200  1.0000
  H   H4        1.0  0.06950  0.07300  0.11900  1.0000
  H   H5        1.0  0.30700  0.02610  0.12200  1.0000
  H   H6        1.0  0.36000  0.31800  0.14400  1.0000
  H   H7        1.0  0.77300  0.55300  0.15100  1.0000
  H   H8        1.0  0.86300  0.36100  0.16800  1.0000
  H   H9        1.0  0.50200  0.63900  0.33200  1.0000
  H   H10       1.0  0.22000  0.44700  0.34900  1.0000
  H   H11       1.0  0.04190  0.68200  0.35600  1.0000
  H   H12       1.0  0.28100  0.97400  0.37800  1.0000
  H   H13       1.0  0.99600  0.92700  0.38100  1.0000
  H   H14       1.0  0.46500  0.42200  0.38800  1.0000
  H   H15       1.0  0.41600  0.64300  0.45400  1.0000
  H   H16       1.0  0.13200  0.88100  0.47500  1.0000
  H   H17       1.0  0.86800  0.11900  0.52500  1.0000
  H   H18       1.0  0.58400  0.35700  0.54600  1.0000
  H   H19       1.0  0.53500  0.57800  0.61200  1.0000
  H   H20       1.0  0.00354  0.07300  0.61900  1.0000
  H   H21       1.0  0.71900  0.02610  0.62200  1.0000
  H   H22       1.0  0.95800  0.31800  0.64400  1.0000
  H   H23       1.0  0.78000  0.55300  0.65100  1.0000
  H   H24       1.0  0.49800  0.36100  0.66800  1.0000
  H   H25       1.0  0.13700  0.63900  0.83200  1.0000
  H   H26       1.0  0.22700  0.44700  0.84900  1.0000
  H   H27       1.0  0.64000  0.68200  0.85600  1.0000
  H   H28       1.0  0.69300  0.97400  0.87800  1.0000
  H   H29       1.0  0.93000  0.92700  0.88100  1.0000
  H   H30       1.0  0.95700  0.42200  0.88800  1.0000
  H   H31       1.0  0.22700  0.64300  0.95400  1.0000
  H   H32       1.0  0.74800  0.88100  0.97500  1.0000
  N   N1        1.0  0.25000  0.13700  0.10500  1.0000
  N   N2        1.0  0.86200  0.46100  0.11900  1.0000
  N   N3        1.0  0.40100  0.53900  0.38100  1.0000
  N   N4        1.0  0.11200  0.86300  0.39500  1.0000
  N   N5        1.0  0.88800  0.13700  0.60500  1.0000
  N   N6        1.0  0.59900  0.46100  0.61900  1.0000
  N   N7        1.0  0.13800  0.53900  0.88100  1.0000
  N   N8        1.0  0.75000  0.86300  0.89500  1.0000
  O   O1        1.0  0.32100  0.73100  0.08300  1.0000
  O   O2        1.0  0.77600  0.94900  0.10300  1.0000
  O   O3        1.0  0.55400  0.61600  0.19300  1.0000
  O   O4        1.0  0.53700  0.00000  0.25000  1.0000
  O   O5        1.0  0.93800  0.38400  0.30700  1.0000
  O   O6        1.0  0.82700  0.05070  0.39700  1.0000
  O   O7        1.0  0.59000  0.26900  0.41700  1.0000
  O   O8        1.0  0.41000  0.73100  0.58300  1.0000
  O   O9        1.0  0.17300  0.94900  0.60300  1.0000
  O   O10       1.0  0.06220  0.61600  0.69300  1.0000
  O   O11       1.0  0.46300  0.00000  0.75000  1.0000
  O   O12       1.0  0.44600  0.38400  0.80700  1.0000
  O   O13       1.0  0.22400  0.05070  0.89700  1.0000
  O   O14       1.0  0.67900  0.26900  0.91700  1.0000
  P   P1        1.0  0.55100  0.81200  0.15200  1.0000
  P   P2        1.0  0.73900  0.18800  0.34800  1.0000
  P   P3        1.0  0.26100  0.81200  0.65200  1.0000
  P   P4        1.0  0.44900  0.18800  0.84800  1.0000
