data_image0
_chemical_formula_structural       H14N4O24P6Zn8
_chemical_formula_sum              "H14 N4 O24 P6 Zn8"
_cell_length_a       5.18118
_cell_length_b       7.88137
_cell_length_c       15.5461
_cell_angle_alpha    94.4311
_cell_angle_beta     92.2753
_cell_angle_gamma    109.302

_space_group_name_H-M_alt    "P 1"
_space_group_IT_number       1

loop_
  _space_group_symop_operation_xyz
  'x, y, z'

loop_
  _atom_site_type_symbol
  _atom_site_label
  _atom_site_symmetry_multiplicity
  _atom_site_fract_x
  _atom_site_fract_y
  _atom_site_fract_z
  _atom_site_occupancy
  H   H1        1.0  0.96900  0.66000  0.18100  1.0000
  H   H2        1.0  0.64300  0.63300  0.18800  1.0000
  H   H3        1.0  0.88800  0.81600  0.24200  1.0000
  H   H4        1.0  0.82500  0.60300  0.27600  1.0000
  H   H5        1.0  0.49500  0.14600  0.33200  1.0000
  H   H6        1.0  0.38700  0.98300  0.39800  1.0000
  H   H7        1.0  0.54000  0.19500  0.43800  1.0000
  H   H8        1.0  0.46000  0.80500  0.56200  1.0000
  H   H9        1.0  0.61300  0.01700  0.60200  1.0000
  H   H10       1.0  0.50500  0.85400  0.66800  1.0000
  H   H11       1.0  0.17500  0.39700  0.72400  1.0000
  H   H12       1.0  0.11200  0.18400  0.75800  1.0000
  H   H13       1.0  0.35700  0.36700  0.81200  1.0000
  H   H14       1.0  0.03060  0.34000  0.81900  1.0000
  N   N1        1.0  0.83200  0.67900  0.22400  1.0000
  N   N2        1.0  0.54100  0.10100  0.38900  1.0000
  N   N3        1.0  0.45900  0.89900  0.61100  1.0000
  N   N4        1.0  0.16800  0.32100  0.77600  1.0000
  O   O1        1.0  0.49500  0.19700  0.01700  1.0000
  O   O2        1.0  0.05100  0.69900  0.05850  1.0000
  O   O3        1.0  0.43300  0.57000  0.08730  1.0000
  O   O4        1.0  0.02580  0.21300  0.13000  1.0000
  O   O5        1.0  0.48800  0.88200  0.14600  1.0000
  O   O6        1.0  0.48300  0.26800  0.21400  1.0000
  O   O7        1.0  0.16200  0.42600  0.26700  1.0000
  O   O8        1.0  0.03140  0.08130  0.27000  1.0000
  O   O9        1.0  0.81200  0.53200  0.39600  1.0000
  O   O10       1.0  0.00237  0.87200  0.41900  1.0000
  O   O11       1.0  0.49500  0.71300  0.43000  1.0000
  O   O12       1.0  0.15800  0.30100  0.45400  1.0000
  O   O13       1.0  0.84200  0.69900  0.54600  1.0000
  O   O14       1.0  0.50500  0.28700  0.57000  1.0000
  O   O15       1.0  0.99800  0.12800  0.58100  1.0000
  O   O16       1.0  0.18800  0.46800  0.60400  1.0000
  O   O17       1.0  0.96900  0.91900  0.73000  1.0000
  O   O18       1.0  0.83800  0.57400  0.73300  1.0000
  O   O19       1.0  0.51700  0.73200  0.78600  1.0000
  O   O20       1.0  0.51200  0.11800  0.85400  1.0000
  O   O21       1.0  0.97400  0.78700  0.87000  1.0000
  O   O22       1.0  0.56700  0.43000  0.91300  1.0000
  O   O23       1.0  0.94900  0.30100  0.94200  1.0000
  O   O24       1.0  0.50500  0.80300  0.98300  1.0000
  P   P1        1.0  0.36200  0.74100  0.06880  1.0000
  P   P2        1.0  0.18000  0.24900  0.22400  1.0000
  P   P3        1.0  0.78500  0.70100  0.44600  1.0000
  P   P4        1.0  0.21500  0.29900  0.55400  1.0000
  P   P5        1.0  0.82000  0.75100  0.77600  1.0000
  P   P6        1.0  0.63800  0.25900  0.93100  1.0000
  Zn  Zn1       1.0  0.22300  0.33000  0.03280  1.0000
  Zn  Zn2       1.0  0.62300  0.13500  0.13000  1.0000
  Zn  Zn3       1.0  0.90200  0.07490  0.38700  1.0000
  Zn  Zn4       1.0  0.17900  0.51000  0.38800  1.0000
  Zn  Zn5       1.0  0.82100  0.49000  0.61200  1.0000
  Zn  Zn6       1.0  0.09800  0.92500  0.61300  1.0000
  Zn  Zn7       1.0  0.37700  0.86500  0.87000  1.0000
  Zn  Zn8       1.0  0.77700  0.67000  0.96700  1.0000
