data_image0
_chemical_formula_structural       Na12O32P4Si8
_chemical_formula_sum              "Na12 O32 P4 Si8"
_cell_length_a       10.3112
_cell_length_b       9.27683
_cell_length_c       7.29218
_cell_angle_alpha    90
_cell_angle_beta     90
_cell_angle_gamma    90

_space_group_name_H-M_alt    "P 1"
_space_group_IT_number       1

loop_
  _space_group_symop_operation_xyz
  'x, y, z'

loop_
  _atom_site_type_symbol
  _atom_site_label
  _atom_site_symmetry_multiplicity
  _atom_site_fract_x
  _atom_site_fract_y
  _atom_site_fract_z
  _atom_site_occupancy
  Na  Na1       1.0  0.21200  0.70500  0.00061  1.0000
  Na  Na2       1.0  0.22700  0.29100  0.07980  1.0000
  Na  Na3       1.0  0.69200  0.45500  0.21400  1.0000
  Na  Na4       1.0  0.30800  0.95500  0.28600  1.0000
  Na  Na5       1.0  0.77300  0.79100  0.42000  1.0000
  Na  Na6       1.0  0.78800  0.20500  0.49900  1.0000
  Na  Na7       1.0  0.28800  0.29500  0.50100  1.0000
  Na  Na8       1.0  0.27300  0.70900  0.58000  1.0000
  Na  Na9       1.0  0.80800  0.54500  0.71400  1.0000
  Na  Na10      1.0  0.19200  0.04490  0.78600  1.0000
  Na  Na11      1.0  0.72700  0.20900  0.92000  1.0000
  Na  Na12      1.0  0.71200  0.79500  0.99900  1.0000
  O   O1        1.0  0.83800  0.01550  0.01990  1.0000
  O   O2        1.0  0.82900  0.58100  0.05020  1.0000
  O   O3        1.0  0.52700  0.63200  0.05400  1.0000
  O   O4        1.0  0.07660  0.11100  0.07560  1.0000
  O   O5        1.0  0.42400  0.16900  0.10200  1.0000
  O   O6        1.0  0.56200  0.96700  0.13300  1.0000
  O   O7        1.0  0.02790  0.42600  0.21600  1.0000
  O   O8        1.0  0.68100  0.22100  0.23200  1.0000
  O   O9        1.0  0.31900  0.72100  0.26800  1.0000
  O   O10       1.0  0.97200  0.92600  0.28400  1.0000
  O   O11       1.0  0.43800  0.46700  0.36700  1.0000
  O   O12       1.0  0.57600  0.66900  0.39800  1.0000
  O   O13       1.0  0.92300  0.61100  0.42400  1.0000
  O   O14       1.0  0.47300  0.13200  0.44600  1.0000
  O   O15       1.0  0.17100  0.08070  0.45000  1.0000
  O   O16       1.0  0.16200  0.51500  0.48000  1.0000
  O   O17       1.0  0.66200  0.98500  0.52000  1.0000
  O   O18       1.0  0.67100  0.41900  0.55000  1.0000
  O   O19       1.0  0.97300  0.36800  0.55400  1.0000
  O   O20       1.0  0.42300  0.88900  0.57600  1.0000
  O   O21       1.0  0.07560  0.83100  0.60200  1.0000
  O   O22       1.0  0.93800  0.03290  0.63300  1.0000
  O   O23       1.0  0.47200  0.57400  0.71600  1.0000
  O   O24       1.0  0.81900  0.77900  0.73200  1.0000
  O   O25       1.0  0.18100  0.27900  0.76800  1.0000
  O   O26       1.0  0.52800  0.07380  0.78400  1.0000
  O   O27       1.0  0.06200  0.53300  0.86700  1.0000
  O   O28       1.0  0.92400  0.33100  0.89800  1.0000
  O   O29       1.0  0.57700  0.38900  0.92400  1.0000
  O   O30       1.0  0.02690  0.86800  0.94600  1.0000
  O   O31       1.0  0.32900  0.91900  0.95000  1.0000
  O   O32       1.0  0.33800  0.48500  0.98000  1.0000
  P   P1        1.0  0.97600  0.99600  0.08150  1.0000
  P   P2        1.0  0.02390  0.49600  0.41800  1.0000
  P   P3        1.0  0.52400  0.00404  0.58200  1.0000
  P   P4        1.0  0.47600  0.50400  0.91800  1.0000
  Si  Si1       1.0  0.95100  0.48100  0.02500  1.0000
  Si  Si2       1.0  0.55300  0.13200  0.24200  1.0000
  Si  Si3       1.0  0.44700  0.63200  0.25800  1.0000
  Si  Si4       1.0  0.04950  0.98100  0.47500  1.0000
  Si  Si5       1.0  0.54900  0.51900  0.52500  1.0000
  Si  Si6       1.0  0.94700  0.86800  0.74200  1.0000
  Si  Si7       1.0  0.05300  0.36800  0.75800  1.0000
  Si  Si8       1.0  0.45100  0.01890  0.97500  1.0000
