data_image0
_chemical_formula_structural       F8H8K8O24P8
_chemical_formula_sum              "F8 H8 K8 O24 P8"
_cell_length_a       6.98129
_cell_length_b       13.7197
_cell_length_c       7.49471
_cell_angle_alpha    90
_cell_angle_beta     90.9508
_cell_angle_gamma    90

_space_group_name_H-M_alt    "P 1"
_space_group_IT_number       1

loop_
  _space_group_symop_operation_xyz
  'x, y, z'

loop_
  _atom_site_type_symbol
  _atom_site_label
  _atom_site_symmetry_multiplicity
  _atom_site_fract_x
  _atom_site_fract_y
  _atom_site_fract_z
  _atom_site_occupancy
  F   F1        1.0  0.52800  0.05170  0.03450  1.0000
  F   F2        1.0  0.92600  0.50500  0.14500  1.0000
  F   F3        1.0  0.16900  0.98200  0.20400  1.0000
  F   F4        1.0  0.15300  0.13600  0.44200  1.0000
  F   F5        1.0  0.84700  0.63600  0.55800  1.0000
  F   F6        1.0  0.83100  0.48200  0.79600  1.0000
  F   F7        1.0  0.07440  0.00549  0.85500  1.0000
  F   F8        1.0  0.47200  0.55200  0.96600  1.0000
  H   H1        1.0  0.32000  0.75800  0.08570  1.0000
  H   H2        1.0  0.46300  0.22500  0.37000  1.0000
  H   H3        1.0  0.86200  0.34300  0.41800  1.0000
  H   H4        1.0  0.57200  0.51100  0.50000  1.0000
  H   H5        1.0  0.42800  0.01110  0.50000  1.0000
  H   H6        1.0  0.13800  0.84300  0.58200  1.0000
  H   H7        1.0  0.53700  0.72500  0.63000  1.0000
  H   H8        1.0  0.68000  0.25800  0.91400  1.0000
  K   K1        1.0  0.12000  0.17000  0.07970  1.0000
  K   K2        1.0  0.51000  0.40500  0.19400  1.0000
  K   K3        1.0  0.79900  0.90200  0.28200  1.0000
  K   K4        1.0  0.19400  0.64000  0.39800  1.0000
  K   K5        1.0  0.80600  0.14000  0.60200  1.0000
  K   K6        1.0  0.20100  0.40200  0.71800  1.0000
  K   K7        1.0  0.49000  0.90500  0.80600  1.0000
  K   K8        1.0  0.88000  0.67000  0.92000  1.0000
  O   O1        1.0  0.26200  0.68800  0.04740  1.0000
  O   O2        1.0  0.14400  0.36900  0.05850  1.0000
  O   O3        1.0  0.39300  0.84600  0.13600  1.0000
  O   O4        1.0  0.48900  0.20700  0.19300  1.0000
  O   O5        1.0  0.79000  0.09940  0.24700  1.0000
  O   O6        1.0  0.80900  0.70600  0.25200  1.0000
  O   O7        1.0  0.87900  0.34200  0.27800  1.0000
  O   O8        1.0  0.16700  0.44900  0.36800  1.0000
  O   O9        1.0  0.58100  0.57300  0.37000  1.0000
  O   O10       1.0  0.16200  0.83700  0.39600  1.0000
  O   O11       1.0  0.45300  0.95300  0.39900  1.0000
  O   O12       1.0  0.57200  0.74500  0.49500  1.0000
  O   O13       1.0  0.42800  0.24500  0.50500  1.0000
  O   O14       1.0  0.54700  0.45300  0.60100  1.0000
  O   O15       1.0  0.83800  0.33700  0.60400  1.0000
  O   O16       1.0  0.41900  0.07290  0.63000  1.0000
  O   O17       1.0  0.83300  0.94900  0.63200  1.0000
  O   O18       1.0  0.12100  0.84200  0.72200  1.0000
  O   O19       1.0  0.19100  0.20600  0.74800  1.0000
  O   O20       1.0  0.21000  0.59900  0.75300  1.0000
  O   O21       1.0  0.51100  0.70700  0.80700  1.0000
  O   O22       1.0  0.60700  0.34600  0.86400  1.0000
  O   O23       1.0  0.85600  0.86900  0.94200  1.0000
  O   O24       1.0  0.73800  0.18800  0.95300  1.0000
  P   P1        1.0  0.64500  0.14100  0.12100  1.0000
  P   P2        1.0  0.04540  0.41200  0.21600  1.0000
  P   P3        1.0  0.30000  0.89800  0.29000  1.0000
  P   P4        1.0  0.69600  0.66600  0.40100  1.0000
  P   P5        1.0  0.30400  0.16600  0.59900  1.0000
  P   P6        1.0  0.70000  0.39800  0.71000  1.0000
  P   P7        1.0  0.95500  0.91200  0.78400  1.0000
  P   P8        1.0  0.35500  0.64100  0.87900  1.0000
