data_image0
_chemical_formula_structural       Cl4O32Si8Sm12
_chemical_formula_sum              "Cl4 O32 Si8 Sm12"
_cell_length_a       7.01565
_cell_length_b       17.9663
_cell_length_c       6.26065
_cell_angle_alpha    90
_cell_angle_beta     90
_cell_angle_gamma    90

_space_group_name_H-M_alt    "P 1"
_space_group_IT_number       1

loop_
  _space_group_symop_operation_xyz
  'x, y, z'

loop_
  _atom_site_type_symbol
  _atom_site_label
  _atom_site_symmetry_multiplicity
  _atom_site_fract_x
  _atom_site_fract_y
  _atom_site_fract_z
  _atom_site_occupancy
  Cl  Cl1       1.0  0.55600  0.75000  0.24200  1.0000
  Cl  Cl2       1.0  0.05590  0.75000  0.25800  1.0000
  Cl  Cl3       1.0  0.94400  0.25000  0.74200  1.0000
  Cl  Cl4       1.0  0.44400  0.25000  0.75800  1.0000
  O   O1        1.0  0.84500  0.61900  0.03040  1.0000
  O   O2        1.0  0.84500  0.88100  0.03040  1.0000
  O   O3        1.0  0.20500  0.59500  0.05000  1.0000
  O   O4        1.0  0.20500  0.90500  0.05000  1.0000
  O   O5        1.0  0.48300  0.03010  0.21400  1.0000
  O   O6        1.0  0.48300  0.47000  0.21400  1.0000
  O   O7        1.0  0.45600  0.17500  0.22100  1.0000
  O   O8        1.0  0.45600  0.32500  0.22100  1.0000
  O   O9        1.0  0.95600  0.17500  0.27900  1.0000
  O   O10       1.0  0.95600  0.32500  0.27900  1.0000
  O   O11       1.0  0.98300  0.03010  0.28600  1.0000
  O   O12       1.0  0.98300  0.47000  0.28600  1.0000
  O   O13       1.0  0.70500  0.59500  0.45000  1.0000
  O   O14       1.0  0.70500  0.90500  0.45000  1.0000
  O   O15       1.0  0.34500  0.61900  0.47000  1.0000
  O   O16       1.0  0.34500  0.88100  0.47000  1.0000
  O   O17       1.0  0.65500  0.11900  0.53000  1.0000
  O   O18       1.0  0.65500  0.38100  0.53000  1.0000
  O   O19       1.0  0.29500  0.09530  0.55000  1.0000
  O   O20       1.0  0.29500  0.40500  0.55000  1.0000
  O   O21       1.0  0.01740  0.53000  0.71400  1.0000
  O   O22       1.0  0.01740  0.97000  0.71400  1.0000
  O   O23       1.0  0.04430  0.67500  0.72100  1.0000
  O   O24       1.0  0.04430  0.82500  0.72100  1.0000
  O   O25       1.0  0.54400  0.67500  0.77900  1.0000
  O   O26       1.0  0.54400  0.82500  0.77900  1.0000
  O   O27       1.0  0.51700  0.53000  0.78600  1.0000
  O   O28       1.0  0.51700  0.97000  0.78600  1.0000
  O   O29       1.0  0.79500  0.09530  0.95000  1.0000
  O   O30       1.0  0.79500  0.40500  0.95000  1.0000
  O   O31       1.0  0.15500  0.11900  0.97000  1.0000
  O   O32       1.0  0.15500  0.38100  0.97000  1.0000
  Si  Si1       1.0  0.96700  0.09970  0.12200  1.0000
  Si  Si2       1.0  0.96700  0.40000  0.12200  1.0000
  Si  Si3       1.0  0.46700  0.09970  0.37800  1.0000
  Si  Si4       1.0  0.46700  0.40000  0.37800  1.0000
  Si  Si5       1.0  0.53300  0.60000  0.62200  1.0000
  Si  Si6       1.0  0.53300  0.90000  0.62200  1.0000
  Si  Si7       1.0  0.03270  0.60000  0.87800  1.0000
  Si  Si8       1.0  0.03270  0.90000  0.87800  1.0000
  Sm  Sm1       1.0  0.19400  0.25000  0.11500  1.0000
  Sm  Sm2       1.0  0.52400  0.59200  0.12600  1.0000
  Sm  Sm3       1.0  0.52400  0.90800  0.12600  1.0000
  Sm  Sm4       1.0  0.02380  0.59200  0.37400  1.0000
  Sm  Sm5       1.0  0.02380  0.90800  0.37400  1.0000
  Sm  Sm6       1.0  0.69400  0.25000  0.38500  1.0000
  Sm  Sm7       1.0  0.30600  0.75000  0.61500  1.0000
  Sm  Sm8       1.0  0.97600  0.09160  0.62600  1.0000
  Sm  Sm9       1.0  0.97600  0.40800  0.62600  1.0000
  Sm  Sm10      1.0  0.47600  0.09160  0.87400  1.0000
  Sm  Sm11      1.0  0.47600  0.40800  0.87400  1.0000
  Sm  Sm12      1.0  0.80600  0.75000  0.88500  1.0000
