data_image0
_chemical_formula_structural       Mg4O16Sb8
_chemical_formula_sum              "Mg4 O16 Sb8"
_cell_length_a       8.40045
_cell_length_b       8.40045
_cell_length_c       6.01791
_cell_angle_alpha    90
_cell_angle_beta     90
_cell_angle_gamma    90

_space_group_name_H-M_alt    "P 1"
_space_group_IT_number       1

loop_
  _space_group_symop_operation_xyz
  'x, y, z'

loop_
  _atom_site_type_symbol
  _atom_site_label
  _atom_site_symmetry_multiplicity
  _atom_site_fract_x
  _atom_site_fract_y
  _atom_site_fract_z
  _atom_site_occupancy
  Mg  Mg1       1.0  0.50000  0.00000  0.25000  1.0000
  Mg  Mg2       1.0  0.00000  0.50000  0.25000  1.0000
  Mg  Mg3       1.0  0.50000  0.00000  0.75000  1.0000
  Mg  Mg4       1.0  0.00000  0.50000  0.75000  1.0000
  O   O1        1.0  0.59700  0.13700  0.00000  1.0000
  O   O2        1.0  0.09730  0.36300  0.00000  1.0000
  O   O3        1.0  0.90300  0.63700  0.00000  1.0000
  O   O4        1.0  0.40300  0.86300  0.00000  1.0000
  O   O5        1.0  0.32400  0.17600  0.25000  1.0000
  O   O6        1.0  0.82400  0.32400  0.25000  1.0000
  O   O7        1.0  0.17600  0.67600  0.25000  1.0000
  O   O8        1.0  0.67600  0.82400  0.25000  1.0000
  O   O9        1.0  0.63700  0.09730  0.50000  1.0000
  O   O10       1.0  0.13700  0.40300  0.50000  1.0000
  O   O11       1.0  0.86300  0.59700  0.50000  1.0000
  O   O12       1.0  0.36300  0.90300  0.50000  1.0000
  O   O13       1.0  0.32400  0.17600  0.75000  1.0000
  O   O14       1.0  0.82400  0.32400  0.75000  1.0000
  O   O15       1.0  0.17600  0.67600  0.75000  1.0000
  O   O16       1.0  0.67600  0.82400  0.75000  1.0000
  Sb  Sb1       1.0  0.82900  0.16400  0.00000  1.0000
  Sb  Sb2       1.0  0.32900  0.33600  0.00000  1.0000
  Sb  Sb3       1.0  0.67100  0.66400  0.00000  1.0000
  Sb  Sb4       1.0  0.17100  0.83600  0.00000  1.0000
  Sb  Sb5       1.0  0.16400  0.17100  0.50000  1.0000
  Sb  Sb6       1.0  0.66400  0.32900  0.50000  1.0000
  Sb  Sb7       1.0  0.33600  0.67100  0.50000  1.0000
  Sb  Sb8       1.0  0.83600  0.82900  0.50000  1.0000
