data_image0
_chemical_formula_structural       Eu4I12O36
_chemical_formula_sum              "Eu4 I12 O36"
_cell_length_a       8.84222
_cell_length_b       5.7508
_cell_length_c       14.6093
_cell_angle_alpha    90
_cell_angle_beta     98.4762
_cell_angle_gamma    90

_space_group_name_H-M_alt    "P 1"
_space_group_IT_number       1

loop_
  _space_group_symop_operation_xyz
  'x, y, z'

loop_
  _atom_site_type_symbol
  _atom_site_label
  _atom_site_symmetry_multiplicity
  _atom_site_fract_x
  _atom_site_fract_y
  _atom_site_fract_z
  _atom_site_occupancy
  Eu  Eu1       1.0  0.96400  0.75100  0.09940  1.0000
  Eu  Eu2       1.0  0.53600  0.25100  0.40100  1.0000
  Eu  Eu3       1.0  0.46400  0.74900  0.59900  1.0000
  Eu  Eu4       1.0  0.03580  0.24900  0.90100  1.0000
  I   I1        1.0  0.66200  0.14000  0.02550  1.0000
  I   I2        1.0  0.21800  0.30400  0.15500  1.0000
  I   I3        1.0  0.61000  0.59000  0.20000  1.0000
  I   I4        1.0  0.89000  0.08970  0.30000  1.0000
  I   I5        1.0  0.28200  0.80400  0.34500  1.0000
  I   I6        1.0  0.83800  0.64000  0.47400  1.0000
  I   I7        1.0  0.16200  0.36000  0.52600  1.0000
  I   I8        1.0  0.71800  0.19600  0.65500  1.0000
  I   I9        1.0  0.11000  0.91000  0.70000  1.0000
  I   I10       1.0  0.39000  0.41000  0.80000  1.0000
  I   I11       1.0  0.78200  0.69600  0.84500  1.0000
  I   I12       1.0  0.33800  0.86000  0.97400  1.0000
  O   O1        1.0  0.15700  0.92200  0.01830  1.0000
  O   O2        1.0  0.12900  0.43000  0.04560  1.0000
  O   O3        1.0  0.42400  0.11500  0.04960  1.0000
  O   O4        1.0  0.43300  0.61800  0.11400  1.0000
  O   O5        1.0  0.74400  0.48500  0.12000  1.0000
  O   O6        1.0  0.72000  0.96700  0.13100  1.0000
  O   O7        1.0  0.05290  0.12000  0.17400  1.0000
  O   O8        1.0  0.15600  0.54900  0.22300  1.0000
  O   O9        1.0  0.57400  0.29300  0.23500  1.0000
  O   O10       1.0  0.92600  0.79300  0.26500  1.0000
  O   O11       1.0  0.34400  0.04870  0.27700  1.0000
  O   O12       1.0  0.44700  0.62000  0.32600  1.0000
  O   O13       1.0  0.78000  0.46700  0.36900  1.0000
  O   O14       1.0  0.75600  0.98500  0.38000  1.0000
  O   O15       1.0  0.06660  0.11800  0.38600  1.0000
  O   O16       1.0  0.07600  0.61500  0.45000  1.0000
  O   O17       1.0  0.37100  0.93000  0.45400  1.0000
  O   O18       1.0  0.34300  0.42200  0.48200  1.0000
  O   O19       1.0  0.65700  0.57800  0.51800  1.0000
  O   O20       1.0  0.62900  0.07030  0.54600  1.0000
  O   O21       1.0  0.92400  0.38500  0.55000  1.0000
  O   O22       1.0  0.93300  0.88200  0.61400  1.0000
  O   O23       1.0  0.24400  0.01450  0.62000  1.0000
  O   O24       1.0  0.22000  0.53300  0.63100  1.0000
  O   O25       1.0  0.55300  0.38000  0.67400  1.0000
  O   O26       1.0  0.65600  0.95100  0.72300  1.0000
  O   O27       1.0  0.07400  0.20700  0.73500  1.0000
  O   O28       1.0  0.42600  0.70700  0.76500  1.0000
  O   O29       1.0  0.84400  0.45100  0.77700  1.0000
  O   O30       1.0  0.94700  0.88000  0.82600  1.0000
  O   O31       1.0  0.28000  0.03330  0.86900  1.0000
  O   O32       1.0  0.25600  0.51500  0.88000  1.0000
  O   O33       1.0  0.56700  0.38200  0.88600  1.0000
  O   O34       1.0  0.57600  0.88500  0.95000  1.0000
  O   O35       1.0  0.87100  0.57000  0.95400  1.0000
  O   O36       1.0  0.84300  0.07770  0.98200  1.0000
