data_image0
_chemical_formula_structural       S32Ti8Tl16
_chemical_formula_sum              "S32 Ti8 Tl16"
_cell_length_a       22.7955
_cell_length_b       9.55921
_cell_length_c       6.43177
_cell_angle_alpha    90
_cell_angle_beta     90
_cell_angle_gamma    90

_space_group_name_H-M_alt    "P 1"
_space_group_IT_number       1

loop_
  _space_group_symop_operation_xyz
  'x, y, z'

loop_
  _atom_site_type_symbol
  _atom_site_label
  _atom_site_symmetry_multiplicity
  _atom_site_fract_x
  _atom_site_fract_y
  _atom_site_fract_z
  _atom_site_occupancy
  S   S1        1.0  0.33800  0.06850  0.06430  1.0000
  S   S2        1.0  0.16200  0.56900  0.06430  1.0000
  S   S3        1.0  0.91300  0.46400  0.11700  1.0000
  S   S4        1.0  0.58700  0.96400  0.11700  1.0000
  S   S5        1.0  0.56300  0.32100  0.16400  1.0000
  S   S6        1.0  0.93700  0.82100  0.16400  1.0000
  S   S7        1.0  0.70000  0.22900  0.23000  1.0000
  S   S8        1.0  0.80000  0.72900  0.23000  1.0000
  S   S9        1.0  0.20000  0.22900  0.27000  1.0000
  S   S10       1.0  0.30000  0.72900  0.27000  1.0000
  S   S11       1.0  0.06320  0.32100  0.33600  1.0000
  S   S12       1.0  0.43700  0.82100  0.33600  1.0000
  S   S13       1.0  0.41300  0.46400  0.38300  1.0000
  S   S14       1.0  0.08690  0.96400  0.38300  1.0000
  S   S15       1.0  0.83800  0.06850  0.43600  1.0000
  S   S16       1.0  0.66200  0.56900  0.43600  1.0000
  S   S17       1.0  0.33800  0.43100  0.56400  1.0000
  S   S18       1.0  0.16200  0.93100  0.56400  1.0000
  S   S19       1.0  0.91300  0.03650  0.61700  1.0000
  S   S20       1.0  0.58700  0.53600  0.61700  1.0000
  S   S21       1.0  0.56300  0.17900  0.66400  1.0000
  S   S22       1.0  0.93700  0.67900  0.66400  1.0000
  S   S23       1.0  0.70000  0.27100  0.73000  1.0000
  S   S24       1.0  0.80000  0.77100  0.73000  1.0000
  S   S25       1.0  0.20000  0.27100  0.77000  1.0000
  S   S26       1.0  0.30000  0.77100  0.77000  1.0000
  S   S27       1.0  0.06320  0.17900  0.83600  1.0000
  S   S28       1.0  0.43700  0.67900  0.83600  1.0000
  S   S29       1.0  0.41300  0.03650  0.88300  1.0000
  S   S30       1.0  0.08690  0.53600  0.88300  1.0000
  S   S31       1.0  0.83800  0.43100  0.93600  1.0000
  S   S32       1.0  0.66200  0.93100  0.93600  1.0000
  Ti  Ti1       1.0  0.12800  0.32300  0.03010  1.0000
  Ti  Ti2       1.0  0.37200  0.82300  0.03010  1.0000
  Ti  Ti3       1.0  0.62800  0.32300  0.47000  1.0000
  Ti  Ti4       1.0  0.87200  0.82300  0.47000  1.0000
  Ti  Ti5       1.0  0.12800  0.17700  0.53000  1.0000
  Ti  Ti6       1.0  0.37200  0.67700  0.53000  1.0000
  Ti  Ti7       1.0  0.62800  0.17700  0.97000  1.0000
  Ti  Ti8       1.0  0.87200  0.67700  0.97000  1.0000
  Tl  Tl1       1.0  0.30200  0.43500  0.07710  1.0000
  Tl  Tl2       1.0  0.19800  0.93500  0.07710  1.0000
  Tl  Tl3       1.0  0.96100  0.14000  0.18300  1.0000
  Tl  Tl4       1.0  0.53900  0.64000  0.18300  1.0000
  Tl  Tl5       1.0  0.46100  0.14000  0.31700  1.0000
  Tl  Tl6       1.0  0.03880  0.64000  0.31700  1.0000
  Tl  Tl7       1.0  0.80200  0.43500  0.42300  1.0000
  Tl  Tl8       1.0  0.69800  0.93500  0.42300  1.0000
  Tl  Tl9       1.0  0.30200  0.06530  0.57700  1.0000
  Tl  Tl10      1.0  0.19800  0.56500  0.57700  1.0000
  Tl  Tl11      1.0  0.96100  0.36000  0.68300  1.0000
  Tl  Tl12      1.0  0.53900  0.86000  0.68300  1.0000
  Tl  Tl13      1.0  0.46100  0.36000  0.81700  1.0000
  Tl  Tl14      1.0  0.03880  0.86000  0.81700  1.0000
  Tl  Tl15      1.0  0.80200  0.06530  0.92300  1.0000
  Tl  Tl16      1.0  0.69800  0.56500  0.92300  1.0000
