data_image0
_chemical_formula_structural       Er4H4Mo6O34Se4
_chemical_formula_sum              "Er4 H4 Mo6 O34 Se4"
_cell_length_a       6.68183
_cell_length_b       7.17399
_cell_length_c       13.9584
_cell_angle_alpha    90
_cell_angle_beta     99.5474
_cell_angle_gamma    90

_space_group_name_H-M_alt    "P 1"
_space_group_IT_number       1

loop_
  _space_group_symop_operation_xyz
  'x, y, z'

loop_
  _atom_site_type_symbol
  _atom_site_label
  _atom_site_symmetry_multiplicity
  _atom_site_fract_x
  _atom_site_fract_y
  _atom_site_fract_z
  _atom_site_occupancy
  Er  Er1       1.0  0.25400  0.75000  0.12300  1.0000
  Er  Er2       1.0  0.38500  0.25000  0.46400  1.0000
  Er  Er3       1.0  0.61500  0.75000  0.53600  1.0000
  Er  Er4       1.0  0.74600  0.25000  0.87700  1.0000
  H   H1        1.0  0.75300  0.64200  0.35300  1.0000
  H   H2        1.0  0.75300  0.85900  0.35300  1.0000
  H   H3        1.0  0.24700  0.14100  0.64700  1.0000
  H   H4        1.0  0.24700  0.35900  0.64700  1.0000
  Mo  Mo1       1.0  0.79000  0.50400  0.13800  1.0000
  Mo  Mo2       1.0  0.79000  0.99600  0.13800  1.0000
  Mo  Mo3       1.0  0.87200  0.25000  0.33700  1.0000
  Mo  Mo4       1.0  0.12800  0.75000  0.66300  1.0000
  Mo  Mo5       1.0  0.21000  0.00448  0.86200  1.0000
  Mo  Mo6       1.0  0.21000  0.49600  0.86200  1.0000
  O   O1        1.0  0.75600  0.06860  0.01630  1.0000
  O   O2        1.0  0.75600  0.43100  0.01630  1.0000
  O   O3        1.0  0.90800  0.75000  0.12700  1.0000
  O   O4        1.0  0.12000  0.06010  0.14100  1.0000
  O   O5        1.0  0.12000  0.44000  0.14100  1.0000
  O   O6        1.0  0.54300  0.57400  0.14900  1.0000
  O   O7        1.0  0.54300  0.92600  0.14900  1.0000
  O   O8        1.0  0.77000  0.25000  0.17900  1.0000
  O   O9        1.0  0.28100  0.75000  0.27700  1.0000
  O   O10       1.0  0.88300  0.00081  0.29000  1.0000
  O   O11       1.0  0.88300  0.49900  0.29000  1.0000
  O   O12       1.0  0.20200  0.25000  0.30500  1.0000
  O   O13       1.0  0.62300  0.25000  0.36300  1.0000
  O   O14       1.0  0.69400  0.75000  0.38300  1.0000
  O   O15       1.0  0.34400  0.57100  0.44800  1.0000
  O   O16       1.0  0.34400  0.92900  0.44800  1.0000
  O   O17       1.0  0.02520  0.25000  0.45200  1.0000
  O   O18       1.0  0.97500  0.75000  0.54800  1.0000
  O   O19       1.0  0.65600  0.07110  0.55200  1.0000
  O   O20       1.0  0.65600  0.42900  0.55200  1.0000
  O   O21       1.0  0.30600  0.25000  0.61700  1.0000
  O   O22       1.0  0.37700  0.75000  0.63700  1.0000
  O   O23       1.0  0.79800  0.75000  0.69500  1.0000
  O   O24       1.0  0.11700  0.50100  0.71000  1.0000
  O   O25       1.0  0.11700  0.99900  0.71000  1.0000
  O   O26       1.0  0.71900  0.25000  0.72300  1.0000
  O   O27       1.0  0.23000  0.75000  0.82100  1.0000
  O   O28       1.0  0.45700  0.07400  0.85100  1.0000
  O   O29       1.0  0.45700  0.42600  0.85100  1.0000
  O   O30       1.0  0.88000  0.56000  0.85900  1.0000
  O   O31       1.0  0.88000  0.94000  0.85900  1.0000
  O   O32       1.0  0.09210  0.25000  0.87300  1.0000
  O   O33       1.0  0.24400  0.56900  0.98400  1.0000
  O   O34       1.0  0.24400  0.93100  0.98400  1.0000
  Se  Se1       1.0  0.26200  0.25000  0.19100  1.0000
  Se  Se2       1.0  0.19800  0.75000  0.38500  1.0000
  Se  Se3       1.0  0.80200  0.25000  0.61500  1.0000
  Se  Se4       1.0  0.73800  0.75000  0.80900  1.0000
