data_image0
_chemical_formula_structural       Rb8Se32Sn16
_chemical_formula_sum              "Rb8 Se32 Sn16"
_cell_length_a       7.72449
_cell_length_b       19.9515
_cell_length_c       12.7146
_cell_angle_alpha    90
_cell_angle_beta     95.0904
_cell_angle_gamma    90

_space_group_name_H-M_alt    "P 1"
_space_group_IT_number       1

loop_
  _space_group_symop_operation_xyz
  'x, y, z'

loop_
  _atom_site_type_symbol
  _atom_site_label
  _atom_site_symmetry_multiplicity
  _atom_site_fract_x
  _atom_site_fract_y
  _atom_site_fract_z
  _atom_site_occupancy
  Rb  Rb1       1.0  0.74200  0.94200  0.07880  1.0000
  Rb  Rb2       1.0  0.67100  0.30000  0.08230  1.0000
  Rb  Rb3       1.0  0.82900  0.80000  0.41800  1.0000
  Rb  Rb4       1.0  0.75800  0.44200  0.42100  1.0000
  Rb  Rb5       1.0  0.24200  0.55800  0.57900  1.0000
  Rb  Rb6       1.0  0.17100  0.20000  0.58200  1.0000
  Rb  Rb7       1.0  0.32900  0.70000  0.91800  1.0000
  Rb  Rb8       1.0  0.25800  0.05800  0.92100  1.0000
  Se  Se1       1.0  0.12700  0.55900  0.08390  1.0000
  Se  Se2       1.0  0.20800  0.34900  0.09320  1.0000
  Se  Se3       1.0  0.24600  0.94000  0.13500  1.0000
  Se  Se4       1.0  0.06860  0.74900  0.13500  1.0000
  Se  Se5       1.0  0.61100  0.12200  0.14000  1.0000
  Se  Se6       1.0  0.07300  0.13500  0.14700  1.0000
  Se  Se7       1.0  0.63900  0.47800  0.15900  1.0000
  Se  Se8       1.0  0.61900  0.78300  0.16000  1.0000
  Se  Se9       1.0  0.88100  0.28300  0.34000  1.0000
  Se  Se10      1.0  0.86100  0.97800  0.34100  1.0000
  Se  Se11      1.0  0.42700  0.63500  0.35300  1.0000
  Se  Se12      1.0  0.88900  0.62200  0.36000  1.0000
  Se  Se13      1.0  0.43100  0.24900  0.36500  1.0000
  Se  Se14      1.0  0.25400  0.44000  0.36500  1.0000
  Se  Se15      1.0  0.29200  0.84900  0.40700  1.0000
  Se  Se16      1.0  0.37300  0.05870  0.41600  1.0000
  Se  Se17      1.0  0.62700  0.94100  0.58400  1.0000
  Se  Se18      1.0  0.70800  0.15100  0.59300  1.0000
  Se  Se19      1.0  0.74600  0.56000  0.63500  1.0000
  Se  Se20      1.0  0.56900  0.75100  0.63500  1.0000
  Se  Se21      1.0  0.11100  0.37800  0.64000  1.0000
  Se  Se22      1.0  0.57300  0.36500  0.64700  1.0000
  Se  Se23      1.0  0.13900  0.02200  0.65900  1.0000
  Se  Se24      1.0  0.11900  0.71700  0.66000  1.0000
  Se  Se25      1.0  0.38100  0.21700  0.84000  1.0000
  Se  Se26      1.0  0.36100  0.52200  0.84100  1.0000
  Se  Se27      1.0  0.92700  0.86500  0.85300  1.0000
  Se  Se28      1.0  0.38900  0.87800  0.86000  1.0000
  Se  Se29      1.0  0.93100  0.25100  0.86500  1.0000
  Se  Se30      1.0  0.75400  0.05990  0.86500  1.0000
  Se  Se31      1.0  0.79200  0.65100  0.90700  1.0000
  Se  Se32      1.0  0.87300  0.44100  0.91600  1.0000
  Sn  Sn1       1.0  0.31900  0.46400  0.17100  1.0000
  Sn  Sn2       1.0  0.63900  0.62400  0.19000  1.0000
  Sn  Sn3       1.0  0.33200  0.82100  0.20900  1.0000
  Sn  Sn4       1.0  0.13700  0.63900  0.24300  1.0000
  Sn  Sn5       1.0  0.36300  0.13900  0.25700  1.0000
  Sn  Sn6       1.0  0.16800  0.32100  0.29100  1.0000
  Sn  Sn7       1.0  0.86100  0.12400  0.31000  1.0000
  Sn  Sn8       1.0  0.18100  0.96400  0.32900  1.0000
  Sn  Sn9       1.0  0.81900  0.03590  0.67100  1.0000
  Sn  Sn10      1.0  0.13900  0.87600  0.69000  1.0000
  Sn  Sn11      1.0  0.83200  0.67900  0.70900  1.0000
  Sn  Sn12      1.0  0.63700  0.86100  0.74300  1.0000
  Sn  Sn13      1.0  0.86300  0.36100  0.75700  1.0000
  Sn  Sn14      1.0  0.66800  0.17900  0.79100  1.0000
  Sn  Sn15      1.0  0.36100  0.37600  0.81000  1.0000
  Sn  Sn16      1.0  0.68100  0.53600  0.82900  1.0000
