data_image0
_chemical_formula_structural       H12Mg12N12
_chemical_formula_sum              "H12 Mg12 N12"
_cell_length_a       11.4654
_cell_length_b       11.4654
_cell_length_c       3.66879
_cell_angle_alpha    90
_cell_angle_beta     90
_cell_angle_gamma    120

_space_group_name_H-M_alt    "P 1"
_space_group_IT_number       1

loop_
  _space_group_symop_operation_xyz
  'x, y, z'

loop_
  _atom_site_type_symbol
  _atom_site_label
  _atom_site_symmetry_multiplicity
  _atom_site_fract_x
  _atom_site_fract_y
  _atom_site_fract_z
  _atom_site_occupancy
  H   H1        1.0  0.81200  0.05550  0.00000  1.0000
  H   H2        1.0  0.24400  0.18800  0.00000  1.0000
  H   H3        1.0  0.05550  0.24400  0.00000  1.0000
  H   H4        1.0  0.94400  0.75600  0.00000  1.0000
  H   H5        1.0  0.75600  0.81200  0.00000  1.0000
  H   H6        1.0  0.18800  0.94400  0.00000  1.0000
  H   H7        1.0  0.57500  0.24200  0.50000  1.0000
  H   H8        1.0  0.75800  0.33300  0.50000  1.0000
  H   H9        1.0  0.66700  0.42500  0.50000  1.0000
  H   H10       1.0  0.33300  0.57500  0.50000  1.0000
  H   H11       1.0  0.24200  0.66700  0.50000  1.0000
  H   H12       1.0  0.42500  0.75800  0.50000  1.0000
  Mg  Mg1       1.0  0.41700  0.13500  0.00000  1.0000
  Mg  Mg2       1.0  0.86500  0.28200  0.00000  1.0000
  Mg  Mg3       1.0  0.28200  0.41700  0.00000  1.0000
  Mg  Mg4       1.0  0.71800  0.58300  0.00000  1.0000
  Mg  Mg5       1.0  0.13500  0.71800  0.00000  1.0000
  Mg  Mg6       1.0  0.58300  0.86500  0.00000  1.0000
  Mg  Mg7       1.0  0.64600  0.07130  0.50000  1.0000
  Mg  Mg8       1.0  0.42500  0.35400  0.50000  1.0000
  Mg  Mg9       1.0  0.07130  0.42500  0.50000  1.0000
  Mg  Mg10      1.0  0.92900  0.57500  0.50000  1.0000
  Mg  Mg11      1.0  0.57500  0.64600  0.50000  1.0000
  Mg  Mg12      1.0  0.35400  0.92900  0.50000  1.0000
  N   N1        1.0  0.73200  0.07380  0.00000  1.0000
  N   N2        1.0  0.34200  0.26800  0.00000  1.0000
  N   N3        1.0  0.07380  0.34200  0.00000  1.0000
  N   N4        1.0  0.92600  0.65800  0.00000  1.0000
  N   N5        1.0  0.65800  0.73200  0.00000  1.0000
  N   N6        1.0  0.26800  0.92600  0.00000  1.0000
  N   N7        1.0  0.50800  0.14000  0.50000  1.0000
  N   N8        1.0  0.86000  0.36800  0.50000  1.0000
  N   N9        1.0  0.63200  0.49200  0.50000  1.0000
  N   N10       1.0  0.36800  0.50800  0.50000  1.0000
  N   N11       1.0  0.14000  0.63200  0.50000  1.0000
  N   N12       1.0  0.49200  0.86000  0.50000  1.0000
