data_image0
_chemical_formula_structural       Fe2Pb8S28Sb12
_chemical_formula_sum              "Fe2 Pb8 S28 Sb12"
_cell_length_a       15.8855
_cell_length_b       19.3838
_cell_length_c       4.03226
_cell_angle_alpha    90
_cell_angle_beta     92.2405
_cell_angle_gamma    90

_space_group_name_H-M_alt    "P 1"
_space_group_IT_number       1

loop_
  _space_group_symop_operation_xyz
  'x, y, z'

loop_
  _atom_site_type_symbol
  _atom_site_label
  _atom_site_symmetry_multiplicity
  _atom_site_fract_x
  _atom_site_fract_y
  _atom_site_fract_z
  _atom_site_occupancy
  Fe  Fe1       1.0  0.00000  0.00000  0.00000  1.0000
  Fe  Fe2       1.0  0.50000  0.50000  0.00000  1.0000
  Pb  Pb1       1.0  0.68100  0.36400  0.03620  1.0000
  Pb  Pb2       1.0  0.18100  0.13600  0.03620  1.0000
  Pb  Pb3       1.0  0.42400  0.24200  0.06310  1.0000
  Pb  Pb4       1.0  0.92400  0.25800  0.06310  1.0000
  Pb  Pb5       1.0  0.57600  0.75800  0.93700  1.0000
  Pb  Pb6       1.0  0.07590  0.74200  0.93700  1.0000
  Pb  Pb7       1.0  0.81900  0.86400  0.96400  1.0000
  Pb  Pb8       1.0  0.31900  0.63600  0.96400  1.0000
  S   S1        1.0  0.08170  0.89800  0.01620  1.0000
  S   S2        1.0  0.58200  0.60200  0.01620  1.0000
  S   S3        1.0  0.78400  0.49300  0.03300  1.0000
  S   S4        1.0  0.28400  0.00699  0.03300  1.0000
  S   S5        1.0  0.50100  0.10400  0.06380  1.0000
  S   S6        1.0  0.00057  0.39600  0.06380  1.0000
  S   S7        1.0  0.72100  0.20100  0.10600  1.0000
  S   S8        1.0  0.22100  0.29900  0.10600  1.0000
  S   S9        1.0  0.45000  0.73000  0.41800  1.0000
  S   S10       1.0  0.95000  0.77000  0.41800  1.0000
  S   S11       1.0  0.68400  0.83800  0.44300  1.0000
  S   S12       1.0  0.18400  0.66200  0.44300  1.0000
  S   S13       1.0  0.40800  0.54400  0.47700  1.0000
  S   S14       1.0  0.90800  0.95600  0.47700  1.0000
  S   S15       1.0  0.59200  0.45600  0.52300  1.0000
  S   S16       1.0  0.09230  0.04380  0.52300  1.0000
  S   S17       1.0  0.81600  0.33800  0.55700  1.0000
  S   S18       1.0  0.31600  0.16200  0.55700  1.0000
  S   S19       1.0  0.05030  0.23000  0.58200  1.0000
  S   S20       1.0  0.55000  0.27000  0.58200  1.0000
  S   S21       1.0  0.77900  0.70100  0.89400  1.0000
  S   S22       1.0  0.27900  0.79900  0.89400  1.0000
  S   S23       1.0  0.49900  0.89600  0.93600  1.0000
  S   S24       1.0  0.99900  0.60400  0.93600  1.0000
  S   S25       1.0  0.21600  0.50700  0.96700  1.0000
  S   S26       1.0  0.71600  0.99300  0.96700  1.0000
  S   S27       1.0  0.91800  0.10200  0.98400  1.0000
  S   S28       1.0  0.41800  0.39800  0.98400  1.0000
  Sb  Sb1       1.0  0.37200  0.84000  0.37400  1.0000
  Sb  Sb2       1.0  0.87200  0.66000  0.37400  1.0000
  Sb  Sb3       1.0  0.10400  0.55300  0.37700  1.0000
  Sb  Sb4       1.0  0.60400  0.94700  0.37700  1.0000
  Sb  Sb5       1.0  0.81700  0.06030  0.40900  1.0000
  Sb  Sb6       1.0  0.31700  0.44000  0.40900  1.0000
  Sb  Sb7       1.0  0.18300  0.94000  0.59100  1.0000
  Sb  Sb8       1.0  0.68300  0.56000  0.59100  1.0000
  Sb  Sb9       1.0  0.39600  0.05320  0.62300  1.0000
  Sb  Sb10      1.0  0.89600  0.44700  0.62300  1.0000
  Sb  Sb11      1.0  0.12800  0.34000  0.62600  1.0000
  Sb  Sb12      1.0  0.62800  0.16000  0.62600  1.0000
