data_image0
_chemical_formula_structural       Cl16H24O12Sn4
_chemical_formula_sum              "Cl16 H24 O12 Sn4"
_cell_length_a       6.2393
_cell_length_b       10.9871
_cell_length_c       11.8074
_cell_angle_alpha    90
_cell_angle_beta     90.1052
_cell_angle_gamma    90

_space_group_name_H-M_alt    "P 1"
_space_group_IT_number       1

loop_
  _space_group_symop_operation_xyz
  'x, y, z'

loop_
  _atom_site_type_symbol
  _atom_site_label
  _atom_site_symmetry_multiplicity
  _atom_site_fract_x
  _atom_site_fract_y
  _atom_site_fract_z
  _atom_site_occupancy
  Cl  Cl1       1.0  0.22500  0.40900  0.02860  1.0000
  Cl  Cl2       1.0  0.07880  0.11900  0.14000  1.0000
  Cl  Cl3       1.0  0.79600  0.86500  0.17300  1.0000
  Cl  Cl4       1.0  0.69200  0.37300  0.18700  1.0000
  Cl  Cl5       1.0  0.30800  0.87300  0.31300  1.0000
  Cl  Cl6       1.0  0.20400  0.36500  0.32700  1.0000
  Cl  Cl7       1.0  0.92100  0.61900  0.36000  1.0000
  Cl  Cl8       1.0  0.77500  0.90900  0.47100  1.0000
  Cl  Cl9       1.0  0.22500  0.09110  0.52900  1.0000
  Cl  Cl10      1.0  0.07880  0.38100  0.64000  1.0000
  Cl  Cl11      1.0  0.79600  0.63500  0.67300  1.0000
  Cl  Cl12      1.0  0.69200  0.12700  0.68700  1.0000
  Cl  Cl13      1.0  0.30800  0.62700  0.81300  1.0000
  Cl  Cl14      1.0  0.20400  0.13500  0.82700  1.0000
  Cl  Cl15      1.0  0.92100  0.88100  0.86000  1.0000
  Cl  Cl16      1.0  0.77500  0.59100  0.97100  1.0000
  H   H1        1.0  0.35400  0.79100  0.01030  1.0000
  H   H2        1.0  0.57800  0.85900  0.03430  1.0000
  H   H3        1.0  0.10500  0.65300  0.04220  1.0000
  H   H4        1.0  0.08570  0.76100  0.12800  1.0000
  H   H5        1.0  0.36700  0.65100  0.17400  1.0000
  H   H6        1.0  0.56000  0.55200  0.20700  1.0000
  H   H7        1.0  0.44000  0.05230  0.29300  1.0000
  H   H8        1.0  0.63300  0.15100  0.32600  1.0000
  H   H9        1.0  0.91400  0.26100  0.37200  1.0000
  H   H10       1.0  0.89500  0.15300  0.45800  1.0000
  H   H11       1.0  0.42200  0.35900  0.46600  1.0000
  H   H12       1.0  0.64600  0.29100  0.49000  1.0000
  H   H13       1.0  0.35400  0.70900  0.51000  1.0000
  H   H14       1.0  0.57800  0.64100  0.53400  1.0000
  H   H15       1.0  0.10500  0.84700  0.54200  1.0000
  H   H16       1.0  0.08570  0.73900  0.62800  1.0000
  H   H17       1.0  0.36700  0.84900  0.67400  1.0000
  H   H18       1.0  0.56000  0.94800  0.70700  1.0000
  H   H19       1.0  0.44000  0.44800  0.79300  1.0000
  H   H20       1.0  0.63300  0.34900  0.82600  1.0000
  H   H21       1.0  0.91400  0.23900  0.87200  1.0000
  H   H22       1.0  0.89500  0.34700  0.95800  1.0000
  H   H23       1.0  0.42200  0.14100  0.96600  1.0000
  H   H24       1.0  0.64600  0.20900  0.99000  1.0000
  O   O1        1.0  0.52500  0.16200  0.02730  1.0000
  O   O2        1.0  0.19200  0.71000  0.08780  1.0000
  O   O3        1.0  0.48200  0.62700  0.23100  1.0000
  O   O4        1.0  0.51800  0.12700  0.26900  1.0000
  O   O5        1.0  0.80800  0.21000  0.41200  1.0000
  O   O6        1.0  0.47500  0.66200  0.47300  1.0000
  O   O7        1.0  0.52500  0.33800  0.52700  1.0000
  O   O8        1.0  0.19200  0.79000  0.58800  1.0000
  O   O9        1.0  0.48200  0.87300  0.73100  1.0000
  O   O10       1.0  0.51800  0.37300  0.76900  1.0000
  O   O11       1.0  0.80800  0.29000  0.91200  1.0000
  O   O12       1.0  0.47500  0.83800  0.97300  1.0000
  Sn  Sn1       1.0  0.36100  0.26000  0.16300  1.0000
  Sn  Sn2       1.0  0.63900  0.76000  0.33700  1.0000
  Sn  Sn3       1.0  0.36100  0.24000  0.66300  1.0000
  Sn  Sn4       1.0  0.63900  0.74000  0.83700  1.0000
