data_image0
_chemical_formula_structural       C8F8H32Mn2N2O4
_chemical_formula_sum              "C8 F8 H32 Mn2 N2 O4"
_cell_length_a       5.28638
_cell_length_b       8.22483
_cell_length_c       10.2355
_cell_angle_alpha    95.8819
_cell_angle_beta     90
_cell_angle_gamma    108.746

_space_group_name_H-M_alt    "P 1"
_space_group_IT_number       1

loop_
  _space_group_symop_operation_xyz
  'x, y, z'

loop_
  _atom_site_type_symbol
  _atom_site_label
  _atom_site_symmetry_multiplicity
  _atom_site_fract_x
  _atom_site_fract_y
  _atom_site_fract_z
  _atom_site_occupancy
  C   C1        1.0  0.76200  0.88400  0.16100  1.0000
  C   C2        1.0  0.54400  0.10300  0.16800  1.0000
  C   C3        1.0  0.44100  0.89700  0.33200  1.0000
  C   C4        1.0  0.87800  0.11600  0.33900  1.0000
  C   C5        1.0  0.12200  0.88400  0.66100  1.0000
  C   C6        1.0  0.55900  0.10300  0.66800  1.0000
  C   C7        1.0  0.45600  0.89700  0.83200  1.0000
  C   C8        1.0  0.23800  0.11600  0.83900  1.0000
  F   F1        1.0  0.16300  0.72300  0.07440  1.0000
  F   F2        1.0  0.68100  0.48200  0.12700  1.0000
  F   F3        1.0  0.19800  0.51800  0.37300  1.0000
  F   F4        1.0  0.44000  0.27700  0.42600  1.0000
  F   F5        1.0  0.56000  0.72300  0.57400  1.0000
  F   F6        1.0  0.80200  0.48200  0.62700  1.0000
  F   F7        1.0  0.31900  0.51800  0.87300  1.0000
  F   F8        1.0  0.83700  0.27700  0.92600  1.0000
  H   H1        1.0  0.59800  0.79600  0.09800  1.0000
  H   H2        1.0  0.91600  0.96400  0.10300  1.0000
  H   H3        1.0  0.70100  0.17400  0.10700  1.0000
  H   H4        1.0  0.37800  0.01230  0.10800  1.0000
  H   H5        1.0  0.38500  0.43500  0.11600  1.0000
  H   H6        1.0  0.84700  0.81100  0.22100  1.0000
  H   H7        1.0  0.18100  0.45500  0.22600  1.0000
  H   H8        1.0  0.47600  0.19200  0.23400  1.0000
  H   H9        1.0  0.28400  0.80800  0.26600  1.0000
  H   H10       1.0  0.72600  0.54500  0.27400  1.0000
  H   H11       1.0  0.03650  0.18900  0.27900  1.0000
  H   H12       1.0  0.95100  0.56500  0.38400  1.0000
  H   H13       1.0  0.36600  0.98800  0.39200  1.0000
  H   H14       1.0  0.52600  0.82600  0.39300  1.0000
  H   H15       1.0  0.95200  0.03600  0.39700  1.0000
  H   H16       1.0  0.80200  0.20400  0.40200  1.0000
  H   H17       1.0  0.19800  0.79600  0.59800  1.0000
  H   H18       1.0  0.04760  0.96400  0.60300  1.0000
  H   H19       1.0  0.47400  0.17400  0.60700  1.0000
  H   H20       1.0  0.63400  0.01230  0.60800  1.0000
  H   H21       1.0  0.04920  0.43500  0.61600  1.0000
  H   H22       1.0  0.96300  0.81100  0.72100  1.0000
  H   H23       1.0  0.27400  0.45500  0.72600  1.0000
  H   H24       1.0  0.71600  0.19200  0.73400  1.0000
  H   H25       1.0  0.52400  0.80800  0.76600  1.0000
  H   H26       1.0  0.81900  0.54500  0.77400  1.0000
  H   H27       1.0  0.15300  0.18900  0.77900  1.0000
  H   H28       1.0  0.61500  0.56500  0.88400  1.0000
  H   H29       1.0  0.62200  0.98800  0.89200  1.0000
  H   H30       1.0  0.29900  0.82600  0.89300  1.0000
  H   H31       1.0  0.08350  0.03600  0.89700  1.0000
  H   H32       1.0  0.40200  0.20400  0.90200  1.0000
  Mn  Mn1       1.0  0.00000  0.50000  0.00000  1.0000
  Mn  Mn2       1.0  0.50000  0.50000  0.50000  1.0000
  N   N1        1.0  0.65500  0.00000  0.25000  1.0000
  N   N2        1.0  0.34500  0.00000  0.75000  1.0000
  O   O1        1.0  0.18600  0.40700  0.13200  1.0000
  O   O2        1.0  0.77900  0.59300  0.36800  1.0000
  O   O3        1.0  0.22100  0.40700  0.63200  1.0000
  O   O4        1.0  0.81400  0.59300  0.86800  1.0000
