data_image0
_chemical_formula_structural       K4Li8Na4O32S8
_chemical_formula_sum              "K4 Li8 Na4 O32 S8"
_cell_length_a       4.88259
_cell_length_b       7.66918
_cell_length_c       18.7061
_cell_angle_alpha    90
_cell_angle_beta     90
_cell_angle_gamma    90

_space_group_name_H-M_alt    "P 1"
_space_group_IT_number       1

loop_
  _space_group_symop_operation_xyz
  'x, y, z'

loop_
  _atom_site_type_symbol
  _atom_site_label
  _atom_site_symmetry_multiplicity
  _atom_site_fract_x
  _atom_site_fract_y
  _atom_site_fract_z
  _atom_site_occupancy
  K   K1        1.0  0.99700  0.05310  0.07040  1.0000
  K   K2        1.0  0.00275  0.55300  0.43000  1.0000
  K   K3        1.0  0.50300  0.94700  0.57000  1.0000
  K   K4        1.0  0.49700  0.44700  0.93000  1.0000
  Li  Li1       1.0  0.51000  0.75100  0.09030  1.0000
  Li  Li2       1.0  0.53700  0.39500  0.13800  1.0000
  Li  Li3       1.0  0.46300  0.89500  0.36200  1.0000
  Li  Li4       1.0  0.49000  0.25100  0.41000  1.0000
  Li  Li5       1.0  0.99000  0.24900  0.59000  1.0000
  Li  Li6       1.0  0.96300  0.60500  0.63800  1.0000
  Li  Li7       1.0  0.03720  0.10500  0.86200  1.0000
  Li  Li8       1.0  0.01010  0.74900  0.91000  1.0000
  Na  Na1       1.0  0.98300  0.75500  0.22700  1.0000
  Na  Na2       1.0  0.01700  0.25500  0.27300  1.0000
  Na  Na3       1.0  0.51700  0.24500  0.72700  1.0000
  Na  Na4       1.0  0.48300  0.74500  0.77300  1.0000
  O   O1        1.0  0.47700  0.93600  0.02090  1.0000
  O   O2        1.0  0.31300  0.53200  0.07300  1.0000
  O   O3        1.0  0.87300  0.38400  0.08140  1.0000
  O   O4        1.0  0.90000  0.69900  0.09520  1.0000
  O   O5        1.0  0.36800  0.87500  0.17000  1.0000
  O   O6        1.0  0.35900  0.19100  0.17100  1.0000
  O   O7        1.0  0.77100  0.03530  0.21000  1.0000
  O   O8        1.0  0.65100  0.52900  0.21800  1.0000
  O   O9        1.0  0.34900  0.02940  0.28200  1.0000
  O   O10       1.0  0.22900  0.53500  0.29000  1.0000
  O   O11       1.0  0.64100  0.69100  0.32900  1.0000
  O   O12       1.0  0.63200  0.37500  0.33000  1.0000
  O   O13       1.0  0.10000  0.19900  0.40500  1.0000
  O   O14       1.0  0.12700  0.88400  0.41900  1.0000
  O   O15       1.0  0.68700  0.03220  0.42700  1.0000
  O   O16       1.0  0.52300  0.43600  0.47900  1.0000
  O   O17       1.0  0.02280  0.06380  0.52100  1.0000
  O   O18       1.0  0.18700  0.46800  0.57300  1.0000
  O   O19       1.0  0.62700  0.61600  0.58100  1.0000
  O   O20       1.0  0.60000  0.30100  0.59500  1.0000
  O   O21       1.0  0.13200  0.12500  0.67000  1.0000
  O   O22       1.0  0.14100  0.80900  0.67100  1.0000
  O   O23       1.0  0.72900  0.96500  0.71000  1.0000
  O   O24       1.0  0.84900  0.47100  0.71800  1.0000
  O   O25       1.0  0.15100  0.97100  0.78200  1.0000
  O   O26       1.0  0.27100  0.46500  0.79000  1.0000
  O   O27       1.0  0.85900  0.30900  0.82900  1.0000
  O   O28       1.0  0.86800  0.62500  0.83000  1.0000
  O   O29       1.0  0.40000  0.80100  0.90500  1.0000
  O   O30       1.0  0.37300  0.11600  0.91900  1.0000
  O   O31       1.0  0.81300  0.96800  0.92700  1.0000
  O   O32       1.0  0.97700  0.56400  0.97900  1.0000
  S   S1        1.0  0.01250  0.54500  0.05760  1.0000
  S   S2        1.0  0.46700  0.03280  0.20800  1.0000
  S   S3        1.0  0.53300  0.53300  0.29200  1.0000
  S   S4        1.0  0.98700  0.04460  0.44200  1.0000
  S   S5        1.0  0.48700  0.45500  0.55800  1.0000
  S   S6        1.0  0.03290  0.96700  0.70800  1.0000
  S   S7        1.0  0.96700  0.46700  0.79200  1.0000
  S   S8        1.0  0.51300  0.95500  0.94200  1.0000
