data_image0
_chemical_formula_structural       Cd4O4Pt4Te4
_chemical_formula_sum              "Cd4 O4 Pt4 Te4"
_cell_length_a       5.79368
_cell_length_b       7.18106
_cell_length_c       7.22524
_cell_angle_alpha    90
_cell_angle_beta     90
_cell_angle_gamma    90

_space_group_name_H-M_alt    "P 1"
_space_group_IT_number       1

loop_
  _space_group_symop_operation_xyz
  'x, y, z'

loop_
  _atom_site_type_symbol
  _atom_site_label
  _atom_site_symmetry_multiplicity
  _atom_site_fract_x
  _atom_site_fract_y
  _atom_site_fract_z
  _atom_site_occupancy
  Cd  Cd1       1.0  0.76000  0.43300  0.07660  1.0000
  Cd  Cd2       1.0  0.24000  0.93300  0.42300  1.0000
  Cd  Cd3       1.0  0.74000  0.56700  0.57700  1.0000
  Cd  Cd4       1.0  0.26000  0.06720  0.92300  1.0000
  O   O1        1.0  0.38900  0.31700  0.08760  1.0000
  O   O2        1.0  0.61100  0.81700  0.41200  1.0000
  O   O3        1.0  0.11100  0.68300  0.58800  1.0000
  O   O4        1.0  0.88900  0.18300  0.91200  1.0000
  Pt  Pt1       1.0  0.07480  0.74000  0.08390  1.0000
  Pt  Pt2       1.0  0.92500  0.24000  0.41600  1.0000
  Pt  Pt3       1.0  0.42500  0.26000  0.58400  1.0000
  Pt  Pt4       1.0  0.57500  0.76000  0.91600  1.0000
  Te  Te1       1.0  0.75300  0.95400  0.19900  1.0000
  Te  Te2       1.0  0.24700  0.45400  0.30100  1.0000
  Te  Te3       1.0  0.74700  0.04610  0.69900  1.0000
  Te  Te4       1.0  0.25300  0.54600  0.80100  1.0000
