data_image0
_chemical_formula_structural       Ca2Mn8O30Si10
_chemical_formula_sum              "Ca2 Mn8 O30 Si10"
_cell_length_a       7.69247
_cell_length_b       11.8244
_cell_length_c       6.71348
_cell_angle_alpha    92.3201
_cell_angle_beta     93.8657
_cell_angle_gamma    105.529

_space_group_name_H-M_alt    "P 1"
_space_group_IT_number       1

loop_
  _space_group_symop_operation_xyz
  'x, y, z'

loop_
  _atom_site_type_symbol
  _atom_site_label
  _atom_site_symmetry_multiplicity
  _atom_site_fract_x
  _atom_site_fract_y
  _atom_site_fract_z
  _atom_site_occupancy
  Ca  Ca1       1.0  0.95200  0.31000  0.36500  1.0000
  Ca  Ca2       1.0  0.04760  0.69000  0.63500  1.0000
  Mn  Mn1       1.0  0.11700  0.14900  0.03280  1.0000
  Mn  Mn2       1.0  0.31800  0.44400  0.12300  1.0000
  Mn  Mn3       1.0  0.50900  0.73000  0.18900  1.0000
  Mn  Mn4       1.0  0.70100  0.02260  0.20600  1.0000
  Mn  Mn5       1.0  0.29900  0.97700  0.79400  1.0000
  Mn  Mn6       1.0  0.49100  0.27000  0.81100  1.0000
  Mn  Mn7       1.0  0.68200  0.55600  0.87700  1.0000
  Mn  Mn8       1.0  0.88300  0.85100  0.96700  1.0000
  O   O1        1.0  0.04560  0.32300  0.03900  1.0000
  O   O2        1.0  0.15700  0.96100  0.05860  1.0000
  O   O3        1.0  0.39700  0.26800  0.10400  1.0000
  O   O4        1.0  0.25000  0.61000  0.11000  1.0000
  O   O5        1.0  0.59900  0.56400  0.19100  1.0000
  O   O6        1.0  0.45100  0.90000  0.19300  1.0000
  O   O7        1.0  0.67400  0.18300  0.25200  1.0000
  O   O8        1.0  0.80300  0.86800  0.26400  1.0000
  O   O9        1.0  0.94700  0.56200  0.30200  1.0000
  O   O10       1.0  0.13800  0.77700  0.30300  1.0000
  O   O11       1.0  0.06290  0.14600  0.34100  1.0000
  O   O12       1.0  0.68400  0.38600  0.37200  1.0000
  O   O13       1.0  0.25700  0.41000  0.41700  1.0000
  O   O14       1.0  0.25700  0.99500  0.44900  1.0000
  O   O15       1.0  0.41900  0.22100  0.48500  1.0000
  O   O16       1.0  0.58100  0.77900  0.51500  1.0000
  O   O17       1.0  0.74300  0.00469  0.55100  1.0000
  O   O18       1.0  0.74300  0.59000  0.58300  1.0000
  O   O19       1.0  0.31600  0.61400  0.62800  1.0000
  O   O20       1.0  0.93700  0.85400  0.65900  1.0000
  O   O21       1.0  0.86200  0.22300  0.69700  1.0000
  O   O22       1.0  0.05340  0.43800  0.69800  1.0000
  O   O23       1.0  0.19700  0.13200  0.73600  1.0000
  O   O24       1.0  0.32600  0.81700  0.74800  1.0000
  O   O25       1.0  0.54900  0.09950  0.80700  1.0000
  O   O26       1.0  0.40100  0.43600  0.80900  1.0000
  O   O27       1.0  0.75000  0.39000  0.89000  1.0000
  O   O28       1.0  0.60300  0.73200  0.89600  1.0000
  O   O29       1.0  0.84300  0.03920  0.94100  1.0000
  O   O30       1.0  0.95400  0.67700  0.96100  1.0000
  Si  Si1       1.0  0.07490  0.65400  0.15500  1.0000
  Si  Si2       1.0  0.25500  0.91100  0.24600  1.0000
  Si  Si3       1.0  0.53700  0.26100  0.29100  1.0000
  Si  Si4       1.0  0.73000  0.53000  0.36400  1.0000
  Si  Si5       1.0  0.21700  0.12500  0.49700  1.0000
  Si  Si6       1.0  0.78300  0.87500  0.50300  1.0000
  Si  Si7       1.0  0.27000  0.47000  0.63600  1.0000
  Si  Si8       1.0  0.46300  0.73900  0.70900  1.0000
  Si  Si9       1.0  0.74500  0.08920  0.75400  1.0000
  Si  Si10      1.0  0.92500  0.34600  0.84500  1.0000
