data_image0
_chemical_formula_structural       F40H8P4Sb4
_chemical_formula_sum              "F40 H8 P4 Sb4"
_cell_length_a       5.1407
_cell_length_b       9.20573
_cell_length_c       11.5924
_cell_angle_alpha    90.0004
_cell_angle_beta     97.8161
_cell_angle_gamma    89.9989

_space_group_name_H-M_alt    "P 1"
_space_group_IT_number       1

loop_
  _space_group_symop_operation_xyz
  'x, y, z'

loop_
  _atom_site_type_symbol
  _atom_site_label
  _atom_site_symmetry_multiplicity
  _atom_site_fract_x
  _atom_site_fract_y
  _atom_site_fract_z
  _atom_site_occupancy
  F   F1        1.0  0.36800  0.88100  0.00625  1.0000
  F   F2        1.0  0.92400  0.88600  0.01890  1.0000
  F   F3        1.0  0.08290  0.37900  0.05570  1.0000
  F   F4        1.0  0.60500  0.40700  0.08360  1.0000
  F   F5        1.0  0.69000  0.70300  0.12900  1.0000
  F   F6        1.0  0.24700  0.63600  0.13200  1.0000
  F   F7        1.0  0.39900  0.16900  0.17500  1.0000
  F   F8        1.0  0.90700  0.17100  0.18500  1.0000
  F   F9        1.0  0.22900  0.89400  0.19700  1.0000
  F   F10       1.0  0.70800  0.94900  0.22500  1.0000
  F   F11       1.0  0.29200  0.44900  0.27500  1.0000
  F   F12       1.0  0.77200  0.39300  0.30300  1.0000
  F   F13       1.0  0.09300  0.67100  0.31500  1.0000
  F   F14       1.0  0.60100  0.66900  0.32500  1.0000
  F   F15       1.0  0.75300  0.13600  0.36800  1.0000
  F   F16       1.0  0.31000  0.20300  0.37100  1.0000
  F   F17       1.0  0.39400  0.90700  0.41600  1.0000
  F   F18       1.0  0.91700  0.87900  0.44400  1.0000
  F   F19       1.0  0.07590  0.38600  0.48100  1.0000
  F   F20       1.0  0.63200  0.38100  0.49400  1.0000
  F   F21       1.0  0.36700  0.61800  0.50600  1.0000
  F   F22       1.0  0.92300  0.61400  0.51900  1.0000
  F   F23       1.0  0.07990  0.12200  0.55600  1.0000
  F   F24       1.0  0.60300  0.09270  0.58300  1.0000
  F   F25       1.0  0.68800  0.79700  0.62900  1.0000
  F   F26       1.0  0.24500  0.86400  0.63100  1.0000
  F   F27       1.0  0.39900  0.33200  0.67500  1.0000
  F   F28       1.0  0.90600  0.32900  0.68500  1.0000
  F   F29       1.0  0.23000  0.60700  0.69700  1.0000
  F   F30       1.0  0.70900  0.55200  0.72600  1.0000
  F   F31       1.0  0.29100  0.05160  0.77400  1.0000
  F   F32       1.0  0.77000  0.10700  0.80300  1.0000
  F   F33       1.0  0.09360  0.82900  0.81500  1.0000
  F   F34       1.0  0.60100  0.83200  0.82500  1.0000
  F   F35       1.0  0.75500  0.36400  0.86900  1.0000
  F   F36       1.0  0.31200  0.29600  0.87100  1.0000
  F   F37       1.0  0.39700  0.59300  0.91700  1.0000
  F   F38       1.0  0.92000  0.62200  0.94400  1.0000
  F   F39       1.0  0.07690  0.11400  0.98100  1.0000
  F   F40       1.0  0.63300  0.11800  0.99400  1.0000
  H   H1        1.0  0.13900  0.87100  0.01390  1.0000
  H   H2        1.0  0.68400  0.40200  0.22500  1.0000
  H   H3        1.0  0.31600  0.90200  0.27500  1.0000
  H   H4        1.0  0.86100  0.37100  0.48600  1.0000
  H   H5        1.0  0.13700  0.62900  0.51400  1.0000
  H   H6        1.0  0.68200  0.09780  0.72500  1.0000
  H   H7        1.0  0.31800  0.59800  0.77500  1.0000
  H   H8        1.0  0.86300  0.12900  0.98600  1.0000
  P   P1        1.0  0.06710  0.55300  0.21200  1.0000
  P   P2        1.0  0.93300  0.05250  0.28800  1.0000
  P   P3        1.0  0.06520  0.94700  0.71200  1.0000
  P   P4        1.0  0.93500  0.44700  0.78800  1.0000
  Sb  Sb1       1.0  0.36400  0.25800  0.02990  1.0000
  Sb  Sb2       1.0  0.63600  0.75800  0.47000  1.0000
  Sb  Sb3       1.0  0.36200  0.24200  0.53000  1.0000
  Sb  Sb4       1.0  0.63800  0.74200  0.97000  1.0000
