data_image0
_chemical_formula_structural       As2F10N8S8
_chemical_formula_sum              "As2 F10 N8 S8"
_cell_length_a       5.30146
_cell_length_b       10.5653
_cell_length_c       7.43629
_cell_angle_alpha    90
_cell_angle_beta     108.302
_cell_angle_gamma    90

_space_group_name_H-M_alt    "P 1"
_space_group_IT_number       1

loop_
  _space_group_symop_operation_xyz
  'x, y, z'

loop_
  _atom_site_type_symbol
  _atom_site_label
  _atom_site_symmetry_multiplicity
  _atom_site_fract_x
  _atom_site_fract_y
  _atom_site_fract_z
  _atom_site_occupancy
  As  As1       1.0  0.15300  0.25000  0.15200  1.0000
  As  As2       1.0  0.84700  0.75000  0.84800  1.0000
  F   F1        1.0  0.92000  0.13100  0.03610  1.0000
  F   F2        1.0  0.92000  0.36900  0.03610  1.0000
  F   F3        1.0  0.38300  0.12800  0.26300  1.0000
  F   F4        1.0  0.38300  0.37200  0.26300  1.0000
  F   F5        1.0  0.03080  0.25000  0.34600  1.0000
  F   F6        1.0  0.96900  0.75000  0.65400  1.0000
  F   F7        1.0  0.61700  0.62800  0.73700  1.0000
  F   F8        1.0  0.61700  0.87200  0.73700  1.0000
  F   F9        1.0  0.08030  0.63100  0.96400  1.0000
  F   F10       1.0  0.08030  0.86900  0.96400  1.0000
  N   N1        1.0  0.69300  0.75000  0.05240  1.0000
  N   N2        1.0  0.89900  0.56800  0.30400  1.0000
  N   N3        1.0  0.89900  0.93200  0.30400  1.0000
  N   N4        1.0  0.27300  0.75000  0.37400  1.0000
  N   N5        1.0  0.72700  0.25000  0.62600  1.0000
  N   N6        1.0  0.10100  0.06850  0.69600  1.0000
  N   N7        1.0  0.10100  0.43200  0.69600  1.0000
  N   N8        1.0  0.30700  0.25000  0.94800  1.0000
  S   S1        1.0  0.63600  0.61600  0.15200  1.0000
  S   S2        1.0  0.63600  0.88400  0.15200  1.0000
  S   S3        1.0  0.19100  0.61000  0.40300  1.0000
  S   S4        1.0  0.19100  0.89000  0.40300  1.0000
  S   S5        1.0  0.80900  0.11000  0.59700  1.0000
  S   S6        1.0  0.80900  0.39000  0.59700  1.0000
  S   S7        1.0  0.36400  0.11600  0.84800  1.0000
  S   S8        1.0  0.36400  0.38400  0.84800  1.0000
