data_image0
_chemical_formula_structural       Be4O4Te4Zn4
_chemical_formula_sum              "Be4 O4 Te4 Zn4"
_cell_length_a       4.99629
_cell_length_b       8.12537
_cell_length_c       7.25311
_cell_angle_alpha    90
_cell_angle_beta     90
_cell_angle_gamma    90

_space_group_name_H-M_alt    "P 1"
_space_group_IT_number       1

loop_
  _space_group_symop_operation_xyz
  'x, y, z'

loop_
  _atom_site_type_symbol
  _atom_site_label
  _atom_site_symmetry_multiplicity
  _atom_site_fract_x
  _atom_site_fract_y
  _atom_site_fract_z
  _atom_site_occupancy
  Be  Be1       1.0  0.21600  0.18700  0.03510  1.0000
  Be  Be2       1.0  0.78400  0.68700  0.46500  1.0000
  Be  Be3       1.0  0.28400  0.81300  0.53500  1.0000
  Be  Be4       1.0  0.71600  0.31300  0.96500  1.0000
  O   O1        1.0  0.50700  0.22000  0.07780  1.0000
  O   O2        1.0  0.49300  0.72000  0.42200  1.0000
  O   O3        1.0  0.99300  0.78000  0.57800  1.0000
  O   O4        1.0  0.00749  0.28000  0.92200  1.0000
  Te  Te1       1.0  0.01650  0.91700  0.12200  1.0000
  Te  Te2       1.0  0.98300  0.41700  0.37800  1.0000
  Te  Te3       1.0  0.48300  0.08290  0.62200  1.0000
  Te  Te4       1.0  0.51700  0.58300  0.87800  1.0000
  Zn  Zn1       1.0  0.30800  0.62700  0.20300  1.0000
  Zn  Zn2       1.0  0.69200  0.12700  0.29700  1.0000
  Zn  Zn3       1.0  0.19200  0.37300  0.70300  1.0000
  Zn  Zn4       1.0  0.80800  0.87300  0.79700  1.0000
