data_image0
_chemical_formula_structural       Cl2Cu3H6MgO6
_chemical_formula_sum              "Cl2 Cu3 H6 Mg1 O6"
_cell_length_a       6.21447
_cell_length_b       6.21447
_cell_length_c       5.68394
_cell_angle_alpha    90
_cell_angle_beta     90
_cell_angle_gamma    120

_space_group_name_H-M_alt    "P 1"
_space_group_IT_number       1

loop_
  _space_group_symop_operation_xyz
  'x, y, z'

loop_
  _atom_site_type_symbol
  _atom_site_label
  _atom_site_symmetry_multiplicity
  _atom_site_fract_x
  _atom_site_fract_y
  _atom_site_fract_z
  _atom_site_occupancy
  Cl  Cl1       1.0  0.66700  0.33300  0.38400  1.0000
  Cl  Cl2       1.0  0.33300  0.66700  0.61600  1.0000
  Cu  Cu1       1.0  0.50000  0.00000  0.00000  1.0000
  Cu  Cu2       1.0  0.00000  0.50000  0.00000  1.0000
  Cu  Cu3       1.0  0.50000  0.50000  0.00000  1.0000
  H   H1        1.0  0.20300  0.40700  0.32500  1.0000
  H   H2        1.0  0.20300  0.79700  0.32500  1.0000
  H   H3        1.0  0.59300  0.79700  0.32500  1.0000
  H   H4        1.0  0.40700  0.20300  0.67500  1.0000
  H   H5        1.0  0.79700  0.20300  0.67500  1.0000
  H   H6        1.0  0.79700  0.59300  0.67500  1.0000
  Mg  Mg1       1.0  0.00000  0.00000  0.00000  1.0000
  O   O1        1.0  0.17600  0.35100  0.15900  1.0000
  O   O2        1.0  0.17600  0.82400  0.15900  1.0000
  O   O3        1.0  0.64900  0.82400  0.15900  1.0000
  O   O4        1.0  0.35100  0.17600  0.84100  1.0000
  O   O5        1.0  0.82400  0.17600  0.84100  1.0000
  O   O6        1.0  0.82400  0.64900  0.84100  1.0000
