data_image0
_chemical_formula_structural       Al8F40Sr8
_chemical_formula_sum              "Al8 F40 Sr8"
_cell_length_a       7.07304
_cell_length_b       10.37
_cell_length_c       10.37
_cell_angle_alpha    96.6789
_cell_angle_beta     70.0601
_cell_angle_gamma    109.94

_space_group_name_H-M_alt    "P 1"
_space_group_IT_number       1

loop_
  _space_group_symop_operation_xyz
  'x, y, z'

loop_
  _atom_site_type_symbol
  _atom_site_label
  _atom_site_symmetry_multiplicity
  _atom_site_fract_x
  _atom_site_fract_y
  _atom_site_fract_z
  _atom_site_occupancy
  Al  Al1       1.0  0.24500  0.00000  0.00000  1.0000
  Al  Al2       1.0  0.74100  0.00000  0.00000  1.0000
  Al  Al3       1.0  0.66200  0.48200  0.15100  1.0000
  Al  Al4       1.0  0.17900  0.84900  0.48200  1.0000
  Al  Al5       1.0  0.99500  0.50000  0.50000  1.0000
  Al  Al6       1.0  0.49500  0.50000  0.50000  1.0000
  Al  Al7       1.0  0.81200  0.15100  0.51800  1.0000
  Al  Al8       1.0  0.33000  0.51800  0.84900  1.0000
  F   F1        1.0  0.49300  0.00000  0.00000  1.0000
  F   F2        1.0  0.99300  0.00000  0.00000  1.0000
  F   F3        1.0  0.22200  0.47800  0.02780  1.0000
  F   F4        1.0  0.11400  0.83100  0.06930  1.0000
  F   F5        1.0  0.63400  0.83200  0.07100  1.0000
  F   F6        1.0  0.43200  0.34500  0.12900  1.0000
  F   F7        1.0  0.77700  0.34600  0.12900  1.0000
  F   F8        1.0  0.70500  0.07100  0.16800  1.0000
  F   F9        1.0  0.18300  0.06930  0.16900  1.0000
  F   F10       1.0  0.52700  0.60800  0.19300  1.0000
  F   F11       1.0  0.87800  0.60800  0.19400  1.0000
  F   F12       1.0  0.06070  0.45200  0.32200  1.0000
  F   F13       1.0  0.54500  0.43000  0.33000  1.0000
  F   F14       1.0  0.08720  0.87100  0.34500  1.0000
  F   F15       1.0  0.43100  0.87100  0.34600  1.0000
  F   F16       1.0  0.07230  0.19400  0.39200  1.0000
  F   F17       1.0  0.72000  0.19300  0.39200  1.0000
  F   F18       1.0  0.11500  0.67000  0.43000  1.0000
  F   F19       1.0  0.60900  0.67800  0.45200  1.0000
  F   F20       1.0  0.74400  0.97200  0.47800  1.0000
  F   F21       1.0  0.74500  0.50000  0.50000  1.0000
  F   F22       1.0  0.24500  0.50000  0.50000  1.0000
  F   F23       1.0  0.24900  0.02780  0.52200  1.0000
  F   F24       1.0  0.38200  0.32200  0.54800  1.0000
  F   F25       1.0  0.87500  0.33000  0.57000  1.0000
  F   F26       1.0  0.91900  0.80700  0.60800  1.0000
  F   F27       1.0  0.27000  0.80600  0.60800  1.0000
  F   F28       1.0  0.90700  0.12900  0.65400  1.0000
  F   F29       1.0  0.56100  0.12900  0.65500  1.0000
  F   F30       1.0  0.44500  0.57000  0.67000  1.0000
  F   F31       1.0  0.93100  0.54800  0.67800  1.0000
  F   F32       1.0  0.46400  0.39200  0.80600  1.0000
  F   F33       1.0  0.11200  0.39200  0.80700  1.0000
  F   F34       1.0  0.28200  0.93100  0.83100  1.0000
  F   F35       1.0  0.80200  0.92900  0.83200  1.0000
  F   F36       1.0  0.56000  0.65400  0.87100  1.0000
  F   F37       1.0  0.21600  0.65500  0.87100  1.0000
  F   F38       1.0  0.87300  0.16800  0.92900  1.0000
  F   F39       1.0  0.35200  0.16900  0.93100  1.0000
  F   F40       1.0  0.77100  0.52200  0.97200  1.0000
  Sr  Sr1       1.0  0.04610  0.26800  0.16700  1.0000
  Sr  Sr2       1.0  0.25200  0.68400  0.17100  1.0000
  Sr  Sr3       1.0  0.77800  0.83300  0.26800  1.0000
  Sr  Sr4       1.0  0.42300  0.17100  0.31600  1.0000
  Sr  Sr5       1.0  0.56800  0.82900  0.68400  1.0000
  Sr  Sr6       1.0  0.21300  0.16700  0.73200  1.0000
  Sr  Sr7       1.0  0.73900  0.31600  0.82900  1.0000
  Sr  Sr8       1.0  0.94500  0.73200  0.83300  1.0000
