data_image0
_chemical_formula_structural       Hf8Rb16S32
_chemical_formula_sum              "Hf8 Rb16 S32"
_cell_length_a       9.8296
_cell_length_b       6.73167
_cell_length_c       24.1034
_cell_angle_alpha    90
_cell_angle_beta     90
_cell_angle_gamma    90

_space_group_name_H-M_alt    "P 1"
_space_group_IT_number       1

loop_
  _space_group_symop_operation_xyz
  'x, y, z'

loop_
  _atom_site_type_symbol
  _atom_site_label
  _atom_site_symmetry_multiplicity
  _atom_site_fract_x
  _atom_site_fract_y
  _atom_site_fract_z
  _atom_site_occupancy
  Hf  Hf1       1.0  0.17300  0.46600  0.13000  1.0000
  Hf  Hf2       1.0  0.32700  0.96600  0.13000  1.0000
  Hf  Hf3       1.0  0.67300  0.46600  0.37000  1.0000
  Hf  Hf4       1.0  0.82700  0.96600  0.37000  1.0000
  Hf  Hf5       1.0  0.17300  0.03420  0.63000  1.0000
  Hf  Hf6       1.0  0.32700  0.53400  0.63000  1.0000
  Hf  Hf7       1.0  0.67300  0.03420  0.87000  1.0000
  Hf  Hf8       1.0  0.82700  0.53400  0.87000  1.0000
  Rb  Rb1       1.0  0.85900  0.19400  0.03400  1.0000
  Rb  Rb2       1.0  0.64100  0.69400  0.03400  1.0000
  Rb  Rb3       1.0  0.57200  0.45300  0.19900  1.0000
  Rb  Rb4       1.0  0.92800  0.95300  0.19900  1.0000
  Rb  Rb5       1.0  0.07210  0.45300  0.30100  1.0000
  Rb  Rb6       1.0  0.42800  0.95300  0.30100  1.0000
  Rb  Rb7       1.0  0.35900  0.19400  0.46600  1.0000
  Rb  Rb8       1.0  0.14100  0.69400  0.46600  1.0000
  Rb  Rb9       1.0  0.85900  0.30600  0.53400  1.0000
  Rb  Rb10      1.0  0.64100  0.80600  0.53400  1.0000
  Rb  Rb11      1.0  0.57200  0.04730  0.69900  1.0000
  Rb  Rb12      1.0  0.92800  0.54700  0.69900  1.0000
  Rb  Rb13      1.0  0.07210  0.04730  0.80100  1.0000
  Rb  Rb14      1.0  0.42800  0.54700  0.80100  1.0000
  Rb  Rb15      1.0  0.35900  0.30600  0.96600  1.0000
  Rb  Rb16      1.0  0.14100  0.80600  0.96600  1.0000
  S   S1        1.0  0.17200  0.15600  0.06780  1.0000
  S   S2        1.0  0.32800  0.65600  0.06780  1.0000
  S   S3        1.0  0.54100  0.12800  0.08890  1.0000
  S   S4        1.0  0.95900  0.62800  0.08890  1.0000
  S   S5        1.0  0.92100  0.44700  0.15900  1.0000
  S   S6        1.0  0.57900  0.94700  0.15900  1.0000
  S   S7        1.0  0.26900  0.23100  0.20100  1.0000
  S   S8        1.0  0.23100  0.73100  0.20100  1.0000
  S   S9        1.0  0.76900  0.23100  0.29900  1.0000
  S   S10       1.0  0.73100  0.73100  0.29900  1.0000
  S   S11       1.0  0.42100  0.44700  0.34100  1.0000
  S   S12       1.0  0.07910  0.94700  0.34100  1.0000
  S   S13       1.0  0.04150  0.12800  0.41100  1.0000
  S   S14       1.0  0.45900  0.62800  0.41100  1.0000
  S   S15       1.0  0.67200  0.15600  0.43200  1.0000
  S   S16       1.0  0.82800  0.65600  0.43200  1.0000
  S   S17       1.0  0.17200  0.34400  0.56800  1.0000
  S   S18       1.0  0.32800  0.84400  0.56800  1.0000
  S   S19       1.0  0.54100  0.37200  0.58900  1.0000
  S   S20       1.0  0.95900  0.87200  0.58900  1.0000
  S   S21       1.0  0.92100  0.05270  0.65900  1.0000
  S   S22       1.0  0.57900  0.55300  0.65900  1.0000
  S   S23       1.0  0.26900  0.26900  0.70100  1.0000
  S   S24       1.0  0.23100  0.76900  0.70100  1.0000
  S   S25       1.0  0.76900  0.26900  0.79900  1.0000
  S   S26       1.0  0.73100  0.76900  0.79900  1.0000
  S   S27       1.0  0.42100  0.05270  0.84100  1.0000
  S   S28       1.0  0.07910  0.55300  0.84100  1.0000
  S   S29       1.0  0.04150  0.37200  0.91100  1.0000
  S   S30       1.0  0.45900  0.87200  0.91100  1.0000
  S   S31       1.0  0.67200  0.34400  0.93200  1.0000
  S   S32       1.0  0.82800  0.84400  0.93200  1.0000
