data_image0
_chemical_formula_structural       C4F44S4Sb4
_chemical_formula_sum              "C4 F44 S4 Sb4"
_cell_length_a       6.82646
_cell_length_b       8.55753
_cell_length_c       12.2626
_cell_angle_alpha    91.165
_cell_angle_beta     90
_cell_angle_gamma    113.507

_space_group_name_H-M_alt    "P 1"
_space_group_IT_number       1

loop_
  _space_group_symop_operation_xyz
  'x, y, z'

loop_
  _atom_site_type_symbol
  _atom_site_label
  _atom_site_symmetry_multiplicity
  _atom_site_fract_x
  _atom_site_fract_y
  _atom_site_fract_z
  _atom_site_occupancy
  C   C1        1.0  0.72400  0.30300  0.07880  1.0000
  C   C2        1.0  0.42100  0.69700  0.42100  1.0000
  C   C3        1.0  0.57900  0.30300  0.57900  1.0000
  C   C4        1.0  0.27600  0.69700  0.92100  1.0000
  F   F1        1.0  0.33300  0.14200  0.00224  1.0000
  F   F2        1.0  0.26700  0.62700  0.01800  1.0000
  F   F3        1.0  0.95200  0.72000  0.03230  1.0000
  F   F4        1.0  0.70400  0.14300  0.06810  1.0000
  F   F5        1.0  0.56400  0.56500  0.10200  1.0000
  F   F6        1.0  0.99800  0.01490  0.13700  1.0000
  F   F7        1.0  0.89500  0.39800  0.13900  1.0000
  F   F8        1.0  0.40000  0.11000  0.19200  1.0000
  F   F9        1.0  0.58700  0.84900  0.20600  1.0000
  F   F10       1.0  0.20600  0.62000  0.23700  1.0000
  F   F11       1.0  0.87000  0.70400  0.24800  1.0000
  F   F12       1.0  0.16500  0.29600  0.25200  1.0000
  F   F13       1.0  0.58600  0.38000  0.26300  1.0000
  F   F14       1.0  0.73800  0.15100  0.29400  1.0000
  F   F15       1.0  0.29100  0.89000  0.30800  1.0000
  F   F16       1.0  0.49700  0.60200  0.36100  1.0000
  F   F17       1.0  0.98300  0.98500  0.36300  1.0000
  F   F18       1.0  0.99900  0.43500  0.39800  1.0000
  F   F19       1.0  0.56100  0.85700  0.43200  1.0000
  F   F20       1.0  0.23300  0.28000  0.46800  1.0000
  F   F21       1.0  0.64000  0.37300  0.48200  1.0000
  F   F22       1.0  0.19100  0.85800  0.49800  1.0000
  F   F23       1.0  0.80900  0.14200  0.50200  1.0000
  F   F24       1.0  0.36000  0.62700  0.51800  1.0000
  F   F25       1.0  0.76700  0.72000  0.53200  1.0000
  F   F26       1.0  0.43900  0.14300  0.56800  1.0000
  F   F27       1.0  0.00074  0.56500  0.60200  1.0000
  F   F28       1.0  0.01720  0.01490  0.63700  1.0000
  F   F29       1.0  0.50300  0.39800  0.63900  1.0000
  F   F30       1.0  0.70900  0.11000  0.69200  1.0000
  F   F31       1.0  0.26200  0.84900  0.70600  1.0000
  F   F32       1.0  0.41400  0.62000  0.73700  1.0000
  F   F33       1.0  0.83500  0.70400  0.74800  1.0000
  F   F34       1.0  0.13000  0.29600  0.75200  1.0000
  F   F35       1.0  0.79400  0.38000  0.76300  1.0000
  F   F36       1.0  0.41300  0.15100  0.79400  1.0000
  F   F37       1.0  0.60000  0.89000  0.80800  1.0000
  F   F38       1.0  0.10500  0.60200  0.86100  1.0000
  F   F39       1.0  0.00228  0.98500  0.86300  1.0000
  F   F40       1.0  0.43600  0.43500  0.89800  1.0000
  F   F41       1.0  0.29600  0.85700  0.93200  1.0000
  F   F42       1.0  0.04770  0.28000  0.96800  1.0000
  F   F43       1.0  0.73300  0.37300  0.98200  1.0000
  F   F44       1.0  0.66700  0.85800  0.99800  1.0000
  S   S1        1.0  0.46900  0.29600  0.15300  1.0000
  S   S2        1.0  0.17400  0.70400  0.34700  1.0000
  S   S3        1.0  0.82600  0.29600  0.65300  1.0000
  S   S4        1.0  0.53100  0.70400  0.84700  1.0000
  Sb  Sb1       1.0  0.78300  0.79300  0.12400  1.0000
  Sb  Sb2       1.0  0.99000  0.20700  0.37600  1.0000
  Sb  Sb3       1.0  0.00961  0.79300  0.62400  1.0000
  Sb  Sb4       1.0  0.21700  0.20700  0.87600  1.0000
