data_image0
_chemical_formula_structural       As8Ca6Cu6O32
_chemical_formula_sum              "As8 Ca6 Cu6 O32"
_cell_length_a       16.5982
_cell_length_b       5.01096
_cell_length_c       8.98321
_cell_angle_alpha    90
_cell_angle_beta     116.031
_cell_angle_gamma    90

_space_group_name_H-M_alt    "P 1"
_space_group_IT_number       1

loop_
  _space_group_symop_operation_xyz
  'x, y, z'

loop_
  _atom_site_type_symbol
  _atom_site_label
  _atom_site_symmetry_multiplicity
  _atom_site_fract_x
  _atom_site_fract_y
  _atom_site_fract_z
  _atom_site_occupancy
  As  As1       1.0  0.15900  0.52100  0.04500  1.0000
  As  As2       1.0  0.65900  0.97900  0.04500  1.0000
  As  As3       1.0  0.59400  0.51300  0.43600  1.0000
  As  As4       1.0  0.09440  0.98700  0.43600  1.0000
  As  As5       1.0  0.40600  0.48700  0.56400  1.0000
  As  As6       1.0  0.90600  0.01330  0.56400  1.0000
  As  As7       1.0  0.84100  0.47900  0.95500  1.0000
  As  As8       1.0  0.34100  0.02060  0.95500  1.0000
  Ca  Ca1       1.0  0.00000  0.00000  0.00000  1.0000
  Ca  Ca2       1.0  0.50000  0.50000  0.00000  1.0000
  Ca  Ca3       1.0  0.26800  0.03320  0.30700  1.0000
  Ca  Ca4       1.0  0.76800  0.46700  0.30700  1.0000
  Ca  Ca5       1.0  0.73200  0.96700  0.69300  1.0000
  Ca  Ca6       1.0  0.23200  0.53300  0.69300  1.0000
  Cu  Cu1       1.0  0.38000  0.53500  0.20900  1.0000
  Cu  Cu2       1.0  0.88000  0.96500  0.20900  1.0000
  Cu  Cu3       1.0  0.00000  0.50000  0.50000  1.0000
  Cu  Cu4       1.0  0.50000  0.00000  0.50000  1.0000
  Cu  Cu5       1.0  0.12000  0.03510  0.79100  1.0000
  Cu  Cu6       1.0  0.62000  0.46500  0.79100  1.0000
  O   O1        1.0  0.64500  0.63900  0.04220  1.0000
  O   O2        1.0  0.14500  0.86100  0.04220  1.0000
  O   O3        1.0  0.59300  0.14400  0.11500  1.0000
  O   O4        1.0  0.09340  0.35600  0.11500  1.0000
  O   O5        1.0  0.85000  0.58200  0.14400  1.0000
  O   O6        1.0  0.35000  0.91800  0.14400  1.0000
  O   O7        1.0  0.26600  0.45900  0.20000  1.0000
  O   O8        1.0  0.76600  0.04060  0.20000  1.0000
  O   O9        1.0  0.50500  0.58800  0.25200  1.0000
  O   O10       1.0  0.00455  0.91200  0.25200  1.0000
  O   O11       1.0  0.92400  0.19600  0.41100  1.0000
  O   O12       1.0  0.42400  0.30400  0.41100  1.0000
  O   O13       1.0  0.69100  0.63500  0.44400  1.0000
  O   O14       1.0  0.19100  0.86500  0.44400  1.0000
  O   O15       1.0  0.60200  0.18200  0.49400  1.0000
  O   O16       1.0  0.10200  0.31800  0.49400  1.0000
  O   O17       1.0  0.89800  0.68200  0.50600  1.0000
  O   O18       1.0  0.39800  0.81800  0.50600  1.0000
  O   O19       1.0  0.80900  0.13500  0.55600  1.0000
  O   O20       1.0  0.30900  0.36500  0.55600  1.0000
  O   O21       1.0  0.57600  0.69600  0.58900  1.0000
  O   O22       1.0  0.07600  0.80400  0.58900  1.0000
  O   O23       1.0  0.99500  0.08800  0.74800  1.0000
  O   O24       1.0  0.49500  0.41200  0.74800  1.0000
  O   O25       1.0  0.73400  0.54100  0.80000  1.0000
  O   O26       1.0  0.23400  0.95900  0.80000  1.0000
  O   O27       1.0  0.65000  0.08190  0.85600  1.0000
  O   O28       1.0  0.15000  0.41800  0.85600  1.0000
  O   O29       1.0  0.90700  0.64400  0.88500  1.0000
  O   O30       1.0  0.40700  0.85600  0.88500  1.0000
  O   O31       1.0  0.85500  0.13900  0.95800  1.0000
  O   O32       1.0  0.35500  0.36100  0.95800  1.0000
