data_image0
_chemical_formula_structural       C6F14H32N2
_chemical_formula_sum              "C6 F14 H32 N2"
_cell_length_a       9.28828
_cell_length_b       9.28835
_cell_length_c       5.30098
_cell_angle_alpha    90
_cell_angle_beta     90
_cell_angle_gamma    120.001

_space_group_name_H-M_alt    "P 1"
_space_group_IT_number       1

loop_
  _space_group_symop_operation_xyz
  'x, y, z'

loop_
  _atom_site_type_symbol
  _atom_site_label
  _atom_site_symmetry_multiplicity
  _atom_site_fract_x
  _atom_site_fract_y
  _atom_site_fract_z
  _atom_site_occupancy
  C   C1        1.0  0.16600  0.62900  0.43300  1.0000
  C   C2        1.0  0.37100  0.53600  0.43300  1.0000
  C   C3        1.0  0.46400  0.83400  0.43300  1.0000
  C   C4        1.0  0.83400  0.37100  0.93300  1.0000
  C   C5        1.0  0.62900  0.46400  0.93300  1.0000
  C   C6        1.0  0.53600  0.16600  0.93300  1.0000
  F   F1        1.0  0.00000  0.00000  0.07210  1.0000
  F   F2        1.0  0.46600  0.29800  0.41800  1.0000
  F   F3        1.0  0.70200  0.16800  0.41800  1.0000
  F   F4        1.0  0.83200  0.53400  0.41800  1.0000
  F   F5        1.0  0.98900  0.23300  0.42200  1.0000
  F   F6        1.0  0.76700  0.75700  0.42200  1.0000
  F   F7        1.0  0.24300  0.01050  0.42200  1.0000
  F   F8        1.0  0.00000  0.00000  0.57200  1.0000
  F   F9        1.0  0.53400  0.70200  0.91800  1.0000
  F   F10       1.0  0.16800  0.46600  0.91800  1.0000
  F   F11       1.0  0.29800  0.83200  0.91800  1.0000
  F   F12       1.0  0.23300  0.24300  0.92200  1.0000
  F   F13       1.0  0.01050  0.76700  0.92200  1.0000
  F   F14       1.0  0.75700  0.98900  0.92200  1.0000
  H   H1        1.0  0.51200  0.43700  0.01870  1.0000
  H   H2        1.0  0.56300  0.07520  0.01870  1.0000
  H   H3        1.0  0.92500  0.48800  0.01870  1.0000
  H   H4        1.0  0.66700  0.33300  0.21000  1.0000
  H   H5        1.0  0.38100  0.54100  0.22800  1.0000
  H   H6        1.0  0.45900  0.84000  0.22800  1.0000
  H   H7        1.0  0.16000  0.61900  0.22800  1.0000
  H   H8        1.0  0.37600  0.18200  0.42400  1.0000
  H   H9        1.0  0.80600  0.62400  0.42400  1.0000
  H   H10       1.0  0.81800  0.19400  0.42400  1.0000
  H   H11       1.0  0.13800  0.00560  0.48700  1.0000
  H   H12       1.0  0.99400  0.13200  0.48700  1.0000
  H   H13       1.0  0.86800  0.86200  0.48700  1.0000
  H   H14       1.0  0.27000  0.41600  0.49500  1.0000
  H   H15       1.0  0.58400  0.85400  0.49500  1.0000
  H   H16       1.0  0.14600  0.73000  0.49500  1.0000
  H   H17       1.0  0.48800  0.56300  0.51900  1.0000
  H   H18       1.0  0.43700  0.92500  0.51900  1.0000
  H   H19       1.0  0.07510  0.51200  0.51900  1.0000
  H   H20       1.0  0.33300  0.66700  0.71000  1.0000
  H   H21       1.0  0.61900  0.45900  0.72800  1.0000
  H   H22       1.0  0.54100  0.16000  0.72800  1.0000
  H   H23       1.0  0.84000  0.38100  0.72800  1.0000
  H   H24       1.0  0.19400  0.37600  0.92400  1.0000
  H   H25       1.0  0.62400  0.81800  0.92400  1.0000
  H   H26       1.0  0.18200  0.80600  0.92400  1.0000
  H   H27       1.0  0.00561  0.86800  0.98700  1.0000
  H   H28       1.0  0.13200  0.13800  0.98700  1.0000
  H   H29       1.0  0.86200  0.99400  0.98700  1.0000
  H   H30       1.0  0.73000  0.58400  0.99500  1.0000
  H   H31       1.0  0.41600  0.14600  0.99500  1.0000
  H   H32       1.0  0.85400  0.27000  0.99500  1.0000
  N   N1        1.0  0.66700  0.33300  0.01500  1.0000
  N   N2        1.0  0.33300  0.66700  0.51500  1.0000
