data_image0
_chemical_formula_structural       F40Rb8Te8
_chemical_formula_sum              "F40 Rb8 Te8"
_cell_length_a       13.2312
_cell_length_b       5.97908
_cell_length_c       10.9009
_cell_angle_alpha    90
_cell_angle_beta     90
_cell_angle_gamma    90

_space_group_name_H-M_alt    "P 1"
_space_group_IT_number       1

loop_
  _space_group_symop_operation_xyz
  'x, y, z'

loop_
  _atom_site_type_symbol
  _atom_site_label
  _atom_site_symmetry_multiplicity
  _atom_site_fract_x
  _atom_site_fract_y
  _atom_site_fract_z
  _atom_site_occupancy
  F   F1        1.0  0.38200  0.75000  0.02780  1.0000
  F   F2        1.0  0.08000  0.02400  0.07530  1.0000
  F   F3        1.0  0.08000  0.47600  0.07530  1.0000
  F   F4        1.0  0.74100  0.01680  0.09330  1.0000
  F   F5        1.0  0.74100  0.48300  0.09330  1.0000
  F   F6        1.0  0.27200  0.51600  0.16200  1.0000
  F   F7        1.0  0.27200  0.98400  0.16200  1.0000
  F   F8        1.0  0.94300  0.25000  0.17400  1.0000
  F   F9        1.0  0.53300  0.00571  0.17900  1.0000
  F   F10       1.0  0.53300  0.49400  0.17900  1.0000
  F   F11       1.0  0.03330  0.00571  0.32100  1.0000
  F   F12       1.0  0.03330  0.49400  0.32100  1.0000
  F   F13       1.0  0.44300  0.25000  0.32600  1.0000
  F   F14       1.0  0.77200  0.51600  0.33800  1.0000
  F   F15       1.0  0.77200  0.98400  0.33800  1.0000
  F   F16       1.0  0.24100  0.01680  0.40700  1.0000
  F   F17       1.0  0.24100  0.48300  0.40700  1.0000
  F   F18       1.0  0.58000  0.02400  0.42500  1.0000
  F   F19       1.0  0.58000  0.47600  0.42500  1.0000
  F   F20       1.0  0.88200  0.75000  0.47200  1.0000
  F   F21       1.0  0.11800  0.25000  0.52800  1.0000
  F   F22       1.0  0.42000  0.52400  0.57500  1.0000
  F   F23       1.0  0.42000  0.97600  0.57500  1.0000
  F   F24       1.0  0.75900  0.51700  0.59300  1.0000
  F   F25       1.0  0.75900  0.98300  0.59300  1.0000
  F   F26       1.0  0.22800  0.01580  0.66200  1.0000
  F   F27       1.0  0.22800  0.48400  0.66200  1.0000
  F   F28       1.0  0.55700  0.75000  0.67400  1.0000
  F   F29       1.0  0.96700  0.50600  0.67900  1.0000
  F   F30       1.0  0.96700  0.99400  0.67900  1.0000
  F   F31       1.0  0.46700  0.50600  0.82100  1.0000
  F   F32       1.0  0.46700  0.99400  0.82100  1.0000
  F   F33       1.0  0.05670  0.75000  0.82600  1.0000
  F   F34       1.0  0.72800  0.01580  0.83800  1.0000
  F   F35       1.0  0.72800  0.48400  0.83800  1.0000
  F   F36       1.0  0.25900  0.51700  0.90700  1.0000
  F   F37       1.0  0.25900  0.98300  0.90700  1.0000
  F   F38       1.0  0.92000  0.52400  0.92500  1.0000
  F   F39       1.0  0.92000  0.97600  0.92500  1.0000
  F   F40       1.0  0.61800  0.25000  0.97200  1.0000
  Rb  Rb1       1.0  0.40500  0.25000  0.01950  1.0000
  Rb  Rb2       1.0  0.90400  0.75000  0.16700  1.0000
  Rb  Rb3       1.0  0.40400  0.75000  0.33300  1.0000
  Rb  Rb4       1.0  0.90500  0.25000  0.48100  1.0000
  Rb  Rb5       1.0  0.09550  0.75000  0.51900  1.0000
  Rb  Rb6       1.0  0.59600  0.25000  0.66700  1.0000
  Rb  Rb7       1.0  0.09580  0.25000  0.83300  1.0000
  Rb  Rb8       1.0  0.59500  0.75000  0.98100  1.0000
  Te  Te1       1.0  0.23500  0.75000  0.03540  1.0000
  Te  Te2       1.0  0.08650  0.25000  0.21200  1.0000
  Te  Te3       1.0  0.58700  0.25000  0.28800  1.0000
  Te  Te4       1.0  0.73500  0.75000  0.46500  1.0000
  Te  Te5       1.0  0.26500  0.25000  0.53500  1.0000
  Te  Te6       1.0  0.41300  0.75000  0.71200  1.0000
  Te  Te7       1.0  0.91300  0.75000  0.78800  1.0000
  Te  Te8       1.0  0.76500  0.25000  0.96500  1.0000
