data_image0
_chemical_formula_structural       Be4O4Pt4Te4
_chemical_formula_sum              "Be4 O4 Pt4 Te4"
_cell_length_a       6.84841
_cell_length_b       6.06339
_cell_length_c       7.83063
_cell_angle_alpha    90
_cell_angle_beta     90
_cell_angle_gamma    90

_space_group_name_H-M_alt    "P 1"
_space_group_IT_number       1

loop_
  _space_group_symop_operation_xyz
  'x, y, z'

loop_
  _atom_site_type_symbol
  _atom_site_label
  _atom_site_symmetry_multiplicity
  _atom_site_fract_x
  _atom_site_fract_y
  _atom_site_fract_z
  _atom_site_occupancy
  Be  Be1       1.0  0.03480  0.54600  0.08880  1.0000
  Be  Be2       1.0  0.96500  0.04560  0.41100  1.0000
  Be  Be3       1.0  0.46500  0.45400  0.58900  1.0000
  Be  Be4       1.0  0.53500  0.95400  0.91100  1.0000
  O   O1        1.0  0.51500  0.08450  0.07380  1.0000
  O   O2        1.0  0.48500  0.58400  0.42600  1.0000
  O   O3        1.0  0.98500  0.91600  0.57400  1.0000
  O   O4        1.0  0.01520  0.41600  0.92600  1.0000
  Pt  Pt1       1.0  0.26800  0.25700  0.00599  1.0000
  Pt  Pt2       1.0  0.73200  0.75700  0.49400  1.0000
  Pt  Pt3       1.0  0.23200  0.74300  0.50600  1.0000
  Pt  Pt4       1.0  0.76800  0.24300  0.99400  1.0000
  Te  Te1       1.0  0.02220  0.95400  0.11400  1.0000
  Te  Te2       1.0  0.97800  0.45400  0.38600  1.0000
  Te  Te3       1.0  0.47800  0.04620  0.61400  1.0000
  Te  Te4       1.0  0.52200  0.54600  0.88600  1.0000
