data_image0
_chemical_formula_structural       Ca2O2Te2Zn2
_chemical_formula_sum              "Ca2 O2 Te2 Zn2"
_cell_length_a       4.00949
_cell_length_b       5.86558
_cell_length_c       7.1417
_cell_angle_alpha    90
_cell_angle_beta     73.6974
_cell_angle_gamma    90

_space_group_name_H-M_alt    "P 1"
_space_group_IT_number       1

loop_
  _space_group_symop_operation_xyz
  'x, y, z'

loop_
  _atom_site_type_symbol
  _atom_site_label
  _atom_site_symmetry_multiplicity
  _atom_site_fract_x
  _atom_site_fract_y
  _atom_site_fract_z
  _atom_site_occupancy
  Ca  Ca1       1.0  0.41600  0.75000  0.16700  1.0000
  Ca  Ca2       1.0  0.58400  0.25000  0.83300  1.0000
  O   O1        1.0  0.00000  0.00000  0.00000  1.0000
  O   O2        1.0  0.00000  0.50000  0.00000  1.0000
  Te  Te1       1.0  0.29200  0.25000  0.41700  1.0000
  Te  Te2       1.0  0.70800  0.75000  0.58300  1.0000
  Zn  Zn1       1.0  0.90400  0.25000  0.19300  1.0000
  Zn  Zn2       1.0  0.09640  0.75000  0.80700  1.0000
