data_image0
_chemical_formula_structural       As8K8Mo4O36
_chemical_formula_sum              "As8 K8 Mo4 O36"
_cell_length_a       7.37473
_cell_length_b       13.5985
_cell_length_c       9.18534
_cell_angle_alpha    90.0003
_cell_angle_beta     110.745
_cell_angle_gamma    89.9998

_space_group_name_H-M_alt    "P 1"
_space_group_IT_number       1

loop_
  _space_group_symop_operation_xyz
  'x, y, z'

loop_
  _atom_site_type_symbol
  _atom_site_label
  _atom_site_symmetry_multiplicity
  _atom_site_fract_x
  _atom_site_fract_y
  _atom_site_fract_z
  _atom_site_occupancy
  As  As1       1.0  0.31600  0.16300  0.02900  1.0000
  As  As2       1.0  0.32000  0.65600  0.19400  1.0000
  As  As3       1.0  0.18000  0.15600  0.30600  1.0000
  As  As4       1.0  0.18400  0.66300  0.47100  1.0000
  As  As5       1.0  0.81600  0.33700  0.52900  1.0000
  As  As6       1.0  0.82000  0.84400  0.69400  1.0000
  As  As7       1.0  0.68000  0.34400  0.80600  1.0000
  As  As8       1.0  0.68400  0.83700  0.97100  1.0000
  K   K1        1.0  0.79100  0.54600  0.12300  1.0000
  K   K2        1.0  0.17900  0.90900  0.14800  1.0000
  K   K3        1.0  0.32100  0.40800  0.35300  1.0000
  K   K4        1.0  0.70800  0.04640  0.37700  1.0000
  K   K5        1.0  0.29100  0.95400  0.62300  1.0000
  K   K6        1.0  0.67900  0.59100  0.64800  1.0000
  K   K7        1.0  0.82100  0.09150  0.85300  1.0000
  K   K8        1.0  0.20800  0.45400  0.87700  1.0000
  Mo  Mo1       1.0  0.74400  0.28400  0.16900  1.0000
  Mo  Mo2       1.0  0.75600  0.78400  0.33100  1.0000
  Mo  Mo3       1.0  0.24400  0.21600  0.66900  1.0000
  Mo  Mo4       1.0  0.25600  0.71600  0.83100  1.0000
  O   O1        1.0  0.80200  0.94300  0.01920  1.0000
  O   O2        1.0  0.23800  0.73800  0.03850  1.0000
  O   O3        1.0  0.55300  0.36800  0.10500  1.0000
  O   O4        1.0  0.56200  0.15600  0.10800  1.0000
  O   O5        1.0  0.77100  0.75100  0.12100  1.0000
  O   O6        1.0  0.19900  0.55000  0.14500  1.0000
  O   O7        1.0  0.25200  0.22900  0.17400  1.0000
  O   O8        1.0  0.93400  0.15000  0.22700  1.0000
  O   O9        1.0  0.94200  0.36200  0.24300  1.0000
  O   O10       1.0  0.55800  0.86200  0.25700  1.0000
  O   O11       1.0  0.56600  0.65000  0.27300  1.0000
  O   O12       1.0  0.24800  0.72900  0.32600  1.0000
  O   O13       1.0  0.30100  0.05020  0.35400  1.0000
  O   O14       1.0  0.72900  0.25100  0.37900  1.0000
  O   O15       1.0  0.93800  0.65600  0.39200  1.0000
  O   O16       1.0  0.94700  0.86800  0.39500  1.0000
  O   O17       1.0  0.26200  0.23800  0.46200  1.0000
  O   O18       1.0  0.69800  0.44300  0.48100  1.0000
  O   O19       1.0  0.30200  0.55700  0.51900  1.0000
  O   O20       1.0  0.73800  0.76200  0.53800  1.0000
  O   O21       1.0  0.05290  0.13200  0.60500  1.0000
  O   O22       1.0  0.06210  0.34400  0.60800  1.0000
  O   O23       1.0  0.27100  0.74900  0.62100  1.0000
  O   O24       1.0  0.69900  0.95000  0.64500  1.0000
  O   O25       1.0  0.75200  0.27100  0.67400  1.0000
  O   O26       1.0  0.43400  0.35000  0.72700  1.0000
  O   O27       1.0  0.44200  0.13800  0.74300  1.0000
  O   O28       1.0  0.05800  0.63800  0.75700  1.0000
  O   O29       1.0  0.06600  0.85000  0.77300  1.0000
  O   O30       1.0  0.74800  0.77100  0.82600  1.0000
  O   O31       1.0  0.80100  0.45000  0.85400  1.0000
  O   O32       1.0  0.22900  0.24900  0.87900  1.0000
  O   O33       1.0  0.43800  0.84400  0.89200  1.0000
  O   O34       1.0  0.44700  0.63200  0.89500  1.0000
  O   O35       1.0  0.76200  0.26200  0.96200  1.0000
  O   O36       1.0  0.19800  0.05740  0.98100  1.0000
