data_image0
_chemical_formula_structural       Cl12H24N12O4Ru4
_chemical_formula_sum              "Cl12 H24 N12 O4 Ru4"
_cell_length_a       9.62646
_cell_length_b       11.2548
_cell_length_c       6.58173
_cell_angle_alpha    90
_cell_angle_beta     96.8416
_cell_angle_gamma    90

_space_group_name_H-M_alt    "P 1"
_space_group_IT_number       1

loop_
  _space_group_symop_operation_xyz
  'x, y, z'

loop_
  _atom_site_type_symbol
  _atom_site_label
  _atom_site_symmetry_multiplicity
  _atom_site_fract_x
  _atom_site_fract_y
  _atom_site_fract_z
  _atom_site_occupancy
  Cl  Cl1       1.0  0.57100  0.87300  0.07210  1.0000
  Cl  Cl2       1.0  0.69700  0.60100  0.09420  1.0000
  Cl  Cl3       1.0  0.07950  0.15100  0.15700  1.0000
  Cl  Cl4       1.0  0.42000  0.65100  0.34300  1.0000
  Cl  Cl5       1.0  0.80300  0.10100  0.40600  1.0000
  Cl  Cl6       1.0  0.92900  0.37300  0.42800  1.0000
  Cl  Cl7       1.0  0.07080  0.62700  0.57200  1.0000
  Cl  Cl8       1.0  0.19700  0.89900  0.59400  1.0000
  Cl  Cl9       1.0  0.58000  0.34900  0.65700  1.0000
  Cl  Cl10      1.0  0.92000  0.84900  0.84300  1.0000
  Cl  Cl11      1.0  0.30300  0.39900  0.90600  1.0000
  Cl  Cl12      1.0  0.42900  0.12700  0.92800  1.0000
  H   H1        1.0  0.17200  0.96700  0.04420  1.0000
  H   H2        1.0  0.33200  0.90700  0.05320  1.0000
  H   H3        1.0  0.57200  0.25500  0.09690  1.0000
  H   H4        1.0  0.63800  0.39200  0.12200  1.0000
  H   H5        1.0  0.86800  0.80900  0.17000  1.0000
  H   H6        1.0  0.22200  0.86000  0.21100  1.0000
  H   H7        1.0  0.27800  0.36000  0.28900  1.0000
  H   H8        1.0  0.63200  0.30900  0.33000  1.0000
  H   H9        1.0  0.86200  0.89200  0.37800  1.0000
  H   H10       1.0  0.92800  0.75500  0.40300  1.0000
  H   H11       1.0  0.16800  0.40700  0.44700  1.0000
  H   H12       1.0  0.32800  0.46700  0.45600  1.0000
  H   H13       1.0  0.67200  0.53300  0.54400  1.0000
  H   H14       1.0  0.83200  0.59300  0.55300  1.0000
  H   H15       1.0  0.07150  0.24500  0.59700  1.0000
  H   H16       1.0  0.13800  0.10800  0.62200  1.0000
  H   H17       1.0  0.36800  0.69100  0.67000  1.0000
  H   H18       1.0  0.72200  0.64000  0.71100  1.0000
  H   H19       1.0  0.77800  0.14000  0.78900  1.0000
  H   H20       1.0  0.13200  0.19100  0.83000  1.0000
  H   H21       1.0  0.36200  0.60800  0.87800  1.0000
  H   H22       1.0  0.42800  0.74500  0.90300  1.0000
  H   H23       1.0  0.66800  0.09330  0.94700  1.0000
  H   H24       1.0  0.82800  0.03320  0.95600  1.0000
  N   N1        1.0  0.11600  0.65100  0.02380  1.0000
  N   N2        1.0  0.22800  0.88900  0.06410  1.0000
  N   N3        1.0  0.64800  0.30700  0.17800  1.0000
  N   N4        1.0  0.85200  0.80700  0.32200  1.0000
  N   N5        1.0  0.27200  0.38900  0.43600  1.0000
  N   N6        1.0  0.38400  0.15100  0.47600  1.0000
  N   N7        1.0  0.61600  0.84900  0.52400  1.0000
  N   N8        1.0  0.72800  0.61100  0.56400  1.0000
  N   N9        1.0  0.14800  0.19300  0.67800  1.0000
  N   N10       1.0  0.35200  0.69300  0.82200  1.0000
  N   N11       1.0  0.77200  0.11100  0.93600  1.0000
  N   N12       1.0  0.88400  0.34900  0.97600  1.0000
  O   O1        1.0  0.09290  0.57300  0.13200  1.0000
  O   O2        1.0  0.40700  0.07300  0.36800  1.0000
  O   O3        1.0  0.59300  0.92700  0.63200  1.0000
  O   O4        1.0  0.90700  0.42700  0.86800  1.0000
  Ru  Ru1       1.0  0.85100  0.24000  0.15500  1.0000
  Ru  Ru2       1.0  0.64900  0.74000  0.34500  1.0000
  Ru  Ru3       1.0  0.35100  0.26000  0.65500  1.0000
  Ru  Ru4       1.0  0.14900  0.76000  0.84500  1.0000
