data_image0
_chemical_formula_structural       B16Cd8O32
_chemical_formula_sum              "B16 Cd8 O32"
_cell_length_a       8.8723
_cell_length_b       8.87224
_cell_length_c       7.1658
_cell_angle_alpha    90
_cell_angle_beta     90
_cell_angle_gamma    120

_space_group_name_H-M_alt    "P 1"
_space_group_IT_number       1

loop_
  _space_group_symop_operation_xyz
  'x, y, z'

loop_
  _atom_site_type_symbol
  _atom_site_label
  _atom_site_symmetry_multiplicity
  _atom_site_fract_x
  _atom_site_fract_y
  _atom_site_fract_z
  _atom_site_occupancy
  B   B1        1.0  0.67300  0.84600  0.23200  1.0000
  B   B2        1.0  0.15400  0.82700  0.23200  1.0000
  B   B3        1.0  0.17300  0.32700  0.23200  1.0000
  B   B4        1.0  0.33300  0.66700  0.25400  1.0000
  B   B5        1.0  0.82400  0.67100  0.34500  1.0000
  B   B6        1.0  0.32900  0.15300  0.34500  1.0000
  B   B7        1.0  0.84700  0.17600  0.34500  1.0000
  B   B8        1.0  0.66700  0.33300  0.36600  1.0000
  B   B9        1.0  0.32700  0.15400  0.73200  1.0000
  B   B10       1.0  0.84600  0.17300  0.73200  1.0000
  B   B11       1.0  0.82700  0.67300  0.73200  1.0000
  B   B12       1.0  0.66700  0.33300  0.75400  1.0000
  B   B13       1.0  0.17600  0.32900  0.84500  1.0000
  B   B14       1.0  0.15300  0.82400  0.84500  1.0000
  B   B15       1.0  0.67100  0.84700  0.84500  1.0000
  B   B16       1.0  0.33300  0.66700  0.86600  1.0000
  Cd  Cd1       1.0  0.52000  0.04370  0.03890  1.0000
  Cd  Cd2       1.0  0.95600  0.47700  0.03890  1.0000
  Cd  Cd3       1.0  0.52300  0.48000  0.03890  1.0000
  Cd  Cd4       1.0  0.00000  0.00000  0.06700  1.0000
  Cd  Cd5       1.0  0.48000  0.95600  0.53900  1.0000
  Cd  Cd6       1.0  0.47700  0.52000  0.53900  1.0000
  Cd  Cd7       1.0  0.04370  0.52300  0.53900  1.0000
  Cd  Cd8       1.0  0.00000  0.00000  0.56700  1.0000
  O   O1        1.0  0.67000  0.90800  0.03800  1.0000
  O   O2        1.0  0.23800  0.33000  0.03800  1.0000
  O   O3        1.0  0.09210  0.76200  0.03800  1.0000
  O   O4        1.0  0.33300  0.66700  0.06100  1.0000
  O   O5        1.0  0.71000  0.70200  0.21900  1.0000
  O   O6        1.0  0.99200  0.29000  0.21900  1.0000
  O   O7        1.0  0.29800  0.00800  0.21900  1.0000
  O   O8        1.0  0.81200  0.50300  0.29500  1.0000
  O   O9        1.0  0.49700  0.30900  0.29500  1.0000
  O   O10       1.0  0.69100  0.18800  0.29500  1.0000
  O   O11       1.0  0.81400  0.99500  0.33000  1.0000
  O   O12       1.0  0.18200  0.18600  0.33000  1.0000
  O   O13       1.0  0.00453  0.81800  0.33000  1.0000
  O   O14       1.0  0.50800  0.79000  0.33200  1.0000
  O   O15       1.0  0.28200  0.49200  0.33200  1.0000
  O   O16       1.0  0.21000  0.71800  0.33200  1.0000
  O   O17       1.0  0.33000  0.09220  0.53800  1.0000
  O   O18       1.0  0.90800  0.23800  0.53800  1.0000
  O   O19       1.0  0.76200  0.67000  0.53800  1.0000
  O   O20       1.0  0.66700  0.33300  0.56100  1.0000
  O   O21       1.0  0.29000  0.29800  0.71900  1.0000
  O   O22       1.0  0.00799  0.71000  0.71900  1.0000
  O   O23       1.0  0.70200  0.99200  0.71900  1.0000
  O   O24       1.0  0.18800  0.49700  0.79500  1.0000
  O   O25       1.0  0.50300  0.69100  0.79500  1.0000
  O   O26       1.0  0.30900  0.81200  0.79500  1.0000
  O   O27       1.0  0.18600  0.00453  0.83000  1.0000
  O   O28       1.0  0.81800  0.81400  0.83000  1.0000
  O   O29       1.0  0.99500  0.18200  0.83000  1.0000
  O   O30       1.0  0.49200  0.21000  0.83200  1.0000
  O   O31       1.0  0.71800  0.50800  0.83200  1.0000
  O   O32       1.0  0.79000  0.28200  0.83200  1.0000
