data_image0
_chemical_formula_structural       N12O40V4
_chemical_formula_sum              "N12 O40 V4"
_cell_length_a       9.55062
_cell_length_b       12.6788
_cell_length_c       5.37785
_cell_angle_alpha    90
_cell_angle_beta     101.192
_cell_angle_gamma    90

_space_group_name_H-M_alt    "P 1"
_space_group_IT_number       1

loop_
  _space_group_symop_operation_xyz
  'x, y, z'

loop_
  _atom_site_type_symbol
  _atom_site_label
  _atom_site_symmetry_multiplicity
  _atom_site_fract_x
  _atom_site_fract_y
  _atom_site_fract_z
  _atom_site_occupancy
  N   N1        1.0  0.27500  0.64900  0.16900  1.0000
  N   N2        1.0  0.06490  0.12900  0.17000  1.0000
  N   N3        1.0  0.64800  0.86500  0.22200  1.0000
  N   N4        1.0  0.35200  0.36500  0.27800  1.0000
  N   N5        1.0  0.93500  0.62900  0.33000  1.0000
  N   N6        1.0  0.72500  0.14900  0.33100  1.0000
  N   N7        1.0  0.27500  0.85100  0.66900  1.0000
  N   N8        1.0  0.06490  0.37100  0.67000  1.0000
  N   N9        1.0  0.64800  0.63500  0.72200  1.0000
  N   N10       1.0  0.35200  0.13500  0.77800  1.0000
  N   N11       1.0  0.93500  0.87100  0.83000  1.0000
  N   N12       1.0  0.72500  0.35100  0.83100  1.0000
  O   O1        1.0  0.15900  0.61400  0.01790  1.0000
  O   O2        1.0  0.97300  0.17900  0.03790  1.0000
  O   O3        1.0  0.58600  0.81200  0.04760  1.0000
  O   O4        1.0  0.41300  0.39100  0.08660  1.0000
  O   O5        1.0  0.37800  0.58200  0.17700  1.0000
  O   O6        1.0  0.32400  0.97400  0.18000  1.0000
  O   O7        1.0  0.71600  0.23100  0.22000  1.0000
  O   O8        1.0  0.80700  0.66200  0.24200  1.0000
  O   O9        1.0  0.04940  0.03180  0.24300  1.0000
  O   O10       1.0  0.77600  0.90100  0.24500  1.0000
  O   O11       1.0  0.22400  0.40100  0.25500  1.0000
  O   O12       1.0  0.95100  0.53200  0.25700  1.0000
  O   O13       1.0  0.19300  0.16200  0.25800  1.0000
  O   O14       1.0  0.28400  0.73100  0.28000  1.0000
  O   O15       1.0  0.67600  0.47400  0.32000  1.0000
  O   O16       1.0  0.62200  0.08190  0.32300  1.0000
  O   O17       1.0  0.58700  0.89100  0.41300  1.0000
  O   O18       1.0  0.41400  0.31200  0.45200  1.0000
  O   O19       1.0  0.02750  0.67900  0.46200  1.0000
  O   O20       1.0  0.84100  0.11400  0.48200  1.0000
  O   O21       1.0  0.15900  0.88600  0.51800  1.0000
  O   O22       1.0  0.97300  0.32100  0.53800  1.0000
  O   O23       1.0  0.58600  0.68800  0.54800  1.0000
  O   O24       1.0  0.41300  0.10900  0.58700  1.0000
  O   O25       1.0  0.37800  0.91800  0.67700  1.0000
  O   O26       1.0  0.32400  0.52600  0.68000  1.0000
  O   O27       1.0  0.71600  0.26900  0.72000  1.0000
  O   O28       1.0  0.80700  0.83800  0.74200  1.0000
  O   O29       1.0  0.04940  0.46800  0.74300  1.0000
  O   O30       1.0  0.77600  0.59900  0.74500  1.0000
  O   O31       1.0  0.22400  0.09860  0.75500  1.0000
  O   O32       1.0  0.95100  0.96800  0.75700  1.0000
  O   O33       1.0  0.19300  0.33800  0.75800  1.0000
  O   O34       1.0  0.28400  0.76900  0.78000  1.0000
  O   O35       1.0  0.67600  0.02550  0.82000  1.0000
  O   O36       1.0  0.62200  0.41800  0.82300  1.0000
  O   O37       1.0  0.58700  0.60900  0.91300  1.0000
  O   O38       1.0  0.41400  0.18800  0.95200  1.0000
  O   O39       1.0  0.02750  0.82100  0.96200  1.0000
  O   O40       1.0  0.84100  0.38600  0.98200  1.0000
  V   V1        1.0  0.74300  0.51600  0.08720  1.0000
  V   V2        1.0  0.25700  0.01570  0.41300  1.0000
  V   V3        1.0  0.74300  0.98400  0.58700  1.0000
  V   V4        1.0  0.25700  0.48400  0.91300  1.0000
