data_image0
_chemical_formula_structural       B12H12O28Zn4
_chemical_formula_sum              "B12 H12 O28 Zn4"
_cell_length_a       6.97959
_cell_length_b       10.0622
_cell_length_c       7.49995
_cell_angle_alpha    90
_cell_angle_beta     100.087
_cell_angle_gamma    90

_space_group_name_H-M_alt    "P 1"
_space_group_IT_number       1

loop_
  _space_group_symop_operation_xyz
  'x, y, z'

loop_
  _atom_site_type_symbol
  _atom_site_label
  _atom_site_symmetry_multiplicity
  _atom_site_fract_x
  _atom_site_fract_y
  _atom_site_fract_z
  _atom_site_occupancy
  B   B1        1.0  0.16200  0.18400  0.00178  1.0000
  B   B2        1.0  0.91200  0.99400  0.21700  1.0000
  B   B3        1.0  0.45100  0.27300  0.22000  1.0000
  B   B4        1.0  0.04860  0.77300  0.28000  1.0000
  B   B5        1.0  0.58800  0.49400  0.28300  1.0000
  B   B6        1.0  0.33800  0.68400  0.49800  1.0000
  B   B7        1.0  0.66200  0.31600  0.50200  1.0000
  B   B8        1.0  0.41200  0.50600  0.71700  1.0000
  B   B9        1.0  0.95100  0.22700  0.72000  1.0000
  B   B10       1.0  0.54900  0.72700  0.78000  1.0000
  B   B11       1.0  0.08790  0.00646  0.78300  1.0000
  B   B12       1.0  0.83800  0.81600  0.99800  1.0000
  H   H1        1.0  0.40200  0.00187  0.13400  1.0000
  H   H2        1.0  0.70600  0.17100  0.16900  1.0000
  H   H3        1.0  0.16700  0.45400  0.19200  1.0000
  H   H4        1.0  0.33300  0.95400  0.30800  1.0000
  H   H5        1.0  0.79400  0.67100  0.33100  1.0000
  H   H6        1.0  0.09760  0.50200  0.36600  1.0000
  H   H7        1.0  0.90200  0.49800  0.63400  1.0000
  H   H8        1.0  0.20600  0.32900  0.66900  1.0000
  H   H9        1.0  0.66700  0.04620  0.69200  1.0000
  H   H10       1.0  0.83300  0.54600  0.80800  1.0000
  H   H11       1.0  0.29400  0.82900  0.83100  1.0000
  H   H12       1.0  0.59800  0.99800  0.86600  1.0000
  O   O1        1.0  0.78400  0.93500  0.06870  1.0000
  O   O2        1.0  0.97600  0.73800  0.09110  1.0000
  O   O3        1.0  0.57500  0.21600  0.10100  1.0000
  O   O4        1.0  0.25300  0.21600  0.17700  1.0000
  O   O5        1.0  0.43700  0.41900  0.19400  1.0000
  O   O6        1.0  0.44300  0.94600  0.24200  1.0000
  O   O7        1.0  0.61900  0.62200  0.24900  1.0000
  O   O8        1.0  0.88100  0.12200  0.25100  1.0000
  O   O9        1.0  0.05680  0.44600  0.25800  1.0000
  O   O10       1.0  0.06310  0.91900  0.30600  1.0000
  O   O11       1.0  0.24700  0.71600  0.32300  1.0000
  O   O12       1.0  0.92500  0.71600  0.39900  1.0000
  O   O13       1.0  0.52400  0.23800  0.40900  1.0000
  O   O14       1.0  0.71600  0.43500  0.43100  1.0000
  O   O15       1.0  0.28400  0.56500  0.56900  1.0000
  O   O16       1.0  0.47600  0.76200  0.59100  1.0000
  O   O17       1.0  0.07480  0.28400  0.60100  1.0000
  O   O18       1.0  0.75300  0.28400  0.67700  1.0000
  O   O19       1.0  0.93700  0.08080  0.69400  1.0000
  O   O20       1.0  0.94300  0.55400  0.74200  1.0000
  O   O21       1.0  0.11900  0.87800  0.74900  1.0000
  O   O22       1.0  0.38100  0.37800  0.75100  1.0000
  O   O23       1.0  0.55700  0.05410  0.75800  1.0000
  O   O24       1.0  0.56300  0.58100  0.80600  1.0000
  O   O25       1.0  0.74700  0.78400  0.82300  1.0000
  O   O26       1.0  0.42500  0.78400  0.89900  1.0000
  O   O27       1.0  0.02360  0.26200  0.90900  1.0000
  O   O28       1.0  0.21600  0.06470  0.93100  1.0000
  Zn  Zn1       1.0  0.43300  0.75500  0.15200  1.0000
  Zn  Zn2       1.0  0.06660  0.25500  0.34800  1.0000
  Zn  Zn3       1.0  0.93300  0.74500  0.65200  1.0000
  Zn  Zn4       1.0  0.56700  0.24500  0.84800  1.0000
