data_image0
_chemical_formula_structural       C8K8Mo4O36
_chemical_formula_sum              "C8 K8 Mo4 O36"
_cell_length_a       13.5033
_cell_length_b       8.76021
_cell_length_c       6.67101
_cell_angle_alpha    90
_cell_angle_beta     92.754
_cell_angle_gamma    90

_space_group_name_H-M_alt    "P 1"
_space_group_IT_number       1

loop_
  _space_group_symop_operation_xyz
  'x, y, z'

loop_
  _atom_site_type_symbol
  _atom_site_label
  _atom_site_symmetry_multiplicity
  _atom_site_fract_x
  _atom_site_fract_y
  _atom_site_fract_z
  _atom_site_occupancy
  C   C1        1.0  0.48300  0.93600  0.23600  1.0000
  C   C2        1.0  0.54600  0.78800  0.24900  1.0000
  C   C3        1.0  0.95400  0.28800  0.25100  1.0000
  C   C4        1.0  0.01720  0.43600  0.26400  1.0000
  C   C5        1.0  0.98300  0.56400  0.73600  1.0000
  C   C6        1.0  0.04640  0.71200  0.74900  1.0000
  C   C7        1.0  0.45400  0.21200  0.75100  1.0000
  C   C8        1.0  0.51700  0.06410  0.76400  1.0000
  K   K1        1.0  0.72500  0.07430  0.23500  1.0000
  K   K2        1.0  0.02360  0.85600  0.23600  1.0000
  K   K3        1.0  0.47600  0.35600  0.26400  1.0000
  K   K4        1.0  0.77500  0.57400  0.26500  1.0000
  K   K5        1.0  0.22500  0.42600  0.73500  1.0000
  K   K6        1.0  0.52400  0.64400  0.73600  1.0000
  K   K7        1.0  0.97600  0.14400  0.76400  1.0000
  K   K8        1.0  0.27500  0.92600  0.76500  1.0000
  Mo  Mo1       1.0  0.32700  0.69900  0.23800  1.0000
  Mo  Mo2       1.0  0.17300  0.19900  0.26200  1.0000
  Mo  Mo3       1.0  0.82700  0.80100  0.73800  1.0000
  Mo  Mo4       1.0  0.67300  0.30100  0.76200  1.0000
  O   O1        1.0  0.85400  0.79100  0.03030  1.0000
  O   O2        1.0  0.16800  0.05340  0.04000  1.0000
  O   O3        1.0  0.63900  0.32900  0.04550  1.0000
  O   O4        1.0  0.33400  0.52800  0.05090  1.0000
  O   O5        1.0  0.20700  0.76000  0.21300  1.0000
  O   O6        1.0  0.38700  0.91500  0.22300  1.0000
  O   O7        1.0  0.00395  0.16500  0.23600  1.0000
  O   O8        1.0  0.52200  0.06280  0.23800  1.0000
  O   O9        1.0  0.63800  0.79900  0.24300  1.0000
  O   O10       1.0  0.86200  0.29900  0.25700  1.0000
  O   O11       1.0  0.97800  0.56300  0.26200  1.0000
  O   O12       1.0  0.49600  0.66500  0.26400  1.0000
  O   O13       1.0  0.11300  0.41500  0.27700  1.0000
  O   O14       1.0  0.29300  0.26000  0.28700  1.0000
  O   O15       1.0  0.16600  0.02770  0.44900  1.0000
  O   O16       1.0  0.86100  0.82900  0.45400  1.0000
  O   O17       1.0  0.33200  0.55300  0.46000  1.0000
  O   O18       1.0  0.64600  0.29100  0.47000  1.0000
  O   O19       1.0  0.35400  0.70900  0.53000  1.0000
  O   O20       1.0  0.66800  0.44700  0.54000  1.0000
  O   O21       1.0  0.13900  0.17100  0.54600  1.0000
  O   O22       1.0  0.83400  0.97200  0.55100  1.0000
  O   O23       1.0  0.70700  0.74000  0.71300  1.0000
  O   O24       1.0  0.88700  0.58500  0.72300  1.0000
  O   O25       1.0  0.50400  0.33500  0.73600  1.0000
  O   O26       1.0  0.02230  0.43700  0.73800  1.0000
  O   O27       1.0  0.13800  0.70100  0.74300  1.0000
  O   O28       1.0  0.36200  0.20100  0.75700  1.0000
  O   O29       1.0  0.47800  0.93700  0.76200  1.0000
  O   O30       1.0  0.99600  0.83500  0.76400  1.0000
  O   O31       1.0  0.61300  0.08470  0.77700  1.0000
  O   O32       1.0  0.79300  0.24000  0.78700  1.0000
  O   O33       1.0  0.66600  0.47200  0.94900  1.0000
  O   O34       1.0  0.36100  0.67100  0.95400  1.0000
  O   O35       1.0  0.83200  0.94700  0.96000  1.0000
  O   O36       1.0  0.14600  0.20900  0.97000  1.0000
