data_image0
_chemical_formula_structural       As4H12Mo4O32Sr4
_chemical_formula_sum              "As4 H12 Mo4 O32 Sr4"
_cell_length_a       9.10195
_cell_length_b       9.10195
_cell_length_c       9.65528
_cell_angle_alpha    115.568
_cell_angle_beta     64.4316
_cell_angle_gamma    111.931

_space_group_name_H-M_alt    "P 1"
_space_group_IT_number       1

loop_
  _space_group_symop_operation_xyz
  'x, y, z'

loop_
  _atom_site_type_symbol
  _atom_site_label
  _atom_site_symmetry_multiplicity
  _atom_site_fract_x
  _atom_site_fract_y
  _atom_site_fract_z
  _atom_site_occupancy
  As  As1       1.0  0.77300  0.39800  0.17400  1.0000
  As  As2       1.0  0.39800  0.77300  0.32600  1.0000
  As  As3       1.0  0.60200  0.22700  0.67400  1.0000
  As  As4       1.0  0.22700  0.60200  0.82600  1.0000
  H   H1        1.0  0.36800  0.10600  0.02590  1.0000
  H   H2        1.0  0.53100  0.25100  0.02910  1.0000
  H   H3        1.0  0.60800  0.62000  0.16900  1.0000
  H   H4        1.0  0.62000  0.60800  0.33100  1.0000
  H   H5        1.0  0.25100  0.53100  0.47100  1.0000
  H   H6        1.0  0.10600  0.36800  0.47400  1.0000
  H   H7        1.0  0.89400  0.63200  0.52600  1.0000
  H   H8        1.0  0.74900  0.46900  0.52900  1.0000
  H   H9        1.0  0.38000  0.39200  0.66900  1.0000
  H   H10       1.0  0.39200  0.38000  0.83100  1.0000
  H   H11       1.0  0.46900  0.74900  0.97100  1.0000
  H   H12       1.0  0.63200  0.89400  0.97400  1.0000
  Mo  Mo1       1.0  0.06180  0.76200  0.23100  1.0000
  Mo  Mo2       1.0  0.76200  0.06180  0.26900  1.0000
  Mo  Mo3       1.0  0.23800  0.93800  0.73100  1.0000
  Mo  Mo4       1.0  0.93800  0.23800  0.76900  1.0000
  O   O1        1.0  0.75300  0.38800  0.00225  1.0000
  O   O2        1.0  0.82000  0.92900  0.06880  1.0000
  O   O3        1.0  0.41400  0.21500  0.09380  1.0000
  O   O4        1.0  0.93900  0.71500  0.10900  1.0000
  O   O5        1.0  0.50400  0.61500  0.15900  1.0000
  O   O6        1.0  0.68200  0.20600  0.19800  1.0000
  O   O7        1.0  0.21100  0.94700  0.20700  1.0000
  O   O8        1.0  0.95000  0.49300  0.22500  1.0000
  O   O9        1.0  0.49300  0.95000  0.27500  1.0000
  O   O10       1.0  0.94700  0.21100  0.29300  1.0000
  O   O11       1.0  0.20600  0.68200  0.30200  1.0000
  O   O12       1.0  0.61500  0.50400  0.34100  1.0000
  O   O13       1.0  0.71500  0.93900  0.39100  1.0000
  O   O14       1.0  0.21500  0.41400  0.40600  1.0000
  O   O15       1.0  0.92900  0.82000  0.43100  1.0000
  O   O16       1.0  0.38800  0.75300  0.49800  1.0000
  O   O17       1.0  0.61200  0.24700  0.50200  1.0000
  O   O18       1.0  0.07130  0.18000  0.56900  1.0000
  O   O19       1.0  0.78500  0.58600  0.59400  1.0000
  O   O20       1.0  0.28500  0.06070  0.60900  1.0000
  O   O21       1.0  0.38500  0.49600  0.65900  1.0000
  O   O22       1.0  0.79400  0.31800  0.69800  1.0000
  O   O23       1.0  0.05320  0.78900  0.70700  1.0000
  O   O24       1.0  0.50700  0.05030  0.72500  1.0000
  O   O25       1.0  0.05030  0.50700  0.77500  1.0000
  O   O26       1.0  0.78900  0.05320  0.79300  1.0000
  O   O27       1.0  0.31800  0.79400  0.80200  1.0000
  O   O28       1.0  0.49600  0.38500  0.84100  1.0000
  O   O29       1.0  0.06070  0.28500  0.89100  1.0000
  O   O30       1.0  0.58600  0.78500  0.90600  1.0000
  O   O31       1.0  0.18000  0.07130  0.93100  1.0000
  O   O32       1.0  0.24700  0.61200  0.99800  1.0000
  Sr  Sr1       1.0  0.19200  0.36200  0.12400  1.0000
  Sr  Sr2       1.0  0.36200  0.19200  0.37600  1.0000
  Sr  Sr3       1.0  0.63800  0.80800  0.62400  1.0000
  Sr  Sr4       1.0  0.80800  0.63800  0.87600  1.0000
