data_image0
_chemical_formula_structural       C4F12H24N12Zr2
_chemical_formula_sum              "C4 F12 H24 N12 Zr2"
_cell_length_a       7.52518
_cell_length_b       9.37484
_cell_length_c       8.03641
_cell_angle_alpha    99.7598
_cell_angle_beta     113.156
_cell_angle_gamma    110.535

_space_group_name_H-M_alt    "P 1"
_space_group_IT_number       1

loop_
  _space_group_symop_operation_xyz
  'x, y, z'

loop_
  _atom_site_type_symbol
  _atom_site_label
  _atom_site_symmetry_multiplicity
  _atom_site_fract_x
  _atom_site_fract_y
  _atom_site_fract_z
  _atom_site_occupancy
  C   C1        1.0  0.25100  0.58100  0.16700  1.0000
  C   C2        1.0  0.14200  0.17500  0.47300  1.0000
  C   C3        1.0  0.85800  0.82500  0.52700  1.0000
  C   C4        1.0  0.74900  0.41900  0.83300  1.0000
  F   F1        1.0  0.74200  0.78900  0.05410  1.0000
  F   F2        1.0  0.20200  0.98200  0.11700  1.0000
  F   F3        1.0  0.56200  0.95600  0.13100  1.0000
  F   F4        1.0  0.78100  0.29500  0.19800  1.0000
  F   F5        1.0  0.51700  0.36900  0.30600  1.0000
  F   F6        1.0  0.61500  0.15500  0.42600  1.0000
  F   F7        1.0  0.38500  0.84500  0.57400  1.0000
  F   F8        1.0  0.48300  0.63100  0.69400  1.0000
  F   F9        1.0  0.21900  0.70500  0.80200  1.0000
  F   F10       1.0  0.43800  0.04440  0.86900  1.0000
  F   F11       1.0  0.79800  0.01840  0.88300  1.0000
  F   F12       1.0  0.25800  0.21100  0.94600  1.0000
  H   H1        1.0  0.27900  0.40600  0.00695  1.0000
  H   H2        1.0  0.21300  0.76400  0.07640  1.0000
  H   H3        1.0  0.76900  0.45100  0.09600  1.0000
  H   H4        1.0  0.07530  0.08960  0.19400  1.0000
  H   H5        1.0  0.95300  0.21100  0.24100  1.0000
  H   H6        1.0  0.87400  0.77800  0.28100  1.0000
  H   H7        1.0  0.24300  0.77800  0.30400  1.0000
  H   H8        1.0  0.32000  0.43300  0.30800  1.0000
  H   H9        1.0  0.65600  0.88400  0.32300  1.0000
  H   H10       1.0  0.28300  0.58000  0.43100  1.0000
  H   H11       1.0  0.37900  0.11500  0.47500  1.0000
  H   H12       1.0  0.08920  0.79000  0.48500  1.0000
  H   H13       1.0  0.91100  0.21000  0.51500  1.0000
  H   H14       1.0  0.62100  0.88500  0.52500  1.0000
  H   H15       1.0  0.71700  0.42000  0.56900  1.0000
  H   H16       1.0  0.34400  0.11600  0.67700  1.0000
  H   H17       1.0  0.68000  0.56700  0.69200  1.0000
  H   H18       1.0  0.75700  0.22200  0.69600  1.0000
  H   H19       1.0  0.12600  0.22200  0.71900  1.0000
  H   H20       1.0  0.04660  0.78900  0.75900  1.0000
  H   H21       1.0  0.92500  0.91000  0.80600  1.0000
  H   H22       1.0  0.23100  0.54900  0.90400  1.0000
  H   H23       1.0  0.78700  0.23600  0.92400  1.0000
  H   H24       1.0  0.72100  0.59400  0.99300  1.0000
  N   N1        1.0  0.27900  0.51700  0.02320  1.0000
  N   N2        1.0  0.21000  0.70800  0.17300  1.0000
  N   N3        1.0  0.06040  0.16500  0.29000  1.0000
  N   N4        1.0  0.25700  0.51400  0.30100  1.0000
  N   N5        1.0  0.93200  0.77000  0.41600  1.0000
  N   N6        1.0  0.69900  0.86600  0.45200  1.0000
  N   N7        1.0  0.30100  0.13400  0.54800  1.0000
  N   N8        1.0  0.06850  0.23000  0.58400  1.0000
  N   N9        1.0  0.74300  0.48600  0.69900  1.0000
  N   N10       1.0  0.94000  0.83500  0.71000  1.0000
  N   N11       1.0  0.79000  0.29200  0.82700  1.0000
  N   N12       1.0  0.72100  0.48300  0.97700  1.0000
  Zr  Zr1       1.0  0.47200  0.15700  0.14400  1.0000
  Zr  Zr2       1.0  0.52800  0.84300  0.85600  1.0000
