data_image0
_chemical_formula_structural       H20N6O22S6Sm2
_chemical_formula_sum              "H20 N6 O22 S6 Sm2"
_cell_length_a       7.6395
_cell_length_b       8.76026
_cell_length_c       9.00927
_cell_angle_alpha    118.005
_cell_angle_beta     94.397
_cell_angle_gamma    92.1026

_space_group_name_H-M_alt    "P 1"
_space_group_IT_number       1

loop_
  _space_group_symop_operation_xyz
  'x, y, z'

loop_
  _atom_site_type_symbol
  _atom_site_label
  _atom_site_symmetry_multiplicity
  _atom_site_fract_x
  _atom_site_fract_y
  _atom_site_fract_z
  _atom_site_occupancy
  H   H1        1.0  0.48900  0.66100  0.01650  1.0000
  H   H2        1.0  0.69600  0.98400  0.04180  1.0000
  H   H3        1.0  0.67600  0.68500  0.13100  1.0000
  H   H4        1.0  0.28200  0.01760  0.14000  1.0000
  H   H5        1.0  0.61400  0.21500  0.22500  1.0000
  H   H6        1.0  0.81000  0.55100  0.24300  1.0000
  H   H7        1.0  0.59600  0.09470  0.32200  1.0000
  H   H8        1.0  0.32700  0.90000  0.33100  1.0000
  H   H9        1.0  0.12600  0.98100  0.33200  1.0000
  H   H10       1.0  0.87600  0.76200  0.38000  1.0000
  H   H11       1.0  0.12400  0.23800  0.62000  1.0000
  H   H12       1.0  0.87400  0.01910  0.66800  1.0000
  H   H13       1.0  0.67300  0.09970  0.66900  1.0000
  H   H14       1.0  0.40400  0.90500  0.67800  1.0000
  H   H15       1.0  0.19000  0.44900  0.75700  1.0000
  H   H16       1.0  0.38600  0.78500  0.77500  1.0000
  H   H17       1.0  0.71800  0.98200  0.86000  1.0000
  H   H18       1.0  0.32400  0.31500  0.86900  1.0000
  H   H19       1.0  0.30400  0.01600  0.95800  1.0000
  H   H20       1.0  0.51100  0.33900  0.98300  1.0000
  N   N1        1.0  0.67600  0.13000  0.25500  1.0000
  N   N2        1.0  0.22400  0.91500  0.25900  1.0000
  N   N3        1.0  0.77200  0.67500  0.30500  1.0000
  N   N4        1.0  0.22800  0.32500  0.69500  1.0000
  N   N5        1.0  0.77600  0.08450  0.74100  1.0000
  N   N6        1.0  0.32400  0.87000  0.74500  1.0000
  O   O1        1.0  0.61800  0.66600  0.01880  1.0000
  O   O2        1.0  0.73400  0.32700  0.02120  1.0000
  O   O3        1.0  0.97000  0.76500  0.05050  1.0000
  O   O4        1.0  0.31200  0.08930  0.08380  1.0000
  O   O5        1.0  0.11800  0.60400  0.17300  1.0000
  O   O6        1.0  0.96700  0.25800  0.26100  1.0000
  O   O7        1.0  0.51600  0.50500  0.31600  1.0000
  O   O8        1.0  0.32300  0.28500  0.41600  1.0000
  O   O9        1.0  0.50300  0.81900  0.42300  1.0000
  O   O10       1.0  0.93200  0.11000  0.43200  1.0000
  O   O11       1.0  0.17500  0.60400  0.48300  1.0000
  O   O12       1.0  0.82500  0.39600  0.51700  1.0000
  O   O13       1.0  0.06760  0.89000  0.56800  1.0000
  O   O14       1.0  0.49700  0.18100  0.57700  1.0000
  O   O15       1.0  0.67700  0.71500  0.58400  1.0000
  O   O16       1.0  0.48400  0.49500  0.68400  1.0000
  O   O17       1.0  0.03270  0.74200  0.73900  1.0000
  O   O18       1.0  0.88200  0.39600  0.82700  1.0000
  O   O19       1.0  0.68800  0.91100  0.91600  1.0000
  O   O20       1.0  0.02970  0.23500  0.95000  1.0000
  O   O21       1.0  0.26600  0.67300  0.97900  1.0000
  O   O22       1.0  0.38200  0.33400  0.98100  1.0000
  S   S1        1.0  0.14000  0.72700  0.10500  1.0000
  S   S2        1.0  0.86200  0.23000  0.37700  1.0000
  S   S3        1.0  0.60700  0.68000  0.41500  1.0000
  S   S4        1.0  0.39300  0.32000  0.58500  1.0000
  S   S5        1.0  0.13800  0.77000  0.62300  1.0000
  S   S6        1.0  0.86000  0.27300  0.89500  1.0000
  Sm  Sm1       1.0  0.22500  0.37300  0.21100  1.0000
  Sm  Sm2       1.0  0.77500  0.62700  0.78900  1.0000
