data_image0
_chemical_formula_structural       Al8Ge8K2Na6O32
_chemical_formula_sum              "Al8 Ge8 K2 Na6 O32"
_cell_length_a       10.0903
_cell_length_b       8.59955
_cell_length_c       10.0573
_cell_angle_alpha    90
_cell_angle_beta     120.706
_cell_angle_gamma    90

_space_group_name_H-M_alt    "P 1"
_space_group_IT_number       1

loop_
  _space_group_symop_operation_xyz
  'x, y, z'

loop_
  _atom_site_type_symbol
  _atom_site_label
  _atom_site_symmetry_multiplicity
  _atom_site_fract_x
  _atom_site_fract_y
  _atom_site_fract_z
  _atom_site_occupancy
  Al  Al1       1.0  0.75200  0.74200  0.08020  1.0000
  Al  Al2       1.0  0.32900  0.77700  0.24100  1.0000
  Al  Al3       1.0  0.07220  0.24400  0.31700  1.0000
  Al  Al4       1.0  0.66000  0.18700  0.33000  1.0000
  Al  Al5       1.0  0.34000  0.68700  0.67000  1.0000
  Al  Al6       1.0  0.92800  0.74400  0.68300  1.0000
  Al  Al7       1.0  0.67100  0.27700  0.75900  1.0000
  Al  Al8       1.0  0.24800  0.24200  0.92000  1.0000
  Ge  Ge1       1.0  0.74300  0.09970  0.07560  1.0000
  Ge  Ge2       1.0  0.31900  0.07420  0.24500  1.0000
  Ge  Ge3       1.0  0.08100  0.61200  0.32300  1.0000
  Ge  Ge4       1.0  0.66500  0.68400  0.34300  1.0000
  Ge  Ge5       1.0  0.33500  0.18400  0.65700  1.0000
  Ge  Ge6       1.0  0.91900  0.11200  0.67700  1.0000
  Ge  Ge7       1.0  0.68100  0.57400  0.75500  1.0000
  Ge  Ge8       1.0  0.25700  0.60000  0.92400  1.0000
  K   K1        1.0  0.01590  0.42300  0.00642  1.0000
  K   K2        1.0  0.98400  0.92300  0.99400  1.0000
  Na  Na1       1.0  0.57800  0.43200  0.02580  1.0000
  Na  Na2       1.0  0.41100  0.41300  0.39900  1.0000
  Na  Na3       1.0  0.00612  0.93100  0.45100  1.0000
  Na  Na4       1.0  0.99400  0.43100  0.54900  1.0000
  Na  Na5       1.0  0.58900  0.91300  0.60100  1.0000
  Na  Na6       1.0  0.42200  0.93200  0.97400  1.0000
  O   O1        1.0  0.30400  0.42100  0.02220  1.0000
  O   O2        1.0  0.26600  0.09470  0.04500  1.0000
  O   O3        1.0  0.28200  0.75500  0.04860  1.0000
  O   O4        1.0  0.62000  0.11600  0.15100  1.0000
  O   O5        1.0  0.63200  0.70300  0.15700  1.0000
  O   O6        1.0  0.93800  0.09580  0.22300  1.0000
  O   O7        1.0  0.94800  0.76300  0.23000  1.0000
  O   O8        1.0  0.99000  0.43000  0.26300  1.0000
  O   O9        1.0  0.21200  0.23200  0.26500  1.0000
  O   O10       1.0  0.22600  0.63200  0.27300  1.0000
  O   O11       1.0  0.70600  0.39000  0.32000  1.0000
  O   O12       1.0  0.51000  0.15700  0.36400  1.0000
  O   O13       1.0  0.52900  0.78300  0.37000  1.0000
  O   O14       1.0  0.62100  0.48700  0.37600  1.0000
  O   O15       1.0  0.83800  0.11400  0.47700  1.0000
  O   O16       1.0  0.85600  0.72200  0.48300  1.0000
  O   O17       1.0  0.14400  0.22200  0.51700  1.0000
  O   O18       1.0  0.16200  0.61400  0.52300  1.0000
  O   O19       1.0  0.37900  0.98700  0.62400  1.0000
  O   O20       1.0  0.47100  0.28300  0.63000  1.0000
  O   O21       1.0  0.49000  0.65700  0.63600  1.0000
  O   O22       1.0  0.29400  0.89000  0.68000  1.0000
  O   O23       1.0  0.77400  0.13200  0.72700  1.0000
  O   O24       1.0  0.78800  0.73200  0.73500  1.0000
  O   O25       1.0  0.01030  0.93000  0.73700  1.0000
  O   O26       1.0  0.05160  0.26300  0.77000  1.0000
  O   O27       1.0  0.06230  0.59600  0.77700  1.0000
  O   O28       1.0  0.36800  0.20300  0.84300  1.0000
  O   O29       1.0  0.38000  0.61600  0.84900  1.0000
  O   O30       1.0  0.71800  0.25500  0.95100  1.0000
  O   O31       1.0  0.73400  0.59500  0.95500  1.0000
  O   O32       1.0  0.69600  0.92100  0.97800  1.0000
