data_image0
_chemical_formula_structural       As24Ga16K16
_chemical_formula_sum              "As24 Ga16 K16"
_cell_length_a       13.9513
_cell_length_b       6.8139
_cell_length_c       15.801
_cell_angle_alpha    90
_cell_angle_beta     90.2994
_cell_angle_gamma    90

_space_group_name_H-M_alt    "P 1"
_space_group_IT_number       1

loop_
  _space_group_symop_operation_xyz
  'x, y, z'

loop_
  _atom_site_type_symbol
  _atom_site_label
  _atom_site_symmetry_multiplicity
  _atom_site_fract_x
  _atom_site_fract_y
  _atom_site_fract_z
  _atom_site_occupancy
  As  As1       1.0  0.16500  0.55500  0.10200  1.0000
  As  As2       1.0  0.32900  0.06470  0.11800  1.0000
  As  As3       1.0  0.47400  0.54900  0.16700  1.0000
  As  As4       1.0  0.74600  0.83700  0.17700  1.0000
  As  As5       1.0  0.03120  0.04030  0.17700  1.0000
  As  As6       1.0  0.75600  0.20400  0.18000  1.0000
  As  As7       1.0  0.24400  0.70400  0.32000  1.0000
  As  As8       1.0  0.96900  0.54000  0.32300  1.0000
  As  As9       1.0  0.25400  0.33700  0.32300  1.0000
  As  As10      1.0  0.52600  0.04940  0.33300  1.0000
  As  As11      1.0  0.67100  0.56500  0.38200  1.0000
  As  As12      1.0  0.83500  0.05480  0.39800  1.0000
  As  As13      1.0  0.16500  0.94500  0.60200  1.0000
  As  As14      1.0  0.32900  0.43500  0.61800  1.0000
  As  As15      1.0  0.47400  0.95100  0.66700  1.0000
  As  As16      1.0  0.74600  0.66300  0.67700  1.0000
  As  As17      1.0  0.03120  0.46000  0.67700  1.0000
  As  As18      1.0  0.75600  0.29600  0.68000  1.0000
  As  As19      1.0  0.24400  0.79600  0.82000  1.0000
  As  As20      1.0  0.96900  0.96000  0.82300  1.0000
  As  As21      1.0  0.25400  0.16300  0.82300  1.0000
  As  As22      1.0  0.52600  0.45100  0.83300  1.0000
  As  As23      1.0  0.67100  0.93500  0.88200  1.0000
  As  As24      1.0  0.83500  0.44500  0.89800  1.0000
  Ga  Ga1       1.0  0.31500  0.72600  0.17400  1.0000
  Ga  Ga2       1.0  0.18400  0.24000  0.18000  1.0000
  Ga  Ga3       1.0  0.09140  0.71200  0.23100  1.0000
  Ga  Ga4       1.0  0.40800  0.24700  0.24100  1.0000
  Ga  Ga5       1.0  0.59200  0.74700  0.25900  1.0000
  Ga  Ga6       1.0  0.90900  0.21200  0.26900  1.0000
  Ga  Ga7       1.0  0.81600  0.74000  0.32000  1.0000
  Ga  Ga8       1.0  0.68500  0.22600  0.32600  1.0000
  Ga  Ga9       1.0  0.31500  0.77400  0.67400  1.0000
  Ga  Ga10      1.0  0.18400  0.26000  0.68000  1.0000
  Ga  Ga11      1.0  0.09140  0.78800  0.73100  1.0000
  Ga  Ga12      1.0  0.40800  0.25300  0.74100  1.0000
  Ga  Ga13      1.0  0.59200  0.75300  0.75900  1.0000
  Ga  Ga14      1.0  0.90900  0.28800  0.76900  1.0000
  Ga  Ga15      1.0  0.81600  0.76000  0.82000  1.0000
  Ga  Ga16      1.0  0.68500  0.27400  0.82600  1.0000
  K   K1        1.0  0.85700  0.03130  0.00562  1.0000
  K   K2        1.0  0.65300  0.55100  0.01880  1.0000
  K   K3        1.0  0.55800  0.06430  0.09960  1.0000
  K   K4        1.0  0.92200  0.53700  0.10800  1.0000
  K   K5        1.0  0.07830  0.03660  0.39200  1.0000
  K   K6        1.0  0.44200  0.56400  0.40000  1.0000
  K   K7        1.0  0.34700  0.05080  0.48100  1.0000
  K   K8        1.0  0.14300  0.53100  0.49400  1.0000
  K   K9        1.0  0.85700  0.46900  0.50600  1.0000
  K   K10       1.0  0.65300  0.94900  0.51900  1.0000
  K   K11       1.0  0.55800  0.43600  0.60000  1.0000
  K   K12       1.0  0.92200  0.96300  0.60800  1.0000
  K   K13       1.0  0.07830  0.46300  0.89200  1.0000
  K   K14       1.0  0.44200  0.93600  0.90000  1.0000
  K   K15       1.0  0.34700  0.44900  0.98100  1.0000
  K   K16       1.0  0.14300  0.96900  0.99400  1.0000
