data_image0
_chemical_formula_structural       Ga4Na12O32P8
_chemical_formula_sum              "Ga4 Na12 O32 P8"
_cell_length_a       8.77006
_cell_length_b       8.80847
_cell_length_c       9.14878
_cell_angle_alpha    89.2766
_cell_angle_beta     70.7196
_cell_angle_gamma    88.0358

_space_group_name_H-M_alt    "P 1"
_space_group_IT_number       1

loop_
  _space_group_symop_operation_xyz
  'x, y, z'

loop_
  _atom_site_type_symbol
  _atom_site_label
  _atom_site_symmetry_multiplicity
  _atom_site_fract_x
  _atom_site_fract_y
  _atom_site_fract_z
  _atom_site_occupancy
  Ga  Ga1       1.0  0.47600  0.58100  0.24500  1.0000
  Ga  Ga2       1.0  0.74700  0.92300  0.48900  1.0000
  Ga  Ga3       1.0  0.25300  0.07710  0.51100  1.0000
  Ga  Ga4       1.0  0.52400  0.41900  0.75500  1.0000
  Na  Na1       1.0  0.30600  0.91200  0.07260  1.0000
  Na  Na2       1.0  0.34300  0.25000  0.11500  1.0000
  Na  Na3       1.0  0.92200  0.82600  0.11600  1.0000
  Na  Na4       1.0  0.94600  0.42100  0.18200  1.0000
  Na  Na5       1.0  0.64800  0.24100  0.31400  1.0000
  Na  Na6       1.0  0.10400  0.70700  0.40900  1.0000
  Na  Na7       1.0  0.89600  0.29300  0.59100  1.0000
  Na  Na8       1.0  0.35200  0.75900  0.68600  1.0000
  Na  Na9       1.0  0.05400  0.57900  0.81800  1.0000
  Na  Na10      1.0  0.07760  0.17400  0.88400  1.0000
  Na  Na11      1.0  0.65700  0.75000  0.88500  1.0000
  Na  Na12      1.0  0.69400  0.08840  0.92700  1.0000
  O   O1        1.0  0.82500  0.28200  0.03700  1.0000
  O   O2        1.0  0.20200  0.44200  0.04030  1.0000
  O   O3        1.0  0.09750  0.08060  0.11000  1.0000
  O   O4        1.0  0.54800  0.41300  0.11300  1.0000
  O   O5        1.0  0.50400  0.04630  0.15300  1.0000
  O   O6        1.0  0.30600  0.66200  0.16200  1.0000
  O   O7        1.0  0.57900  0.76900  0.17800  1.0000
  O   O8        1.0  0.68700  0.97200  0.30200  1.0000
  O   O9        1.0  0.18000  0.13000  0.33900  1.0000
  O   O10       1.0  0.63100  0.51400  0.34600  1.0000
  O   O11       1.0  0.90000  0.21900  0.34900  1.0000
  O   O12       1.0  0.89100  0.61700  0.35600  1.0000
  O   O13       1.0  0.96700  0.93500  0.35600  1.0000
  O   O14       1.0  0.38300  0.90700  0.40800  1.0000
  O   O15       1.0  0.29400  0.52300  0.41400  1.0000
  O   O16       1.0  0.37500  0.25800  0.47900  1.0000
  O   O17       1.0  0.62500  0.74200  0.52100  1.0000
  O   O18       1.0  0.70600  0.47700  0.58600  1.0000
  O   O19       1.0  0.61700  0.09320  0.59200  1.0000
  O   O20       1.0  0.03330  0.06480  0.64400  1.0000
  O   O21       1.0  0.10900  0.38300  0.64400  1.0000
  O   O22       1.0  0.10000  0.78100  0.65100  1.0000
  O   O23       1.0  0.36900  0.48600  0.65400  1.0000
  O   O24       1.0  0.82000  0.87000  0.66100  1.0000
  O   O25       1.0  0.31300  0.02830  0.69800  1.0000
  O   O26       1.0  0.42100  0.23100  0.82200  1.0000
  O   O27       1.0  0.69400  0.33800  0.83800  1.0000
  O   O28       1.0  0.49600  0.95400  0.84700  1.0000
  O   O29       1.0  0.45200  0.58700  0.88700  1.0000
  O   O30       1.0  0.90200  0.91900  0.89000  1.0000
  O   O31       1.0  0.79800  0.55800  0.96000  1.0000
  O   O32       1.0  0.17500  0.71800  0.96300  1.0000
  P   P1        1.0  0.27700  0.59700  0.01440  1.0000
  P   P2        1.0  0.53600  0.92600  0.26100  1.0000
  P   P3        1.0  0.03120  0.09580  0.28700  1.0000
  P   P4        1.0  0.71600  0.59000  0.45000  1.0000
  P   P5        1.0  0.28400  0.41000  0.55000  1.0000
  P   P6        1.0  0.96900  0.90400  0.71300  1.0000
  P   P7        1.0  0.46400  0.07350  0.73900  1.0000
  P   P8        1.0  0.72300  0.40300  0.98600  1.0000
