data_image0
_chemical_formula_structural       Cl8Mo8O32Pr8
_chemical_formula_sum              "Cl8 Mo8 O32 Pr8"
_cell_length_a       19.0223
_cell_length_b       5.81491
_cell_length_c       7.89828
_cell_angle_alpha    90
_cell_angle_beta     90.0696
_cell_angle_gamma    90

_space_group_name_H-M_alt    "P 1"
_space_group_IT_number       1

loop_
  _space_group_symop_operation_xyz
  'x, y, z'

loop_
  _atom_site_type_symbol
  _atom_site_label
  _atom_site_symmetry_multiplicity
  _atom_site_fract_x
  _atom_site_fract_y
  _atom_site_fract_z
  _atom_site_occupancy
  Cl  Cl1       1.0  0.01090  0.76400  0.12500  1.0000
  Cl  Cl2       1.0  0.51100  0.76200  0.12700  1.0000
  Cl  Cl3       1.0  0.48900  0.26200  0.37300  1.0000
  Cl  Cl4       1.0  0.98900  0.26400  0.37500  1.0000
  Cl  Cl5       1.0  0.01090  0.73600  0.62500  1.0000
  Cl  Cl6       1.0  0.51100  0.73800  0.62700  1.0000
  Cl  Cl7       1.0  0.48900  0.23800  0.87300  1.0000
  Cl  Cl8       1.0  0.98900  0.23600  0.87500  1.0000
  Mo  Mo1       1.0  0.82100  0.24800  0.09030  1.0000
  Mo  Mo2       1.0  0.32200  0.25600  0.15900  1.0000
  Mo  Mo3       1.0  0.67800  0.75600  0.34100  1.0000
  Mo  Mo4       1.0  0.17900  0.74800  0.41000  1.0000
  Mo  Mo5       1.0  0.82100  0.25200  0.59000  1.0000
  Mo  Mo6       1.0  0.32200  0.24400  0.65900  1.0000
  Mo  Mo7       1.0  0.67800  0.74400  0.84100  1.0000
  Mo  Mo8       1.0  0.17900  0.75200  0.91000  1.0000
  O   O1        1.0  0.36900  0.51300  0.09230  1.0000
  O   O2        1.0  0.86900  0.52100  0.09450  1.0000
  O   O3        1.0  0.67200  0.82200  0.11900  1.0000
  O   O4        1.0  0.23000  0.25900  0.12000  1.0000
  O   O5        1.0  0.73000  0.26700  0.12500  1.0000
  O   O6        1.0  0.17100  0.82000  0.13100  1.0000
  O   O7        1.0  0.36600  0.97800  0.15500  1.0000
  O   O8        1.0  0.86600  0.98600  0.15900  1.0000
  O   O9        1.0  0.13400  0.48600  0.34100  1.0000
  O   O10       1.0  0.63400  0.47800  0.34500  1.0000
  O   O11       1.0  0.82900  0.32000  0.36900  1.0000
  O   O12       1.0  0.27000  0.76700  0.37500  1.0000
  O   O13       1.0  0.77000  0.75900  0.38000  1.0000
  O   O14       1.0  0.32800  0.32200  0.38100  1.0000
  O   O15       1.0  0.13100  0.02120  0.40500  1.0000
  O   O16       1.0  0.63100  0.01290  0.40800  1.0000
  O   O17       1.0  0.36900  0.98700  0.59200  1.0000
  O   O18       1.0  0.86900  0.97900  0.59500  1.0000
  O   O19       1.0  0.67200  0.67800  0.61900  1.0000
  O   O20       1.0  0.23000  0.24100  0.62000  1.0000
  O   O21       1.0  0.73000  0.23300  0.62500  1.0000
  O   O22       1.0  0.17100  0.68000  0.63100  1.0000
  O   O23       1.0  0.36600  0.52200  0.65500  1.0000
  O   O24       1.0  0.86600  0.51400  0.65900  1.0000
  O   O25       1.0  0.13400  0.01350  0.84100  1.0000
  O   O26       1.0  0.63400  0.02190  0.84500  1.0000
  O   O27       1.0  0.82900  0.18000  0.86900  1.0000
  O   O28       1.0  0.27000  0.73300  0.87500  1.0000
  O   O29       1.0  0.77000  0.74100  0.88000  1.0000
  O   O30       1.0  0.32800  0.17800  0.88100  1.0000
  O   O31       1.0  0.13100  0.47900  0.90500  1.0000
  O   O32       1.0  0.63100  0.48700  0.90800  1.0000
  Pr  Pr1       1.0  0.60300  0.19500  0.12300  1.0000
  Pr  Pr2       1.0  0.10400  0.19400  0.12600  1.0000
  Pr  Pr3       1.0  0.89600  0.69400  0.37300  1.0000
  Pr  Pr4       1.0  0.39700  0.69500  0.37700  1.0000
  Pr  Pr5       1.0  0.60300  0.30500  0.62300  1.0000
  Pr  Pr6       1.0  0.10400  0.30600  0.62700  1.0000
  Pr  Pr7       1.0  0.89600  0.80600  0.87300  1.0000
  Pr  Pr8       1.0  0.39700  0.80500  0.87700  1.0000
