data_image0
_chemical_formula_structural       Ga16K16Sb24
_chemical_formula_sum              "Ga16 K16 Sb24"
_cell_length_a       14.9439
_cell_length_b       7.286
_cell_length_c       16.7673
_cell_angle_alpha    90
_cell_angle_beta     90.4785
_cell_angle_gamma    90

_space_group_name_H-M_alt    "P 1"
_space_group_IT_number       1

loop_
  _space_group_symop_operation_xyz
  'x, y, z'

loop_
  _atom_site_type_symbol
  _atom_site_label
  _atom_site_symmetry_multiplicity
  _atom_site_fract_x
  _atom_site_fract_y
  _atom_site_fract_z
  _atom_site_occupancy
  Ga  Ga1       1.0  0.31500  0.71500  0.17000  1.0000
  Ga  Ga2       1.0  0.18200  0.22900  0.17600  1.0000
  Ga  Ga3       1.0  0.09150  0.70900  0.23000  1.0000
  Ga  Ga4       1.0  0.40800  0.23300  0.24000  1.0000
  Ga  Ga5       1.0  0.59200  0.73300  0.26000  1.0000
  Ga  Ga6       1.0  0.90900  0.20900  0.27000  1.0000
  Ga  Ga7       1.0  0.81800  0.72900  0.32400  1.0000
  Ga  Ga8       1.0  0.68500  0.21500  0.33000  1.0000
  Ga  Ga9       1.0  0.31500  0.78500  0.67000  1.0000
  Ga  Ga10      1.0  0.18200  0.27100  0.67600  1.0000
  Ga  Ga11      1.0  0.09150  0.79100  0.73000  1.0000
  Ga  Ga12      1.0  0.40800  0.26700  0.74000  1.0000
  Ga  Ga13      1.0  0.59200  0.76700  0.76000  1.0000
  Ga  Ga14      1.0  0.90900  0.29100  0.77000  1.0000
  Ga  Ga15      1.0  0.81800  0.77100  0.82400  1.0000
  Ga  Ga16      1.0  0.68500  0.28500  0.83000  1.0000
  K   K1        1.0  0.85800  0.02190  0.00854  1.0000
  K   K2        1.0  0.65200  0.53800  0.02050  1.0000
  K   K3        1.0  0.55700  0.04450  0.10400  1.0000
  K   K4        1.0  0.92600  0.52600  0.11100  1.0000
  K   K5        1.0  0.07420  0.02560  0.38900  1.0000
  K   K6        1.0  0.44300  0.54500  0.39600  1.0000
  K   K7        1.0  0.34800  0.03790  0.48000  1.0000
  K   K8        1.0  0.14200  0.52200  0.49100  1.0000
  K   K9        1.0  0.85800  0.47800  0.50900  1.0000
  K   K10       1.0  0.65200  0.96200  0.52000  1.0000
  K   K11       1.0  0.55700  0.45500  0.60400  1.0000
  K   K12       1.0  0.92600  0.97400  0.61100  1.0000
  K   K13       1.0  0.07420  0.47400  0.88900  1.0000
  K   K14       1.0  0.44300  0.95500  0.89600  1.0000
  K   K15       1.0  0.34800  0.46200  0.98000  1.0000
  K   K16       1.0  0.14200  0.97800  0.99100  1.0000
  Sb  Sb1       1.0  0.16400  0.55000  0.09840  1.0000
  Sb  Sb2       1.0  0.32900  0.05770  0.11200  1.0000
  Sb  Sb3       1.0  0.47600  0.53500  0.16500  1.0000
  Sb  Sb4       1.0  0.02640  0.03280  0.17300  1.0000
  Sb  Sb5       1.0  0.74800  0.81800  0.17800  1.0000
  Sb  Sb6       1.0  0.75300  0.21600  0.18100  1.0000
  Sb  Sb7       1.0  0.24700  0.71600  0.31900  1.0000
  Sb  Sb8       1.0  0.25200  0.31800  0.32200  1.0000
  Sb  Sb9       1.0  0.97400  0.53300  0.32700  1.0000
  Sb  Sb10      1.0  0.52400  0.03500  0.33500  1.0000
  Sb  Sb11      1.0  0.67100  0.55800  0.38800  1.0000
  Sb  Sb12      1.0  0.83600  0.04960  0.40200  1.0000
  Sb  Sb13      1.0  0.16400  0.95000  0.59800  1.0000
  Sb  Sb14      1.0  0.32900  0.44200  0.61200  1.0000
  Sb  Sb15      1.0  0.47600  0.96500  0.66500  1.0000
  Sb  Sb16      1.0  0.02640  0.46700  0.67300  1.0000
  Sb  Sb17      1.0  0.74800  0.68200  0.67800  1.0000
  Sb  Sb18      1.0  0.75300  0.28400  0.68100  1.0000
  Sb  Sb19      1.0  0.24700  0.78400  0.81900  1.0000
  Sb  Sb20      1.0  0.25200  0.18200  0.82200  1.0000
  Sb  Sb21      1.0  0.97400  0.96700  0.82700  1.0000
  Sb  Sb22      1.0  0.52400  0.46500  0.83500  1.0000
  Sb  Sb23      1.0  0.67100  0.94200  0.88800  1.0000
  Sb  Sb24      1.0  0.83600  0.45000  0.90200  1.0000
