data_image0
_chemical_formula_structural       Cl12Cu6O24Te8Yb6
_chemical_formula_sum              "Cl12 Cu6 O24 Te8 Yb6"
_cell_length_a       13.2809
_cell_length_b       5.59996
_cell_length_c       16.4717
_cell_angle_alpha    90
_cell_angle_beta     127.435
_cell_angle_gamma    90

_space_group_name_H-M_alt    "P 1"
_space_group_IT_number       1

loop_
  _space_group_symop_operation_xyz
  'x, y, z'

loop_
  _atom_site_type_symbol
  _atom_site_label
  _atom_site_symmetry_multiplicity
  _atom_site_fract_x
  _atom_site_fract_y
  _atom_site_fract_z
  _atom_site_occupancy
  Cl  Cl1       1.0  0.13100  0.17300  0.04240  1.0000
  Cl  Cl2       1.0  0.88900  0.16500  0.11400  1.0000
  Cl  Cl3       1.0  0.12000  0.63200  0.20900  1.0000
  Cl  Cl4       1.0  0.88000  0.63200  0.29100  1.0000
  Cl  Cl5       1.0  0.11100  0.16500  0.38600  1.0000
  Cl  Cl6       1.0  0.86900  0.17300  0.45800  1.0000
  Cl  Cl7       1.0  0.13100  0.82700  0.54200  1.0000
  Cl  Cl8       1.0  0.88900  0.83500  0.61400  1.0000
  Cl  Cl9       1.0  0.12000  0.36800  0.70900  1.0000
  Cl  Cl10      1.0  0.88000  0.36800  0.79100  1.0000
  Cl  Cl11      1.0  0.11100  0.83500  0.88600  1.0000
  Cl  Cl12      1.0  0.86900  0.82700  0.95800  1.0000
  Cu  Cu1       1.0  0.75600  0.87400  0.01280  1.0000
  Cu  Cu2       1.0  0.00000  0.59700  0.25000  1.0000
  Cu  Cu3       1.0  0.24400  0.87400  0.48700  1.0000
  Cu  Cu4       1.0  0.75600  0.12700  0.51300  1.0000
  Cu  Cu5       1.0  0.00000  0.40300  0.75000  1.0000
  Cu  Cu6       1.0  0.24400  0.12700  0.98700  1.0000
  O   O1        1.0  0.67000  0.89500  0.06950  1.0000
  O   O2        1.0  0.34700  0.38500  0.06970  1.0000
  O   O3        1.0  0.61100  0.36200  0.07690  1.0000
  O   O4        1.0  0.38300  0.85100  0.12500  1.0000
  O   O5        1.0  0.62000  0.98700  0.20100  1.0000
  O   O6        1.0  0.61300  0.47600  0.24900  1.0000
  O   O7        1.0  0.38700  0.47600  0.25100  1.0000
  O   O8        1.0  0.38000  0.98700  0.29900  1.0000
  O   O9        1.0  0.61700  0.85100  0.37500  1.0000
  O   O10       1.0  0.38900  0.36200  0.42300  1.0000
  O   O11       1.0  0.65300  0.38500  0.43000  1.0000
  O   O12       1.0  0.33000  0.89500  0.43000  1.0000
  O   O13       1.0  0.67000  0.10500  0.57000  1.0000
  O   O14       1.0  0.34700  0.61500  0.57000  1.0000
  O   O15       1.0  0.61100  0.63800  0.57700  1.0000
  O   O16       1.0  0.38300  0.14900  0.62500  1.0000
  O   O17       1.0  0.62000  0.01330  0.70100  1.0000
  O   O18       1.0  0.61300  0.52400  0.74900  1.0000
  O   O19       1.0  0.38700  0.52400  0.75100  1.0000
  O   O20       1.0  0.38000  0.01330  0.79900  1.0000
  O   O21       1.0  0.61700  0.14900  0.87500  1.0000
  O   O22       1.0  0.38900  0.63800  0.92300  1.0000
  O   O23       1.0  0.65300  0.61500  0.93000  1.0000
  O   O24       1.0  0.33000  0.10500  0.93000  1.0000
  Te  Te1       1.0  0.28100  0.60700  0.12000  1.0000
  Te  Te2       1.0  0.72300  0.13700  0.17400  1.0000
  Te  Te3       1.0  0.27700  0.13700  0.32600  1.0000
  Te  Te4       1.0  0.71900  0.60700  0.38000  1.0000
  Te  Te5       1.0  0.28100  0.39300  0.62000  1.0000
  Te  Te6       1.0  0.72300  0.86300  0.67400  1.0000
  Te  Te7       1.0  0.27700  0.86300  0.82600  1.0000
  Te  Te8       1.0  0.71900  0.39300  0.88000  1.0000
  Yb  Yb1       1.0  0.51800  0.67100  0.09470  1.0000
  Yb  Yb2       1.0  0.50000  0.14600  0.25000  1.0000
  Yb  Yb3       1.0  0.48200  0.67100  0.40500  1.0000
  Yb  Yb4       1.0  0.51800  0.32900  0.59500  1.0000
  Yb  Yb5       1.0  0.50000  0.85400  0.75000  1.0000
  Yb  Yb6       1.0  0.48200  0.32900  0.90500  1.0000
