data_image0
_chemical_formula_structural       Ba16Ga8S32
_chemical_formula_sum              "Ba16 Ga8 S32"
_cell_length_a       12.8414
_cell_length_b       6.26001
_cell_length_c       20.084
_cell_angle_alpha    90
_cell_angle_beta     104.232
_cell_angle_gamma    90

_space_group_name_H-M_alt    "P 1"
_space_group_IT_number       1

loop_
  _space_group_symop_operation_xyz
  'x, y, z'

loop_
  _atom_site_type_symbol
  _atom_site_label
  _atom_site_symmetry_multiplicity
  _atom_site_fract_x
  _atom_site_fract_y
  _atom_site_fract_z
  _atom_site_occupancy
  Ba  Ba1       1.0  0.38300  0.23600  0.03720  1.0000
  Ba  Ba2       1.0  0.14500  0.74300  0.04850  1.0000
  Ba  Ba3       1.0  0.52700  0.73100  0.18700  1.0000
  Ba  Ba4       1.0  0.10500  0.23500  0.21400  1.0000
  Ba  Ba5       1.0  0.89500  0.73500  0.28600  1.0000
  Ba  Ba6       1.0  0.47300  0.23100  0.31300  1.0000
  Ba  Ba7       1.0  0.85500  0.24300  0.45200  1.0000
  Ba  Ba8       1.0  0.61700  0.73600  0.46300  1.0000
  Ba  Ba9       1.0  0.38300  0.26400  0.53700  1.0000
  Ba  Ba10      1.0  0.14500  0.75700  0.54800  1.0000
  Ba  Ba11      1.0  0.52700  0.76900  0.68700  1.0000
  Ba  Ba12      1.0  0.10500  0.26500  0.71400  1.0000
  Ba  Ba13      1.0  0.89500  0.76500  0.78600  1.0000
  Ba  Ba14      1.0  0.47300  0.26900  0.81300  1.0000
  Ba  Ba15      1.0  0.85500  0.25700  0.95200  1.0000
  Ba  Ba16      1.0  0.61700  0.76400  0.96300  1.0000
  Ga  Ga1       1.0  0.88300  0.81700  0.09880  1.0000
  Ga  Ga2       1.0  0.69700  0.31100  0.10100  1.0000
  Ga  Ga3       1.0  0.30300  0.81100  0.39900  1.0000
  Ga  Ga4       1.0  0.11700  0.31700  0.40100  1.0000
  Ga  Ga5       1.0  0.88300  0.68300  0.59900  1.0000
  Ga  Ga6       1.0  0.69700  0.18900  0.60100  1.0000
  Ga  Ga7       1.0  0.30300  0.68900  0.89900  1.0000
  Ga  Ga8       1.0  0.11700  0.18300  0.90100  1.0000
  S   S1        1.0  0.11700  0.24600  0.01200  1.0000
  S   S2        1.0  0.38700  0.73300  0.01550  1.0000
  S   S3        1.0  0.86900  0.18300  0.11600  1.0000
  S   S4        1.0  0.73100  0.67700  0.12700  1.0000
  S   S5        1.0  0.58200  0.22500  0.16400  1.0000
  S   S6        1.0  0.31400  0.06460  0.17300  1.0000
  S   S7        1.0  0.31400  0.40200  0.17300  1.0000
  S   S8        1.0  0.03860  0.73600  0.17700  1.0000
  S   S9        1.0  0.96100  0.23600  0.32300  1.0000
  S   S10       1.0  0.68600  0.90200  0.32700  1.0000
  S   S11       1.0  0.68600  0.56500  0.32700  1.0000
  S   S12       1.0  0.41800  0.72500  0.33600  1.0000
  S   S13       1.0  0.26900  0.17700  0.37300  1.0000
  S   S14       1.0  0.13100  0.68300  0.38400  1.0000
  S   S15       1.0  0.61300  0.23300  0.48500  1.0000
  S   S16       1.0  0.88300  0.74600  0.48800  1.0000
  S   S17       1.0  0.11700  0.25400  0.51200  1.0000
  S   S18       1.0  0.38700  0.76700  0.51500  1.0000
  S   S19       1.0  0.86900  0.31700  0.61600  1.0000
  S   S20       1.0  0.73100  0.82300  0.62700  1.0000
  S   S21       1.0  0.58200  0.27500  0.66400  1.0000
  S   S22       1.0  0.31400  0.43500  0.67300  1.0000
  S   S23       1.0  0.31400  0.09800  0.67300  1.0000
  S   S24       1.0  0.03860  0.76400  0.67700  1.0000
  S   S25       1.0  0.96100  0.26400  0.82300  1.0000
  S   S26       1.0  0.68600  0.59800  0.82700  1.0000
  S   S27       1.0  0.68600  0.93500  0.82700  1.0000
  S   S28       1.0  0.41800  0.77500  0.83600  1.0000
  S   S29       1.0  0.26900  0.32300  0.87300  1.0000
  S   S30       1.0  0.13100  0.81700  0.88400  1.0000
  S   S31       1.0  0.61300  0.26700  0.98500  1.0000
  S   S32       1.0  0.88300  0.75400  0.98800  1.0000
