data_image0
_chemical_formula_structural       Ag4O4Pt4Te4
_chemical_formula_sum              "Ag4 O4 Pt4 Te4"
_cell_length_a       5.48484
_cell_length_b       6.89162
_cell_length_c       7.53294
_cell_angle_alpha    90
_cell_angle_beta     90
_cell_angle_gamma    90

_space_group_name_H-M_alt    "P 1"
_space_group_IT_number       1

loop_
  _space_group_symop_operation_xyz
  'x, y, z'

loop_
  _atom_site_type_symbol
  _atom_site_label
  _atom_site_symmetry_multiplicity
  _atom_site_fract_x
  _atom_site_fract_y
  _atom_site_fract_z
  _atom_site_occupancy
  Ag  Ag1       1.0  0.51200  0.33200  0.18500  1.0000
  Ag  Ag2       1.0  0.48800  0.83200  0.31500  1.0000
  Ag  Ag3       1.0  0.98800  0.66800  0.68500  1.0000
  Ag  Ag4       1.0  0.01200  0.16800  0.81500  1.0000
  O   O1        1.0  0.13000  0.19800  0.10200  1.0000
  O   O2        1.0  0.87000  0.69800  0.39800  1.0000
  O   O3        1.0  0.37000  0.80200  0.60200  1.0000
  O   O4        1.0  0.63000  0.30200  0.89800  1.0000
  Pt  Pt1       1.0  0.22000  0.68700  0.02000  1.0000
  Pt  Pt2       1.0  0.78000  0.18700  0.48000  1.0000
  Pt  Pt3       1.0  0.28000  0.31300  0.52000  1.0000
  Pt  Pt4       1.0  0.72000  0.81300  0.98000  1.0000
  Te  Te1       1.0  0.01190  0.95900  0.23700  1.0000
  Te  Te2       1.0  0.98800  0.45900  0.26300  1.0000
  Te  Te3       1.0  0.48800  0.04140  0.73700  1.0000
  Te  Te4       1.0  0.51200  0.54100  0.76300  1.0000
