data_image0
_chemical_formula_structural       Cr8K8Li8O32
_chemical_formula_sum              "Cr8 K8 Li8 O32"
_cell_length_a       5.12293
_cell_length_b       8.20276
_cell_length_c       19.1027
_cell_angle_alpha    90
_cell_angle_beta     90
_cell_angle_gamma    90

_space_group_name_H-M_alt    "P 1"
_space_group_IT_number       1

loop_
  _space_group_symop_operation_xyz
  'x, y, z'

loop_
  _atom_site_type_symbol
  _atom_site_label
  _atom_site_symmetry_multiplicity
  _atom_site_fract_x
  _atom_site_fract_y
  _atom_site_fract_z
  _atom_site_occupancy
  Cr  Cr1       1.0  0.75600  0.71900  0.07280  1.0000
  Cr  Cr2       1.0  0.24500  0.20500  0.17700  1.0000
  Cr  Cr3       1.0  0.24500  0.70500  0.32300  1.0000
  Cr  Cr4       1.0  0.75600  0.21900  0.42700  1.0000
  Cr  Cr5       1.0  0.25600  0.78100  0.57300  1.0000
  Cr  Cr6       1.0  0.74500  0.29500  0.67700  1.0000
  Cr  Cr7       1.0  0.74500  0.79500  0.82300  1.0000
  Cr  Cr8       1.0  0.25600  0.28100  0.92700  1.0000
  K   K1        1.0  0.75700  0.18000  0.05080  1.0000
  K   K2        1.0  0.78400  0.48000  0.23400  1.0000
  K   K3        1.0  0.78400  0.98000  0.26600  1.0000
  K   K4        1.0  0.75700  0.68000  0.44900  1.0000
  K   K5        1.0  0.25700  0.32000  0.55100  1.0000
  K   K6        1.0  0.28400  0.01960  0.73400  1.0000
  K   K7        1.0  0.28400  0.52000  0.76600  1.0000
  K   K8        1.0  0.25700  0.82000  0.94900  1.0000
  Li  Li1       1.0  0.25100  0.49700  0.05560  1.0000
  Li  Li2       1.0  0.25400  0.80900  0.15400  1.0000
  Li  Li3       1.0  0.25400  0.30900  0.34600  1.0000
  Li  Li4       1.0  0.25100  0.99700  0.44400  1.0000
  Li  Li5       1.0  0.75100  0.00319  0.55600  1.0000
  Li  Li6       1.0  0.75400  0.69100  0.65400  1.0000
  Li  Li7       1.0  0.75400  0.19100  0.84600  1.0000
  Li  Li8       1.0  0.75100  0.50300  0.94400  1.0000
  O   O1        1.0  0.70200  0.86900  0.01770  1.0000
  O   O2        1.0  0.62100  0.54800  0.04020  1.0000
  O   O3        1.0  0.07910  0.69600  0.07940  1.0000
  O   O4        1.0  0.13400  0.35400  0.12600  1.0000
  O   O5        1.0  0.13200  0.02810  0.14800  1.0000
  O   O6        1.0  0.62600  0.76100  0.15000  1.0000
  O   O7        1.0  0.56600  0.20500  0.17800  1.0000
  O   O8        1.0  0.13200  0.73200  0.24200  1.0000
  O   O9        1.0  0.13200  0.23200  0.25800  1.0000
  O   O10       1.0  0.56600  0.70500  0.32200  1.0000
  O   O11       1.0  0.62600  0.26100  0.35000  1.0000
  O   O12       1.0  0.13200  0.52800  0.35200  1.0000
  O   O13       1.0  0.13400  0.85400  0.37400  1.0000
  O   O14       1.0  0.07910  0.19600  0.42100  1.0000
  O   O15       1.0  0.62100  0.04830  0.46000  1.0000
  O   O16       1.0  0.70200  0.36900  0.48200  1.0000
  O   O17       1.0  0.20200  0.63100  0.51800  1.0000
  O   O18       1.0  0.12100  0.95200  0.54000  1.0000
  O   O19       1.0  0.57900  0.80400  0.57900  1.0000
  O   O20       1.0  0.63400  0.14600  0.62600  1.0000
  O   O21       1.0  0.63200  0.47200  0.64800  1.0000
  O   O22       1.0  0.12600  0.73900  0.65000  1.0000
  O   O23       1.0  0.06630  0.29500  0.67800  1.0000
  O   O24       1.0  0.63200  0.76800  0.74200  1.0000
  O   O25       1.0  0.63200  0.26800  0.75800  1.0000
  O   O26       1.0  0.06630  0.79500  0.82200  1.0000
  O   O27       1.0  0.12600  0.23900  0.85000  1.0000
  O   O28       1.0  0.63200  0.97200  0.85200  1.0000
  O   O29       1.0  0.63400  0.64600  0.87400  1.0000
  O   O30       1.0  0.57900  0.30400  0.92100  1.0000
  O   O31       1.0  0.12100  0.45200  0.96000  1.0000
  O   O32       1.0  0.20200  0.13100  0.98200  1.0000
