data_image0
_chemical_formula_structural       Cd4Ge4O4Te4
_chemical_formula_sum              "Cd4 Ge4 O4 Te4"
_cell_length_a       6.34109
_cell_length_b       8.77003
_cell_length_c       6.88298
_cell_angle_alpha    90
_cell_angle_beta     90
_cell_angle_gamma    90

_space_group_name_H-M_alt    "P 1"
_space_group_IT_number       1

loop_
  _space_group_symop_operation_xyz
  'x, y, z'

loop_
  _atom_site_type_symbol
  _atom_site_label
  _atom_site_symmetry_multiplicity
  _atom_site_fract_x
  _atom_site_fract_y
  _atom_site_fract_z
  _atom_site_occupancy
  Cd  Cd1       1.0  0.25900  0.15400  0.06170  1.0000
  Cd  Cd2       1.0  0.74100  0.65400  0.43800  1.0000
  Cd  Cd3       1.0  0.24100  0.84600  0.56200  1.0000
  Cd  Cd4       1.0  0.75900  0.34600  0.93800  1.0000
  Ge  Ge1       1.0  0.29100  0.73500  0.09850  1.0000
  Ge  Ge2       1.0  0.70900  0.23500  0.40100  1.0000
  Ge  Ge3       1.0  0.20900  0.26500  0.59900  1.0000
  Ge  Ge4       1.0  0.79100  0.76500  0.90100  1.0000
  O   O1        1.0  0.54900  0.25300  0.18900  1.0000
  O   O2        1.0  0.45100  0.75300  0.31100  1.0000
  O   O3        1.0  0.95100  0.74700  0.68900  1.0000
  O   O4        1.0  0.04940  0.24700  0.81100  1.0000
  Te  Te1       1.0  0.03280  0.47700  0.24000  1.0000
  Te  Te2       1.0  0.96700  0.97700  0.26000  1.0000
  Te  Te3       1.0  0.46700  0.52300  0.74000  1.0000
  Te  Te4       1.0  0.53300  0.02330  0.76000  1.0000
