data_image0
_chemical_formula_structural       Ca28Ge12H12Li4
_chemical_formula_sum              "Ca28 Ge12 H12 Li4"
_cell_length_a       9.83523
_cell_length_b       13.7208
_cell_length_c       8.72566
_cell_angle_alpha    90
_cell_angle_beta     90
_cell_angle_gamma    90

_space_group_name_H-M_alt    "P 1"
_space_group_IT_number       1

loop_
  _space_group_symop_operation_xyz
  'x, y, z'

loop_
  _atom_site_type_symbol
  _atom_site_label
  _atom_site_symmetry_multiplicity
  _atom_site_fract_x
  _atom_site_fract_y
  _atom_site_fract_z
  _atom_site_occupancy
  Ca  Ca1       1.0  0.68400  0.11900  0.04630  1.0000
  Ca  Ca2       1.0  0.68400  0.38100  0.04630  1.0000
  Ca  Ca3       1.0  0.09040  0.10900  0.05490  1.0000
  Ca  Ca4       1.0  0.09040  0.39100  0.05490  1.0000
  Ca  Ca5       1.0  0.61300  0.61100  0.17000  1.0000
  Ca  Ca6       1.0  0.61300  0.88900  0.17000  1.0000
  Ca  Ca7       1.0  0.38400  0.25000  0.19500  1.0000
  Ca  Ca8       1.0  0.88400  0.25000  0.30500  1.0000
  Ca  Ca9       1.0  0.11300  0.61100  0.33000  1.0000
  Ca  Ca10      1.0  0.11300  0.88900  0.33000  1.0000
  Ca  Ca11      1.0  0.59000  0.10900  0.44500  1.0000
  Ca  Ca12      1.0  0.59000  0.39100  0.44500  1.0000
  Ca  Ca13      1.0  0.18400  0.11900  0.45400  1.0000
  Ca  Ca14      1.0  0.18400  0.38100  0.45400  1.0000
  Ca  Ca15      1.0  0.81600  0.61900  0.54600  1.0000
  Ca  Ca16      1.0  0.81600  0.88100  0.54600  1.0000
  Ca  Ca17      1.0  0.41000  0.60900  0.55500  1.0000
  Ca  Ca18      1.0  0.41000  0.89100  0.55500  1.0000
  Ca  Ca19      1.0  0.88700  0.11100  0.67000  1.0000
  Ca  Ca20      1.0  0.88700  0.38900  0.67000  1.0000
  Ca  Ca21      1.0  0.11600  0.75000  0.69500  1.0000
  Ca  Ca22      1.0  0.61600  0.75000  0.80500  1.0000
  Ca  Ca23      1.0  0.38700  0.11100  0.83000  1.0000
  Ca  Ca24      1.0  0.38700  0.38900  0.83000  1.0000
  Ca  Ca25      1.0  0.91000  0.60900  0.94500  1.0000
  Ca  Ca26      1.0  0.91000  0.89100  0.94500  1.0000
  Ca  Ca27      1.0  0.31600  0.61900  0.95400  1.0000
  Ca  Ca28      1.0  0.31600  0.88100  0.95400  1.0000
  Ge  Ge1       1.0  0.10700  0.75000  0.07560  1.0000
  Ge  Ge2       1.0  0.36900  0.02510  0.21200  1.0000
  Ge  Ge3       1.0  0.36900  0.47500  0.21200  1.0000
  Ge  Ge4       1.0  0.86900  0.02510  0.28800  1.0000
  Ge  Ge5       1.0  0.86900  0.47500  0.28800  1.0000
  Ge  Ge6       1.0  0.60700  0.75000  0.42400  1.0000
  Ge  Ge7       1.0  0.39300  0.25000  0.57600  1.0000
  Ge  Ge8       1.0  0.13100  0.52500  0.71200  1.0000
  Ge  Ge9       1.0  0.13100  0.97500  0.71200  1.0000
  Ge  Ge10      1.0  0.63100  0.52500  0.78800  1.0000
  Ge  Ge11      1.0  0.63100  0.97500  0.78800  1.0000
  Ge  Ge12      1.0  0.89300  0.25000  0.92400  1.0000
  H   H1        1.0  0.75200  0.75000  0.03910  1.0000
  H   H2        1.0  0.47500  0.75000  0.04230  1.0000
  H   H3        1.0  0.63200  0.25000  0.24800  1.0000
  H   H4        1.0  0.13200  0.25000  0.25200  1.0000
  H   H5        1.0  0.97500  0.75000  0.45800  1.0000
  H   H6        1.0  0.25200  0.75000  0.46100  1.0000
  H   H7        1.0  0.74800  0.25000  0.53900  1.0000
  H   H8        1.0  0.02500  0.25000  0.54200  1.0000
  H   H9        1.0  0.86800  0.75000  0.74800  1.0000
  H   H10       1.0  0.36800  0.75000  0.75200  1.0000
  H   H11       1.0  0.52500  0.25000  0.95800  1.0000
  H   H12       1.0  0.24800  0.25000  0.96100  1.0000
  Li  Li1       1.0  0.86400  0.75000  0.24500  1.0000
  Li  Li2       1.0  0.36400  0.75000  0.25500  1.0000
  Li  Li3       1.0  0.63600  0.25000  0.74500  1.0000
  Li  Li4       1.0  0.13600  0.25000  0.75500  1.0000
