data_image0
_chemical_formula_structural       Hg4O4Pd4Te4
_chemical_formula_sum              "Hg4 O4 Pd4 Te4"
_cell_length_a       5.82324
_cell_length_b       6.63836
_cell_length_c       8.17457
_cell_angle_alpha    90
_cell_angle_beta     90
_cell_angle_gamma    90

_space_group_name_H-M_alt    "P 1"
_space_group_IT_number       1

loop_
  _space_group_symop_operation_xyz
  'x, y, z'

loop_
  _atom_site_type_symbol
  _atom_site_label
  _atom_site_symmetry_multiplicity
  _atom_site_fract_x
  _atom_site_fract_y
  _atom_site_fract_z
  _atom_site_occupancy
  Hg  Hg1       1.0  0.82400  0.39700  0.01670  1.0000
  Hg  Hg2       1.0  0.17600  0.89700  0.48300  1.0000
  Hg  Hg3       1.0  0.67600  0.60300  0.51700  1.0000
  Hg  Hg4       1.0  0.32400  0.10300  0.98300  1.0000
  O   O1        1.0  0.60500  0.72000  0.24000  1.0000
  O   O2        1.0  0.39500  0.22000  0.26000  1.0000
  O   O3        1.0  0.89500  0.28000  0.74000  1.0000
  O   O4        1.0  0.10500  0.78000  0.76000  1.0000
  Pd  Pd1       1.0  0.24100  0.74600  0.17800  1.0000
  Pd  Pd2       1.0  0.75900  0.24600  0.32200  1.0000
  Pd  Pd3       1.0  0.25900  0.25400  0.67800  1.0000
  Pd  Pd4       1.0  0.74100  0.75400  0.82200  1.0000
  Te  Te1       1.0  0.83000  0.88900  0.12600  1.0000
  Te  Te2       1.0  0.17000  0.38900  0.37400  1.0000
  Te  Te3       1.0  0.67000  0.11100  0.62600  1.0000
  Te  Te4       1.0  0.33000  0.61100  0.87400  1.0000
