data_image0
_chemical_formula_structural       H30Ni2O22P2
_chemical_formula_sum              "H30 Ni2 O22 P2"
_cell_length_a       6.80628
_cell_length_b       5.97631
_cell_length_c       10.8326
_cell_angle_alpha    90
_cell_angle_beta     90
_cell_angle_gamma    90

_space_group_name_H-M_alt    "P 1"
_space_group_IT_number       1

loop_
  _space_group_symop_operation_xyz
  'x, y, z'

loop_
  _atom_site_type_symbol
  _atom_site_label
  _atom_site_symmetry_multiplicity
  _atom_site_fract_x
  _atom_site_fract_y
  _atom_site_fract_z
  _atom_site_occupancy
  H   H1        1.0  0.17700  0.19000  0.02230  1.0000
  H   H2        1.0  0.82300  0.19000  0.02230  1.0000
  H   H3        1.0  0.00000  0.83300  0.03300  1.0000
  H   H4        1.0  0.50000  0.83900  0.06180  1.0000
  H   H5        1.0  0.38200  0.00865  0.21400  1.0000
  H   H6        1.0  0.61800  0.00865  0.21400  1.0000
  H   H7        1.0  0.25800  0.63800  0.22200  1.0000
  H   H8        1.0  0.74200  0.63800  0.22200  1.0000
  H   H9        1.0  0.18300  0.38700  0.23800  1.0000
  H   H10       1.0  0.81700  0.38700  0.23800  1.0000
  H   H11       1.0  0.20600  0.77100  0.39900  1.0000
  H   H12       1.0  0.79400  0.77100  0.39900  1.0000
  H   H13       1.0  0.00000  0.27600  0.42500  1.0000
  H   H14       1.0  0.38300  0.44700  0.47400  1.0000
  H   H15       1.0  0.61700  0.44700  0.47400  1.0000
  H   H16       1.0  0.32300  0.81000  0.52200  1.0000
  H   H17       1.0  0.67700  0.81000  0.52200  1.0000
  H   H18       1.0  0.50000  0.16700  0.53300  1.0000
  H   H19       1.0  0.00000  0.16100  0.56200  1.0000
  H   H20       1.0  0.11800  0.99100  0.71400  1.0000
  H   H21       1.0  0.88200  0.99100  0.71400  1.0000
  H   H22       1.0  0.24200  0.36200  0.72200  1.0000
  H   H23       1.0  0.75800  0.36200  0.72200  1.0000
  H   H24       1.0  0.31700  0.61300  0.73800  1.0000
  H   H25       1.0  0.68300  0.61300  0.73800  1.0000
  H   H26       1.0  0.29400  0.22900  0.89900  1.0000
  H   H27       1.0  0.70600  0.22900  0.89900  1.0000
  H   H28       1.0  0.50000  0.72400  0.92500  1.0000
  H   H29       1.0  0.11700  0.55300  0.97400  1.0000
  H   H30       1.0  0.88300  0.55300  0.97400  1.0000
  Ni  Ni1       1.0  0.50000  0.38600  0.09540  1.0000
  Ni  Ni2       1.0  0.00000  0.61400  0.59500  1.0000
  O   O1        1.0  0.50000  0.69600  0.01530  1.0000
  O   O2        1.0  0.00000  0.01030  0.08060  1.0000
  O   O3        1.0  0.50000  0.05590  0.16400  1.0000
  O   O4        1.0  0.30200  0.48000  0.21900  1.0000
  O   O5        1.0  0.69800  0.48000  0.21900  1.0000
  O   O6        1.0  0.18800  0.88500  0.27000  1.0000
  O   O7        1.0  0.81200  0.88500  0.27000  1.0000
  O   O8        1.0  0.00000  0.24600  0.27300  1.0000
  O   O9        1.0  0.50000  0.34700  0.47600  1.0000
  O   O10       1.0  0.23400  0.70000  0.48200  1.0000
  O   O11       1.0  0.76600  0.70000  0.48200  1.0000
  O   O12       1.0  0.00000  0.30400  0.51500  1.0000
  O   O13       1.0  0.50000  0.99000  0.58100  1.0000
  O   O14       1.0  0.00000  0.94400  0.66400  1.0000
  O   O15       1.0  0.19800  0.52000  0.71900  1.0000
  O   O16       1.0  0.80200  0.52000  0.71900  1.0000
  O   O17       1.0  0.31200  0.11500  0.77000  1.0000
  O   O18       1.0  0.68800  0.11500  0.77000  1.0000
  O   O19       1.0  0.50000  0.75400  0.77300  1.0000
  O   O20       1.0  0.00000  0.65300  0.97600  1.0000
  O   O21       1.0  0.26600  0.30000  0.98200  1.0000
  O   O22       1.0  0.73400  0.30000  0.98200  1.0000
  P   P1        1.0  0.00000  0.00399  0.22700  1.0000
  P   P2        1.0  0.50000  0.99600  0.72700  1.0000
