data_image0
_chemical_formula_structural       Hg4K4O36P12
_chemical_formula_sum              "Hg4 K4 O36 P12"
_cell_length_a       11.0732
_cell_length_b       12.3187
_cell_length_c       5.57534
_cell_angle_alpha    90
_cell_angle_beta     90
_cell_angle_gamma    90

_space_group_name_H-M_alt    "P 1"
_space_group_IT_number       1

loop_
  _space_group_symop_operation_xyz
  'x, y, z'

loop_
  _atom_site_type_symbol
  _atom_site_label
  _atom_site_symmetry_multiplicity
  _atom_site_fract_x
  _atom_site_fract_y
  _atom_site_fract_z
  _atom_site_occupancy
  Hg  Hg1       1.0  0.47900  0.13700  0.09920  1.0000
  Hg  Hg2       1.0  0.52100  0.63700  0.40100  1.0000
  Hg  Hg3       1.0  0.02130  0.86300  0.59900  1.0000
  Hg  Hg4       1.0  0.97900  0.36300  0.90100  1.0000
  K   K1        1.0  0.11600  0.07930  0.09160  1.0000
  K   K2        1.0  0.88400  0.57900  0.40800  1.0000
  K   K3        1.0  0.38400  0.92100  0.59200  1.0000
  K   K4        1.0  0.61600  0.42100  0.90800  1.0000
  O   O1        1.0  0.43700  0.57100  0.01240  1.0000
  O   O2        1.0  0.49200  0.95300  0.02120  1.0000
  O   O3        1.0  0.31600  0.74000  0.07890  1.0000
  O   O4        1.0  0.09100  0.72100  0.08770  1.0000
  O   O5        1.0  0.71500  0.92600  0.09930  1.0000
  O   O6        1.0  0.68900  0.61900  0.13800  1.0000
  O   O7        1.0  0.43800  0.32200  0.14300  1.0000
  O   O8        1.0  0.13700  0.31500  0.14700  1.0000
  O   O9        1.0  0.81000  0.37300  0.17900  1.0000
  O   O10       1.0  0.19000  0.87300  0.32100  1.0000
  O   O11       1.0  0.86300  0.81500  0.35300  1.0000
  O   O12       1.0  0.56200  0.82200  0.35700  1.0000
  O   O13       1.0  0.31100  0.11900  0.36200  1.0000
  O   O14       1.0  0.28500  0.42600  0.40100  1.0000
  O   O15       1.0  0.90900  0.22100  0.41200  1.0000
  O   O16       1.0  0.68400  0.24000  0.42100  1.0000
  O   O17       1.0  0.50800  0.45300  0.47900  1.0000
  O   O18       1.0  0.56300  0.07110  0.48800  1.0000
  O   O19       1.0  0.06330  0.42900  0.51200  1.0000
  O   O20       1.0  0.00827  0.04740  0.52100  1.0000
  O   O21       1.0  0.18400  0.26000  0.57900  1.0000
  O   O22       1.0  0.40900  0.27900  0.58800  1.0000
  O   O23       1.0  0.78500  0.07360  0.59900  1.0000
  O   O24       1.0  0.81100  0.38100  0.63800  1.0000
  O   O25       1.0  0.06170  0.67800  0.64300  1.0000
  O   O26       1.0  0.36300  0.68500  0.64700  1.0000
  O   O27       1.0  0.69000  0.62700  0.67900  1.0000
  O   O28       1.0  0.31000  0.12700  0.82100  1.0000
  O   O29       1.0  0.63700  0.18500  0.85300  1.0000
  O   O30       1.0  0.93800  0.17800  0.85700  1.0000
  O   O31       1.0  0.18900  0.88100  0.86200  1.0000
  O   O32       1.0  0.21500  0.57400  0.90100  1.0000
  O   O33       1.0  0.59100  0.77900  0.91200  1.0000
  O   O34       1.0  0.81600  0.76000  0.92100  1.0000
  O   O35       1.0  0.99200  0.54700  0.97900  1.0000
  O   O36       1.0  0.93700  0.92900  0.98800  1.0000
  P   P1        1.0  0.19500  0.81400  0.08730  1.0000
  P   P2        1.0  0.84200  0.86000  0.10500  1.0000
  P   P3        1.0  0.58200  0.87300  0.11500  1.0000
  P   P4        1.0  0.41800  0.37300  0.38500  1.0000
  P   P5        1.0  0.15800  0.36000  0.39500  1.0000
  P   P6        1.0  0.80500  0.31400  0.41300  1.0000
  P   P7        1.0  0.30500  0.18600  0.58700  1.0000
  P   P8        1.0  0.65800  0.14000  0.60500  1.0000
  P   P9        1.0  0.91800  0.12700  0.61500  1.0000
  P   P10       1.0  0.08250  0.62700  0.88500  1.0000
  P   P11       1.0  0.34200  0.64000  0.89500  1.0000
  P   P12       1.0  0.69500  0.68600  0.91300  1.0000
