data_image0
_chemical_formula_structural       Ce18Cl6Sb32
_chemical_formula_sum              "Ce18 Cl6 Sb32"
_cell_length_a       21.2534
_cell_length_b       21.2529
_cell_length_c       4.33057
_cell_angle_alpha    90
_cell_angle_beta     90
_cell_angle_gamma    120.002

_space_group_name_H-M_alt    "P 1"
_space_group_IT_number       1

loop_
  _space_group_symop_operation_xyz
  'x, y, z'

loop_
  _atom_site_type_symbol
  _atom_site_label
  _atom_site_symmetry_multiplicity
  _atom_site_fract_x
  _atom_site_fract_y
  _atom_site_fract_z
  _atom_site_occupancy
  Ce  Ce1       1.0  0.69100  0.23200  0.25000  1.0000
  Ce  Ce2       1.0  0.14500  0.23800  0.25000  1.0000
  Ce  Ce3       1.0  0.54100  0.30900  0.25000  1.0000
  Ce  Ce4       1.0  0.39200  0.40000  0.25000  1.0000
  Ce  Ce5       1.0  0.76800  0.45900  0.25000  1.0000
  Ce  Ce6       1.0  0.00774  0.60800  0.25000  1.0000
  Ce  Ce7       1.0  0.09380  0.85500  0.25000  1.0000
  Ce  Ce8       1.0  0.76200  0.90600  0.25000  1.0000
  Ce  Ce9       1.0  0.60000  0.99200  0.25000  1.0000
  Ce  Ce10      1.0  0.40000  0.00774  0.75000  1.0000
  Ce  Ce11      1.0  0.23800  0.09380  0.75000  1.0000
  Ce  Ce12      1.0  0.90600  0.14500  0.75000  1.0000
  Ce  Ce13      1.0  0.99200  0.39200  0.75000  1.0000
  Ce  Ce14      1.0  0.23200  0.54100  0.75000  1.0000
  Ce  Ce15      1.0  0.60800  0.60000  0.75000  1.0000
  Ce  Ce16      1.0  0.45900  0.69100  0.75000  1.0000
  Ce  Ce17      1.0  0.85500  0.76200  0.75000  1.0000
  Ce  Ce18      1.0  0.30900  0.76800  0.75000  1.0000
  Cl  Cl1       1.0  0.90100  0.04970  0.25000  1.0000
  Cl  Cl2       1.0  0.14900  0.09900  0.25000  1.0000
  Cl  Cl3       1.0  0.95000  0.85100  0.25000  1.0000
  Cl  Cl4       1.0  0.04970  0.14900  0.75000  1.0000
  Cl  Cl5       1.0  0.85100  0.90100  0.75000  1.0000
  Cl  Cl6       1.0  0.09900  0.95000  0.75000  1.0000
  Sb  Sb1       1.0  0.77500  0.12900  0.25000  1.0000
  Sb  Sb2       1.0  0.50800  0.13700  0.25000  1.0000
  Sb  Sb3       1.0  0.35400  0.22500  0.25000  1.0000
  Sb  Sb4       1.0  0.00691  0.28100  0.25000  1.0000
  Sb  Sb5       1.0  0.86300  0.37100  0.25000  1.0000
  Sb  Sb6       1.0  0.24800  0.42600  0.25000  1.0000
  Sb  Sb7       1.0  0.62900  0.49200  0.25000  1.0000
  Sb  Sb8       1.0  0.10300  0.51500  0.25000  1.0000
  Sb  Sb9       1.0  0.48500  0.58800  0.25000  1.0000
  Sb  Sb10      1.0  0.87100  0.64600  0.25000  1.0000
  Sb  Sb11      1.0  0.33300  0.66700  0.25000  1.0000
  Sb  Sb12      1.0  0.71900  0.72600  0.25000  1.0000
  Sb  Sb13      1.0  0.17700  0.75200  0.25000  1.0000
  Sb  Sb14      1.0  0.57400  0.82300  0.25000  1.0000
  Sb  Sb15      1.0  0.41200  0.89700  0.25000  1.0000
  Sb  Sb16      1.0  0.27400  0.99300  0.25000  1.0000
  Sb  Sb17      1.0  0.72600  0.00690  0.75000  1.0000
  Sb  Sb18      1.0  0.58800  0.10300  0.75000  1.0000
  Sb  Sb19      1.0  0.42600  0.17700  0.75000  1.0000
  Sb  Sb20      1.0  0.82300  0.24800  0.75000  1.0000
  Sb  Sb21      1.0  0.28100  0.27400  0.75000  1.0000
  Sb  Sb22      1.0  0.66700  0.33300  0.75000  1.0000
  Sb  Sb23      1.0  0.12900  0.35400  0.75000  1.0000
  Sb  Sb24      1.0  0.51500  0.41200  0.75000  1.0000
  Sb  Sb25      1.0  0.89700  0.48500  0.75000  1.0000
  Sb  Sb26      1.0  0.37100  0.50800  0.75000  1.0000
  Sb  Sb27      1.0  0.75200  0.57400  0.75000  1.0000
  Sb  Sb28      1.0  0.13700  0.62900  0.75000  1.0000
  Sb  Sb29      1.0  0.99300  0.71900  0.75000  1.0000
  Sb  Sb30      1.0  0.64600  0.77500  0.75000  1.0000
  Sb  Sb31      1.0  0.49200  0.86300  0.75000  1.0000
  Sb  Sb32      1.0  0.22500  0.87100  0.75000  1.0000
