data_image0
_chemical_formula_structural       Al8Mn4O36Si10
_chemical_formula_sum              "Al8 Mn4 O36 Si10"
_cell_length_a       9.20779
_cell_length_b       9.8957
_cell_length_c       10.0022
_cell_angle_alpha    60.3517
_cell_angle_beta     90
_cell_angle_gamma    90

_space_group_name_H-M_alt    "P 1"
_space_group_IT_number       1

loop_
  _space_group_symop_operation_xyz
  'x, y, z'

loop_
  _atom_site_type_symbol
  _atom_site_label
  _atom_site_symmetry_multiplicity
  _atom_site_fract_x
  _atom_site_fract_y
  _atom_site_fract_z
  _atom_site_occupancy
  Al  Al1       1.0  0.50000  0.25600  0.09670  1.0000
  Al  Al2       1.0  0.00000  0.64800  0.09670  1.0000
  Al  Al3       1.0  0.24900  0.00000  0.50000  1.0000
  Al  Al4       1.0  0.75100  0.00000  0.50000  1.0000
  Al  Al5       1.0  0.25100  0.50000  0.50000  1.0000
  Al  Al6       1.0  0.74900  0.50000  0.50000  1.0000
  Al  Al7       1.0  0.00000  0.35200  0.90300  1.0000
  Al  Al8       1.0  0.50000  0.74400  0.90300  1.0000
  Mn  Mn1       1.0  0.25000  0.33700  0.32600  1.0000
  Mn  Mn2       1.0  0.75000  0.33700  0.32600  1.0000
  Mn  Mn3       1.0  0.25000  0.66300  0.67400  1.0000
  Mn  Mn4       1.0  0.75000  0.66300  0.67400  1.0000
  O   O1        1.0  0.00000  0.19900  0.08630  1.0000
  O   O2        1.0  0.50000  0.71500  0.08630  1.0000
  O   O3        1.0  0.34900  0.35300  0.12000  1.0000
  O   O4        1.0  0.65100  0.35300  0.12000  1.0000
  O   O5        1.0  0.15100  0.52700  0.12000  1.0000
  O   O6        1.0  0.84900  0.52700  0.12000  1.0000
  O   O7        1.0  0.50000  0.06470  0.23700  1.0000
  O   O8        1.0  0.00000  0.69800  0.23700  1.0000
  O   O9        1.0  0.50000  0.76100  0.32600  1.0000
  O   O10       1.0  0.00000  0.91300  0.32600  1.0000
  O   O11       1.0  0.14300  0.13200  0.34400  1.0000
  O   O12       1.0  0.85700  0.13200  0.34400  1.0000
  O   O13       1.0  0.35700  0.52400  0.34400  1.0000
  O   O14       1.0  0.64300  0.52400  0.34400  1.0000
  O   O15       1.0  0.14300  0.65200  0.48700  1.0000
  O   O16       1.0  0.85700  0.65200  0.48700  1.0000
  O   O17       1.0  0.35700  0.86200  0.48700  1.0000
  O   O18       1.0  0.64300  0.86200  0.48700  1.0000
  O   O19       1.0  0.35700  0.13800  0.51300  1.0000
  O   O20       1.0  0.64300  0.13800  0.51300  1.0000
  O   O21       1.0  0.14300  0.34800  0.51300  1.0000
  O   O22       1.0  0.85700  0.34800  0.51300  1.0000
  O   O23       1.0  0.35700  0.47600  0.65600  1.0000
  O   O24       1.0  0.64300  0.47600  0.65600  1.0000
  O   O25       1.0  0.14300  0.86800  0.65600  1.0000
  O   O26       1.0  0.85700  0.86800  0.65600  1.0000
  O   O27       1.0  0.00000  0.08690  0.67400  1.0000
  O   O28       1.0  0.50000  0.23900  0.67400  1.0000
  O   O29       1.0  0.00000  0.30200  0.76300  1.0000
  O   O30       1.0  0.50000  0.93500  0.76300  1.0000
  O   O31       1.0  0.15100  0.47300  0.88000  1.0000
  O   O32       1.0  0.84900  0.47300  0.88000  1.0000
  O   O33       1.0  0.34900  0.64700  0.88000  1.0000
  O   O34       1.0  0.65100  0.64700  0.88000  1.0000
  O   O35       1.0  0.50000  0.28500  0.91400  1.0000
  O   O36       1.0  0.00000  0.80100  0.91400  1.0000
  Si  Si1       1.0  0.25000  0.50000  0.00000  1.0000
  Si  Si2       1.0  0.75000  0.50000  0.00000  1.0000
  Si  Si3       1.0  0.00000  0.09740  0.26800  1.0000
  Si  Si4       1.0  0.50000  0.63500  0.26800  1.0000
  Si  Si5       1.0  0.00000  0.73100  0.37700  1.0000
  Si  Si6       1.0  0.50000  0.89100  0.37700  1.0000
  Si  Si7       1.0  0.50000  0.10900  0.62300  1.0000
  Si  Si8       1.0  0.00000  0.26900  0.62300  1.0000
  Si  Si9       1.0  0.50000  0.36500  0.73200  1.0000
  Si  Si10      1.0  0.00000  0.90300  0.73200  1.0000
