data_image0
_chemical_formula_structural       F4H24Na4O22P4
_chemical_formula_sum              "F4 H24 Na4 O22 P4"
_cell_length_a       5.08869
_cell_length_b       9.80139
_cell_length_c       12.0163
_cell_angle_alpha    109.695
_cell_angle_beta     90
_cell_angle_gamma    105.046

_space_group_name_H-M_alt    "P 1"
_space_group_IT_number       1

loop_
  _space_group_symop_operation_xyz
  'x, y, z'

loop_
  _atom_site_type_symbol
  _atom_site_label
  _atom_site_symmetry_multiplicity
  _atom_site_fract_x
  _atom_site_fract_y
  _atom_site_fract_z
  _atom_site_occupancy
  F   F1        1.0  0.76700  0.56500  0.09850  1.0000
  F   F2        1.0  0.20200  0.43500  0.40100  1.0000
  F   F3        1.0  0.79800  0.56500  0.59900  1.0000
  F   F4        1.0  0.23300  0.43500  0.90100  1.0000
  H   H1        1.0  0.46900  0.17100  0.01390  1.0000
  H   H2        1.0  0.88900  0.31600  0.05540  1.0000
  H   H3        1.0  0.24800  0.69300  0.06690  1.0000
  H   H4        1.0  0.24500  0.23000  0.08960  1.0000
  H   H5        1.0  0.24300  0.52700  0.18600  1.0000
  H   H6        1.0  0.52300  0.91800  0.24300  1.0000
  H   H7        1.0  0.60500  0.08240  0.25700  1.0000
  H   H8        1.0  0.71600  0.47300  0.31400  1.0000
  H   H9        1.0  0.01520  0.77000  0.41000  1.0000
  H   H10       1.0  0.55500  0.30700  0.43300  1.0000
  H   H11       1.0  0.57300  0.68400  0.44500  1.0000
  H   H12       1.0  0.29800  0.82900  0.48600  1.0000
  H   H13       1.0  0.70200  0.17100  0.51400  1.0000
  H   H14       1.0  0.42700  0.31600  0.55500  1.0000
  H   H15       1.0  0.44500  0.69300  0.56700  1.0000
  H   H16       1.0  0.98500  0.23000  0.59000  1.0000
  H   H17       1.0  0.28400  0.52700  0.68600  1.0000
  H   H18       1.0  0.39500  0.91800  0.74300  1.0000
  H   H19       1.0  0.47700  0.08240  0.75700  1.0000
  H   H20       1.0  0.75700  0.47300  0.81400  1.0000
  H   H21       1.0  0.75500  0.77000  0.91000  1.0000
  H   H22       1.0  0.75200  0.30700  0.93300  1.0000
  H   H23       1.0  0.11100  0.68400  0.94500  1.0000
  H   H24       1.0  0.53100  0.82900  0.98600  1.0000
  Na  Na1       1.0  0.07150  0.96000  0.11800  1.0000
  Na  Na2       1.0  0.11100  0.03950  0.38200  1.0000
  Na  Na3       1.0  0.88900  0.96000  0.61800  1.0000
  Na  Na4       1.0  0.92900  0.03950  0.88200  1.0000
  O   O1        1.0  0.22800  0.75300  0.01770  1.0000
  O   O2        1.0  0.28000  0.13700  0.03610  1.0000
  O   O3        1.0  0.35400  0.63200  0.18100  1.0000
  O   O4        1.0  0.11200  0.38200  0.18600  1.0000
  O   O5        1.0  0.80200  0.83100  0.23000  1.0000
  O   O6        1.0  0.43900  0.00000  0.25000  1.0000
  O   O7        1.0  0.97100  0.16900  0.27000  1.0000
  O   O8        1.0  0.73000  0.61800  0.31400  1.0000
  O   O9        1.0  0.72200  0.36800  0.31900  1.0000
  O   O10       1.0  0.14300  0.86300  0.46400  1.0000
  O   O11       1.0  0.47500  0.24700  0.48200  1.0000
  O   O12       1.0  0.52500  0.75300  0.51800  1.0000
  O   O13       1.0  0.85700  0.13700  0.53600  1.0000
  O   O14       1.0  0.27800  0.63200  0.68100  1.0000
  O   O15       1.0  0.27000  0.38200  0.68600  1.0000
  O   O16       1.0  0.02940  0.83100  0.73000  1.0000
  O   O17       1.0  0.56100  0.00000  0.75000  1.0000
  O   O18       1.0  0.19800  0.16900  0.77000  1.0000
  O   O19       1.0  0.88800  0.61800  0.81400  1.0000
  O   O20       1.0  0.64600  0.36800  0.81900  1.0000
  O   O21       1.0  0.72000  0.86300  0.96400  1.0000
  O   O22       1.0  0.77200  0.24700  0.98200  1.0000
  P   P1        1.0  0.66900  0.67000  0.21300  1.0000
  P   P2        1.0  0.99900  0.33000  0.28700  1.0000
  P   P3        1.0  0.00105  0.67000  0.71300  1.0000
  P   P4        1.0  0.33100  0.33000  0.78700  1.0000
