data_image0
_chemical_formula_structural       H4Mg2Mo2O10
_chemical_formula_sum              "H4 Mg2 Mo2 O10"
_cell_length_a       5.56985
_cell_length_b       5.7901
_cell_length_c       6.82238
_cell_angle_alpha    101.037
_cell_angle_beta     95.1878
_cell_angle_gamma    105.985

_space_group_name_H-M_alt    "P 1"
_space_group_IT_number       1

loop_
  _space_group_symop_operation_xyz
  'x, y, z'

loop_
  _atom_site_type_symbol
  _atom_site_label
  _atom_site_symmetry_multiplicity
  _atom_site_fract_x
  _atom_site_fract_y
  _atom_site_fract_z
  _atom_site_occupancy
  H   H1        1.0  0.07920  0.59300  0.19100  1.0000
  H   H2        1.0  0.87200  0.34900  0.20600  1.0000
  H   H3        1.0  0.12800  0.65100  0.79400  1.0000
  H   H4        1.0  0.92100  0.40700  0.80900  1.0000
  Mg  Mg1       1.0  0.64100  0.70600  0.19400  1.0000
  Mg  Mg2       1.0  0.35900  0.29400  0.80600  1.0000
  Mo  Mo1       1.0  0.25300  0.12000  0.25200  1.0000
  Mo  Mo2       1.0  0.74700  0.88000  0.74800  1.0000
  O   O1        1.0  0.37600  0.36100  0.12100  1.0000
  O   O2        1.0  0.34800  0.85400  0.16200  1.0000
  O   O3        1.0  0.91400  0.03730  0.21600  1.0000
  O   O4        1.0  0.91100  0.53000  0.22900  1.0000
  O   O5        1.0  0.62600  0.76600  0.49100  1.0000
  O   O6        1.0  0.37400  0.23400  0.50900  1.0000
  O   O7        1.0  0.08850  0.47000  0.77100  1.0000
  O   O8        1.0  0.08570  0.96300  0.78400  1.0000
  O   O9        1.0  0.65200  0.14600  0.83800  1.0000
  O   O10       1.0  0.62400  0.63900  0.87900  1.0000
