data_image0
_chemical_formula_structural       As8Cu6H4K8O32
_chemical_formula_sum              "As8 Cu6 H4 K8 O32"
_cell_length_a       9.36715
_cell_length_b       9.95426
_cell_length_c       9.6603
_cell_angle_alpha    90
_cell_angle_beta     118.45
_cell_angle_gamma    90

_space_group_name_H-M_alt    "P 1"
_space_group_IT_number       1

loop_
  _space_group_symop_operation_xyz
  'x, y, z'

loop_
  _atom_site_type_symbol
  _atom_site_label
  _atom_site_symmetry_multiplicity
  _atom_site_fract_x
  _atom_site_fract_y
  _atom_site_fract_z
  _atom_site_occupancy
  As  As1       1.0  0.39800  0.79200  0.04580  1.0000
  As  As2       1.0  0.81500  0.67000  0.19200  1.0000
  As  As3       1.0  0.18500  0.17000  0.30800  1.0000
  As  As4       1.0  0.60200  0.29200  0.45400  1.0000
  As  As5       1.0  0.39800  0.70800  0.54600  1.0000
  As  As6       1.0  0.81500  0.83000  0.69200  1.0000
  As  As7       1.0  0.18500  0.33000  0.80800  1.0000
  As  As8       1.0  0.60200  0.20800  0.95400  1.0000
  Cu  Cu1       1.0  0.50000  0.50000  0.00000  1.0000
  Cu  Cu2       1.0  0.38300  0.15700  0.12000  1.0000
  Cu  Cu3       1.0  0.61700  0.65700  0.38000  1.0000
  Cu  Cu4       1.0  0.50000  0.00000  0.50000  1.0000
  Cu  Cu5       1.0  0.38300  0.34300  0.62000  1.0000
  Cu  Cu6       1.0  0.61700  0.84300  0.88000  1.0000
  H   H1        1.0  0.88400  0.20000  0.12400  1.0000
  H   H2        1.0  0.11600  0.70000  0.37600  1.0000
  H   H3        1.0  0.88400  0.30000  0.62400  1.0000
  H   H4        1.0  0.11600  0.80000  0.87600  1.0000
  K   K1        1.0  0.09820  0.87800  0.16200  1.0000
  K   K2        1.0  0.23200  0.50600  0.17200  1.0000
  K   K3        1.0  0.76800  0.00626  0.32800  1.0000
  K   K4        1.0  0.90200  0.37800  0.33800  1.0000
  K   K5        1.0  0.09820  0.62200  0.66200  1.0000
  K   K6        1.0  0.23200  0.99400  0.67200  1.0000
  K   K7        1.0  0.76800  0.49400  0.82800  1.0000
  K   K8        1.0  0.90200  0.12200  0.83800  1.0000
  O   O1        1.0  0.80500  0.25400  0.01660  1.0000
  O   O2        1.0  0.71900  0.53600  0.06910  1.0000
  O   O3        1.0  0.74900  0.82700  0.11200  1.0000
  O   O4        1.0  0.58900  0.20000  0.12600  1.0000
  O   O5        1.0  0.17900  0.15800  0.12600  1.0000
  O   O6        1.0  0.50300  0.64500  0.14700  1.0000
  O   O7        1.0  0.44600  0.92800  0.16200  1.0000
  O   O8        1.0  0.01270  0.64100  0.23300  1.0000
  O   O9        1.0  0.98700  0.14100  0.26700  1.0000
  O   O10       1.0  0.55400  0.42800  0.33800  1.0000
  O   O11       1.0  0.49700  0.14500  0.35300  1.0000
  O   O12       1.0  0.82100  0.65800  0.37400  1.0000
  O   O13       1.0  0.41100  0.70000  0.37400  1.0000
  O   O14       1.0  0.25100  0.32700  0.38800  1.0000
  O   O15       1.0  0.28100  0.03590  0.43100  1.0000
  O   O16       1.0  0.19500  0.75400  0.48300  1.0000
  O   O17       1.0  0.80500  0.24600  0.51700  1.0000
  O   O18       1.0  0.71900  0.96400  0.56900  1.0000
  O   O19       1.0  0.74900  0.67300  0.61200  1.0000
  O   O20       1.0  0.58900  0.30000  0.62600  1.0000
  O   O21       1.0  0.17900  0.34200  0.62600  1.0000
  O   O22       1.0  0.50300  0.85500  0.64700  1.0000
  O   O23       1.0  0.44600  0.57200  0.66200  1.0000
  O   O24       1.0  0.01270  0.85900  0.73300  1.0000
  O   O25       1.0  0.98700  0.35900  0.76700  1.0000
  O   O26       1.0  0.55400  0.07230  0.83800  1.0000
  O   O27       1.0  0.49700  0.35500  0.85300  1.0000
  O   O28       1.0  0.82100  0.84200  0.87400  1.0000
  O   O29       1.0  0.41100  0.80000  0.87400  1.0000
  O   O30       1.0  0.25100  0.17300  0.88800  1.0000
  O   O31       1.0  0.28100  0.46400  0.93100  1.0000
  O   O32       1.0  0.19500  0.74600  0.98300  1.0000
