data_image0
_chemical_formula_structural       Ge4H16K16N8O12
_chemical_formula_sum              "Ge4 H16 K16 N8 O12"
_cell_length_a       10.8344
_cell_length_b       6.38275
_cell_length_c       12.1188
_cell_angle_alpha    90
_cell_angle_beta     105.855
_cell_angle_gamma    90

_space_group_name_H-M_alt    "P 1"
_space_group_IT_number       1

loop_
  _space_group_symop_operation_xyz
  'x, y, z'

loop_
  _atom_site_type_symbol
  _atom_site_label
  _atom_site_symmetry_multiplicity
  _atom_site_fract_x
  _atom_site_fract_y
  _atom_site_fract_z
  _atom_site_occupancy
  Ge  Ge1       1.0  0.30000  0.19500  0.09950  1.0000
  Ge  Ge2       1.0  0.70000  0.69500  0.40000  1.0000
  Ge  Ge3       1.0  0.30000  0.30500  0.60000  1.0000
  Ge  Ge4       1.0  0.70000  0.80500  0.90000  1.0000
  H   H1        1.0  0.89200  0.94700  0.04200  1.0000
  H   H2        1.0  0.06500  0.17900  0.05960  1.0000
  H   H3        1.0  0.98500  0.30700  0.17700  1.0000
  H   H4        1.0  0.93400  0.07890  0.20000  1.0000
  H   H5        1.0  0.06580  0.57900  0.30000  1.0000
  H   H6        1.0  0.01500  0.80700  0.32300  1.0000
  H   H7        1.0  0.93500  0.67900  0.44000  1.0000
  H   H8        1.0  0.10800  0.44700  0.45800  1.0000
  H   H9        1.0  0.89200  0.55300  0.54200  1.0000
  H   H10       1.0  0.06500  0.32100  0.56000  1.0000
  H   H11       1.0  0.98500  0.19300  0.67700  1.0000
  H   H12       1.0  0.93400  0.42100  0.70000  1.0000
  H   H13       1.0  0.06580  0.92100  0.80000  1.0000
  H   H14       1.0  0.01500  0.69300  0.82300  1.0000
  H   H15       1.0  0.93500  0.82100  0.94000  1.0000
  H   H16       1.0  0.10800  0.05320  0.95800  1.0000
  K   K1        1.0  0.14600  0.68500  0.09850  1.0000
  K   K2        1.0  0.63700  0.10800  0.11200  1.0000
  K   K3        1.0  0.48600  0.62100  0.14800  1.0000
  K   K4        1.0  0.80400  0.61200  0.17500  1.0000
  K   K5        1.0  0.19600  0.11200  0.32500  1.0000
  K   K6        1.0  0.51400  0.12100  0.35200  1.0000
  K   K7        1.0  0.36300  0.60800  0.38800  1.0000
  K   K8        1.0  0.85400  0.18500  0.40100  1.0000
  K   K9        1.0  0.14600  0.81500  0.59900  1.0000
  K   K10       1.0  0.63700  0.39200  0.61200  1.0000
  K   K11       1.0  0.48600  0.87900  0.64800  1.0000
  K   K12       1.0  0.80400  0.88800  0.67500  1.0000
  K   K13       1.0  0.19600  0.38800  0.82500  1.0000
  K   K14       1.0  0.51400  0.37900  0.85200  1.0000
  K   K15       1.0  0.36300  0.89200  0.88800  1.0000
  K   K16       1.0  0.85400  0.31500  0.90100  1.0000
  N   N1        1.0  0.12300  0.19100  0.00532  1.0000
  N   N2        1.0  0.90200  0.21800  0.15900  1.0000
  N   N3        1.0  0.09790  0.71800  0.34100  1.0000
  N   N4        1.0  0.87700  0.69100  0.49500  1.0000
  N   N5        1.0  0.12300  0.30900  0.50500  1.0000
  N   N6        1.0  0.90200  0.28200  0.65900  1.0000
  N   N7        1.0  0.09790  0.78200  0.84100  1.0000
  N   N8        1.0  0.87700  0.80900  0.99500  1.0000
  O   O1        1.0  0.39300  0.27000  0.00721  1.0000
  O   O2        1.0  0.34100  0.94500  0.16200  1.0000
  O   O3        1.0  0.30000  0.38300  0.20600  1.0000
  O   O4        1.0  0.70000  0.88300  0.29400  1.0000
  O   O5        1.0  0.65900  0.44500  0.33800  1.0000
  O   O6        1.0  0.60700  0.77000  0.49300  1.0000
  O   O7        1.0  0.39300  0.23000  0.50700  1.0000
  O   O8        1.0  0.34100  0.55500  0.66200  1.0000
  O   O9        1.0  0.30000  0.11700  0.70600  1.0000
  O   O10       1.0  0.70000  0.61700  0.79400  1.0000
  O   O11       1.0  0.65900  0.05500  0.83800  1.0000
  O   O12       1.0  0.60700  0.73000  0.99300  1.0000
