data_image0
_chemical_formula_structural       As8K8O36U4
_chemical_formula_sum              "As8 K8 O36 U4"
_cell_length_a       13.3107
_cell_length_b       12.7361
_cell_length_c       5.3659
_cell_angle_alpha    90
_cell_angle_beta     90
_cell_angle_gamma    90

_space_group_name_H-M_alt    "P 1"
_space_group_IT_number       1

loop_
  _space_group_symop_operation_xyz
  'x, y, z'

loop_
  _atom_site_type_symbol
  _atom_site_label
  _atom_site_symmetry_multiplicity
  _atom_site_fract_x
  _atom_site_fract_y
  _atom_site_fract_z
  _atom_site_occupancy
  As  As1       1.0  0.75000  0.12200  0.01370  1.0000
  As  As2       1.0  0.75000  0.37800  0.01370  1.0000
  As  As3       1.0  0.12900  0.25000  0.02930  1.0000
  As  As4       1.0  0.37100  0.25000  0.02930  1.0000
  As  As5       1.0  0.62900  0.75000  0.97100  1.0000
  As  As6       1.0  0.87100  0.75000  0.97100  1.0000
  As  As7       1.0  0.25000  0.62200  0.98600  1.0000
  As  As8       1.0  0.25000  0.87800  0.98600  1.0000
  K   K1        1.0  0.75000  0.57900  0.48700  1.0000
  K   K2        1.0  0.75000  0.92100  0.48700  1.0000
  K   K3        1.0  0.57900  0.25000  0.49100  1.0000
  K   K4        1.0  0.92100  0.25000  0.49100  1.0000
  K   K5        1.0  0.07940  0.75000  0.50900  1.0000
  K   K6        1.0  0.42100  0.75000  0.50900  1.0000
  K   K7        1.0  0.25000  0.07950  0.51300  1.0000
  K   K8        1.0  0.25000  0.42100  0.51300  1.0000
  O   O1        1.0  0.75000  0.25000  0.15700  1.0000
  O   O2        1.0  0.64900  0.06480  0.15900  1.0000
  O   O3        1.0  0.85100  0.06480  0.15900  1.0000
  O   O4        1.0  0.64900  0.43500  0.15900  1.0000
  O   O5        1.0  0.85100  0.43500  0.15900  1.0000
  O   O6        1.0  0.25000  0.25000  0.17500  1.0000
  O   O7        1.0  0.07910  0.14200  0.17600  1.0000
  O   O8        1.0  0.42100  0.14200  0.17600  1.0000
  O   O9        1.0  0.07910  0.35800  0.17600  1.0000
  O   O10       1.0  0.42100  0.35800  0.17600  1.0000
  O   O11       1.0  0.63400  0.75000  0.28000  1.0000
  O   O12       1.0  0.86600  0.75000  0.28000  1.0000
  O   O13       1.0  0.01980  0.57100  0.28500  1.0000
  O   O14       1.0  0.48000  0.57100  0.28500  1.0000
  O   O15       1.0  0.01980  0.92900  0.28500  1.0000
  O   O16       1.0  0.48000  0.92900  0.28500  1.0000
  O   O17       1.0  0.25000  0.62600  0.29600  1.0000
  O   O18       1.0  0.25000  0.87400  0.29600  1.0000
  O   O19       1.0  0.75000  0.12600  0.70400  1.0000
  O   O20       1.0  0.75000  0.37400  0.70400  1.0000
  O   O21       1.0  0.52000  0.07100  0.71500  1.0000
  O   O22       1.0  0.98000  0.07100  0.71500  1.0000
  O   O23       1.0  0.52000  0.42900  0.71500  1.0000
  O   O24       1.0  0.98000  0.42900  0.71500  1.0000
  O   O25       1.0  0.13400  0.25000  0.72000  1.0000
  O   O26       1.0  0.36600  0.25000  0.72000  1.0000
  O   O27       1.0  0.57900  0.64200  0.82400  1.0000
  O   O28       1.0  0.92100  0.64200  0.82400  1.0000
  O   O29       1.0  0.57900  0.85800  0.82400  1.0000
  O   O30       1.0  0.92100  0.85800  0.82400  1.0000
  O   O31       1.0  0.75000  0.75000  0.82500  1.0000
  O   O32       1.0  0.14900  0.56500  0.84100  1.0000
  O   O33       1.0  0.35100  0.56500  0.84100  1.0000
  O   O34       1.0  0.14900  0.93500  0.84100  1.0000
  O   O35       1.0  0.35100  0.93500  0.84100  1.0000
  O   O36       1.0  0.25000  0.75000  0.84300  1.0000
  U   U1        1.0  0.00000  0.00000  0.00000  1.0000
  U   U2        1.0  0.50000  0.00000  0.00000  1.0000
  U   U3        1.0  0.00000  0.50000  0.00000  1.0000
  U   U4        1.0  0.50000  0.50000  0.00000  1.0000
