data_image0
_chemical_formula_structural       As4F40H8Tl4
_chemical_formula_sum              "As4 F40 H8 Tl4"
_cell_length_a       5.27968
_cell_length_b       5.39764
_cell_length_c       21.0595
_cell_angle_alpha    90
_cell_angle_beta     94.0891
_cell_angle_gamma    90

_space_group_name_H-M_alt    "P 1"
_space_group_IT_number       1

loop_
  _space_group_symop_operation_xyz
  'x, y, z'

loop_
  _atom_site_type_symbol
  _atom_site_label
  _atom_site_symmetry_multiplicity
  _atom_site_fract_x
  _atom_site_fract_y
  _atom_site_fract_z
  _atom_site_occupancy
  As  As1       1.0  0.50600  0.28500  0.09570  1.0000
  As  As2       1.0  0.49400  0.78500  0.40400  1.0000
  As  As3       1.0  0.50600  0.21500  0.59600  1.0000
  As  As4       1.0  0.49400  0.71500  0.90400  1.0000
  F   F1        1.0  0.24700  0.18600  0.04100  1.0000
  F   F2        1.0  0.02920  0.66300  0.04400  1.0000
  F   F3        1.0  0.71800  0.14700  0.04810  1.0000
  F   F4        1.0  0.53200  0.57300  0.06110  1.0000
  F   F5        1.0  0.46200  0.98200  0.13200  1.0000
  F   F6        1.0  0.94900  0.85300  0.13800  1.0000
  F   F7        1.0  0.27500  0.39500  0.14500  1.0000
  F   F8        1.0  0.74900  0.34600  0.15500  1.0000
  F   F9        1.0  0.58700  0.70000  0.23200  1.0000
  F   F10       1.0  0.09330  0.54300  0.24700  1.0000
  F   F11       1.0  0.90700  0.04340  0.25300  1.0000
  F   F12       1.0  0.41300  0.20000  0.26800  1.0000
  F   F13       1.0  0.25100  0.84600  0.34500  1.0000
  F   F14       1.0  0.72500  0.89500  0.35500  1.0000
  F   F15       1.0  0.05090  0.35300  0.36200  1.0000
  F   F16       1.0  0.53800  0.48200  0.36800  1.0000
  F   F17       1.0  0.46800  0.07310  0.43900  1.0000
  F   F18       1.0  0.28200  0.64700  0.45200  1.0000
  F   F19       1.0  0.97100  0.16300  0.45600  1.0000
  F   F20       1.0  0.75300  0.68600  0.45900  1.0000
  F   F21       1.0  0.24700  0.31400  0.54100  1.0000
  F   F22       1.0  0.02920  0.83700  0.54400  1.0000
  F   F23       1.0  0.71800  0.35300  0.54800  1.0000
  F   F24       1.0  0.53200  0.92700  0.56100  1.0000
  F   F25       1.0  0.46200  0.51800  0.63200  1.0000
  F   F26       1.0  0.94900  0.64700  0.63800  1.0000
  F   F27       1.0  0.27500  0.10500  0.64500  1.0000
  F   F28       1.0  0.74900  0.15400  0.65500  1.0000
  F   F29       1.0  0.58700  0.80000  0.73200  1.0000
  F   F30       1.0  0.09330  0.95700  0.74700  1.0000
  F   F31       1.0  0.90700  0.45700  0.75300  1.0000
  F   F32       1.0  0.41300  0.30000  0.76800  1.0000
  F   F33       1.0  0.25100  0.65400  0.84500  1.0000
  F   F34       1.0  0.72500  0.60500  0.85500  1.0000
  F   F35       1.0  0.05090  0.14700  0.86200  1.0000
  F   F36       1.0  0.53800  0.01840  0.86800  1.0000
  F   F37       1.0  0.46800  0.42700  0.93900  1.0000
  F   F38       1.0  0.28200  0.85300  0.95200  1.0000
  F   F39       1.0  0.97100  0.33700  0.95600  1.0000
  F   F40       1.0  0.75300  0.81400  0.95900  1.0000
  H   H1        1.0  0.90600  0.71500  0.00811  1.0000
  H   H2        1.0  0.98600  0.76700  0.09560  1.0000
  H   H3        1.0  0.01360  0.26700  0.40400  1.0000
  H   H4        1.0  0.09430  0.21500  0.49200  1.0000
  H   H5        1.0  0.90600  0.78500  0.50800  1.0000
  H   H6        1.0  0.98600  0.73300  0.59600  1.0000
  H   H7        1.0  0.01360  0.23300  0.90400  1.0000
  H   H8        1.0  0.09430  0.28500  0.99200  1.0000
  Tl  Tl1       1.0  0.23800  0.89300  0.21800  1.0000
  Tl  Tl2       1.0  0.76200  0.39300  0.28200  1.0000
  Tl  Tl3       1.0  0.23800  0.60700  0.71800  1.0000
  Tl  Tl4       1.0  0.76200  0.10700  0.78200  1.0000
