data_image0
_chemical_formula_structural       H32Mg2N2O20P2
_chemical_formula_sum              "H32 Mg2 N2 O20 P2"
_cell_length_a       6.82048
_cell_length_b       5.97267
_cell_length_c       10.9807
_cell_angle_alpha    90
_cell_angle_beta     90
_cell_angle_gamma    90

_space_group_name_H-M_alt    "P 1"
_space_group_IT_number       1

loop_
  _space_group_symop_operation_xyz
  'x, y, z'

loop_
  _atom_site_type_symbol
  _atom_site_label
  _atom_site_symmetry_multiplicity
  _atom_site_fract_x
  _atom_site_fract_y
  _atom_site_fract_z
  _atom_site_occupancy
  H   H1        1.0  0.38100  0.00055  0.00695  1.0000
  H   H2        1.0  0.61900  0.00055  0.00695  1.0000
  H   H3        1.0  0.50000  0.84100  0.16300  1.0000
  H   H4        1.0  0.17600  0.17300  0.19900  1.0000
  H   H5        1.0  0.82400  0.17300  0.19900  1.0000
  H   H6        1.0  0.00000  0.77600  0.22200  1.0000
  H   H7        1.0  0.12300  0.52700  0.25100  1.0000
  H   H8        1.0  0.87700  0.52700  0.25100  1.0000
  H   H9        1.0  0.50000  0.73100  0.29800  1.0000
  H   H10       1.0  0.29800  0.20600  0.32300  1.0000
  H   H11       1.0  0.70200  0.20600  0.32300  1.0000
  H   H12       1.0  0.00000  0.64900  0.36400  1.0000
  H   H13       1.0  0.32200  0.61000  0.48400  1.0000
  H   H14       1.0  0.67800  0.61000  0.48400  1.0000
  H   H15       1.0  0.24600  0.35800  0.49700  1.0000
  H   H16       1.0  0.75400  0.35800  0.49700  1.0000
  H   H17       1.0  0.11900  0.99900  0.50700  1.0000
  H   H18       1.0  0.88100  0.99900  0.50700  1.0000
  H   H19       1.0  0.00000  0.15900  0.66300  1.0000
  H   H20       1.0  0.32400  0.82700  0.69900  1.0000
  H   H21       1.0  0.67600  0.82700  0.69900  1.0000
  H   H22       1.0  0.50000  0.22400  0.72200  1.0000
  H   H23       1.0  0.37700  0.47300  0.75100  1.0000
  H   H24       1.0  0.62300  0.47300  0.75100  1.0000
  H   H25       1.0  0.00000  0.26900  0.79800  1.0000
  H   H26       1.0  0.20200  0.79400  0.82300  1.0000
  H   H27       1.0  0.79800  0.79400  0.82300  1.0000
  H   H28       1.0  0.50000  0.35100  0.86400  1.0000
  H   H29       1.0  0.17800  0.39000  0.98400  1.0000
  H   H30       1.0  0.82200  0.39000  0.98400  1.0000
  H   H31       1.0  0.25400  0.64200  0.99700  1.0000
  H   H32       1.0  0.74600  0.64200  0.99700  1.0000
  Mg  Mg1       1.0  0.50000  0.38400  0.13000  1.0000
  Mg  Mg2       1.0  0.00000  0.61600  0.63000  1.0000
  N   N1        1.0  0.00000  0.62500  0.27100  1.0000
  N   N2        1.0  0.50000  0.37500  0.77100  1.0000
  O   O1        1.0  0.29500  0.48300  0.00873  1.0000
  O   O2        1.0  0.70500  0.48300  0.00873  1.0000
  O   O3        1.0  0.50000  0.06130  0.05030  1.0000
  O   O4        1.0  0.00000  0.02420  0.14100  1.0000
  O   O5        1.0  0.50000  0.69800  0.20800  1.0000
  O   O6        1.0  0.27500  0.27400  0.24000  1.0000
  O   O7        1.0  0.72500  0.27400  0.24000  1.0000
  O   O8        1.0  0.50000  0.75200  0.44400  1.0000
  O   O9        1.0  0.31300  0.11300  0.45600  1.0000
  O   O10       1.0  0.68700  0.11300  0.45600  1.0000
  O   O11       1.0  0.20500  0.51700  0.50900  1.0000
  O   O12       1.0  0.79500  0.51700  0.50900  1.0000
  O   O13       1.0  0.00000  0.93900  0.55000  1.0000
  O   O14       1.0  0.50000  0.97600  0.64100  1.0000
  O   O15       1.0  0.00000  0.30200  0.70800  1.0000
  O   O16       1.0  0.22500  0.72600  0.74000  1.0000
  O   O17       1.0  0.77500  0.72600  0.74000  1.0000
  O   O18       1.0  0.00000  0.24800  0.94400  1.0000
  O   O19       1.0  0.18700  0.88700  0.95600  1.0000
  O   O20       1.0  0.81300  0.88700  0.95600  1.0000
  P   P1        1.0  0.00000  0.00917  0.00000  1.0000
  P   P2        1.0  0.50000  0.99100  0.50000  1.0000
