data_image0
_chemical_formula_structural       HMg16O32Si7
_chemical_formula_sum              "H1 Mg16 O32 Si7"
_cell_length_a       8.29018
_cell_length_b       11.646
_cell_length_c       5.70363
_cell_angle_alpha    89.8748
_cell_angle_beta     90.2469
_cell_angle_gamma    89.6222

_space_group_name_H-M_alt    "P 1"
_space_group_IT_number       1

loop_
  _space_group_symop_operation_xyz
  'x, y, z'

loop_
  _atom_site_type_symbol
  _atom_site_label
  _atom_site_symmetry_multiplicity
  _atom_site_fract_x
  _atom_site_fract_y
  _atom_site_fract_z
  _atom_site_occupancy
  H   H1        1.0  0.37500  0.20500  0.17800  1.0000
  Mg  Mg1       1.0  0.50700  0.87800  0.00118  1.0000
  Mg  Mg2       1.0  0.99400  0.37700  0.00312  1.0000
  Mg  Mg3       1.0  0.70900  0.50500  0.24900  1.0000
  Mg  Mg4       1.0  0.75300  0.75300  0.25000  1.0000
  Mg  Mg5       1.0  0.75600  0.24800  0.25100  1.0000
  Mg  Mg6       1.0  0.78300  0.99900  0.25300  1.0000
  Mg  Mg7       1.0  0.50700  0.87900  0.49600  1.0000
  Mg  Mg8       1.0  0.99300  0.37800  0.50000  1.0000
  Mg  Mg9       1.0  0.50200  0.11900  0.50200  1.0000
  Mg  Mg10      1.0  0.99400  0.62000  0.51000  1.0000
  Mg  Mg11      1.0  0.25000  0.76700  0.75100  1.0000
  Mg  Mg12      1.0  0.24400  0.24700  0.75300  1.0000
  Mg  Mg13      1.0  0.30600  0.47800  0.75300  1.0000
  Mg  Mg14      1.0  0.22400  0.00187  0.75300  1.0000
  Mg  Mg15      1.0  0.52300  0.11400  0.97700  1.0000
  Mg  Mg16      1.0  0.99400  0.62100  0.99200  1.0000
  O   O1        1.0  0.24700  0.87800  0.01080  1.0000
  O   O2        1.0  0.24700  0.37000  0.01300  1.0000
  O   O3        1.0  0.25100  0.13000  0.02670  1.0000
  O   O4        1.0  0.53700  0.00848  0.24600  1.0000
  O   O5        1.0  0.46800  0.25100  0.24600  1.0000
  O   O6        1.0  0.51900  0.76600  0.25000  1.0000
  O   O7        1.0  0.03460  0.99800  0.25000  1.0000
  O   O8        1.0  0.01840  0.75500  0.25100  1.0000
  O   O9        1.0  0.96700  0.50000  0.25100  1.0000
  O   O10       1.0  0.00375  0.23700  0.25400  1.0000
  O   O11       1.0  0.47600  0.48700  0.25600  1.0000
  O   O12       1.0  0.24700  0.87800  0.49100  1.0000
  O   O13       1.0  0.24600  0.37000  0.49400  1.0000
  O   O14       1.0  0.24200  0.12600  0.49800  1.0000
  O   O15       1.0  0.74100  0.36600  0.50600  1.0000
  O   O16       1.0  0.76400  0.87900  0.50900  1.0000
  O   O17       1.0  0.74300  0.63000  0.51100  1.0000
  O   O18       1.0  0.75700  0.12800  0.51300  1.0000
  O   O19       1.0  0.23000  0.61900  0.61400  1.0000
  O   O20       1.0  0.47000  0.99900  0.74600  1.0000
  O   O21       1.0  0.50700  0.74400  0.74900  1.0000
  O   O22       1.0  0.97400  0.00341  0.75000  1.0000
  O   O23       1.0  0.50400  0.26100  0.75100  1.0000
  O   O24       1.0  0.99400  0.76500  0.75100  1.0000
  O   O25       1.0  0.99500  0.49100  0.75100  1.0000
  O   O26       1.0  0.54300  0.49900  0.75200  1.0000
  O   O27       1.0  0.99700  0.23900  0.75300  1.0000
  O   O28       1.0  0.23100  0.61900  0.89000  1.0000
  O   O29       1.0  0.74400  0.63100  0.99000  1.0000
  O   O30       1.0  0.76400  0.88000  0.99100  1.0000
  O   O31       1.0  0.76300  0.12700  0.99100  1.0000
  O   O32       1.0  0.74200  0.36600  0.99600  1.0000
  Si  Si1       1.0  0.14000  0.86700  0.25100  1.0000
  Si  Si2       1.0  0.35600  0.38400  0.25500  1.0000
  Si  Si3       1.0  0.12900  0.12700  0.25900  1.0000
  Si  Si4       1.0  0.87200  0.13000  0.75000  1.0000
  Si  Si5       1.0  0.63200  0.63300  0.75000  1.0000
  Si  Si6       1.0  0.63700  0.36900  0.75100  1.0000
  Si  Si7       1.0  0.87100  0.87400  0.75100  1.0000
