data_image0
_chemical_formula_structural       Ga16Na4Nd4Se32
_chemical_formula_sum              "Ga16 Na4 Nd4 Se32"
_cell_length_a       12.4386
_cell_length_b       12.4386
_cell_length_c       12.4368
_cell_angle_alpha    105.435
_cell_angle_beta     105.435
_cell_angle_gamma    117.891

_space_group_name_H-M_alt    "P 1"
_space_group_IT_number       1

loop_
  _space_group_symop_operation_xyz
  'x, y, z'

loop_
  _atom_site_type_symbol
  _atom_site_label
  _atom_site_symmetry_multiplicity
  _atom_site_fract_x
  _atom_site_fract_y
  _atom_site_fract_z
  _atom_site_occupancy
  Ga  Ga1       1.0  0.13200  0.13700  0.02040  1.0000
  Ga  Ga2       1.0  0.38900  0.88400  0.02040  1.0000
  Ga  Ga3       1.0  0.97100  0.46900  0.11000  1.0000
  Ga  Ga4       1.0  0.63800  0.64000  0.11000  1.0000
  Ga  Ga5       1.0  0.53100  0.02870  0.39000  1.0000
  Ga  Ga6       1.0  0.36000  0.36200  0.39000  1.0000
  Ga  Ga7       1.0  0.11600  0.61100  0.48000  1.0000
  Ga  Ga8       1.0  0.86300  0.86800  0.48000  1.0000
  Ga  Ga9       1.0  0.13700  0.13200  0.52000  1.0000
  Ga  Ga10      1.0  0.88400  0.38900  0.52000  1.0000
  Ga  Ga11      1.0  0.64000  0.63800  0.61000  1.0000
  Ga  Ga12      1.0  0.46900  0.97100  0.61000  1.0000
  Ga  Ga13      1.0  0.36200  0.36000  0.89000  1.0000
  Ga  Ga14      1.0  0.02870  0.53100  0.89000  1.0000
  Ga  Ga15      1.0  0.61100  0.11600  0.98000  1.0000
  Ga  Ga16      1.0  0.86800  0.86300  0.98000  1.0000
  Na  Na1       1.0  0.62200  0.37800  0.25000  1.0000
  Na  Na2       1.0  0.12800  0.87200  0.25000  1.0000
  Na  Na3       1.0  0.87200  0.12800  0.75000  1.0000
  Na  Na4       1.0  0.37800  0.62200  0.75000  1.0000
  Nd  Nd1       1.0  0.87500  0.12500  0.25000  1.0000
  Nd  Nd2       1.0  0.37500  0.62500  0.25000  1.0000
  Nd  Nd3       1.0  0.62500  0.37500  0.75000  1.0000
  Nd  Nd4       1.0  0.12500  0.87500  0.75000  1.0000
  Se  Se1       1.0  0.09340  0.41800  0.00396  1.0000
  Se  Se2       1.0  0.41100  0.58600  0.00396  1.0000
  Se  Se3       1.0  0.90900  0.08370  0.00436  1.0000
  Se  Se4       1.0  0.59500  0.92100  0.00436  1.0000
  Se  Se5       1.0  0.81800  0.31900  0.16900  1.0000
  Se  Se6       1.0  0.85200  0.85000  0.16900  1.0000
  Se  Se7       1.0  0.34300  0.34900  0.18500  1.0000
  Se  Se8       1.0  0.34300  0.83600  0.18500  1.0000
  Se  Se9       1.0  0.65100  0.65700  0.31500  1.0000
  Se  Se10      1.0  0.16400  0.65700  0.31500  1.0000
  Se  Se11      1.0  0.15000  0.14800  0.33100  1.0000
  Se  Se12      1.0  0.68100  0.18200  0.33100  1.0000
  Se  Se13      1.0  0.91600  0.09090  0.49600  1.0000
  Se  Se14      1.0  0.07930  0.40500  0.49600  1.0000
  Se  Se15      1.0  0.41400  0.58900  0.49600  1.0000
  Se  Se16      1.0  0.58200  0.90700  0.49600  1.0000
  Se  Se17      1.0  0.41800  0.09340  0.50400  1.0000
  Se  Se18      1.0  0.58600  0.41100  0.50400  1.0000
  Se  Se19      1.0  0.92100  0.59500  0.50400  1.0000
  Se  Se20      1.0  0.08370  0.90900  0.50400  1.0000
  Se  Se21      1.0  0.31900  0.81800  0.66900  1.0000
  Se  Se22      1.0  0.85000  0.85200  0.66900  1.0000
  Se  Se23      1.0  0.83600  0.34300  0.68500  1.0000
  Se  Se24      1.0  0.34900  0.34300  0.68500  1.0000
  Se  Se25      1.0  0.65700  0.16400  0.81500  1.0000
  Se  Se26      1.0  0.65700  0.65100  0.81500  1.0000
  Se  Se27      1.0  0.14800  0.15000  0.83100  1.0000
  Se  Se28      1.0  0.18200  0.68100  0.83100  1.0000
  Se  Se29      1.0  0.40500  0.07930  0.99600  1.0000
  Se  Se30      1.0  0.09090  0.91600  0.99600  1.0000
  Se  Se31      1.0  0.58900  0.41400  0.99600  1.0000
  Se  Se32      1.0  0.90700  0.58200  0.99600  1.0000
