data_image0
_chemical_formula_structural       As8Hg18O32
_chemical_formula_sum              "As8 Hg18 O32"
_cell_length_a       10.3095
_cell_length_b       10.3095
_cell_length_c       10.3095
_cell_angle_alpha    108.165
_cell_angle_beta     108.165
_cell_angle_gamma    108.165

_space_group_name_H-M_alt    "P 1"
_space_group_IT_number       1

loop_
  _space_group_symop_operation_xyz
  'x, y, z'

loop_
  _atom_site_type_symbol
  _atom_site_label
  _atom_site_symmetry_multiplicity
  _atom_site_fract_x
  _atom_site_fract_y
  _atom_site_fract_z
  _atom_site_occupancy
  As  As1       1.0  0.34300  0.61400  0.11400  1.0000
  As  As2       1.0  0.84300  0.61400  0.11400  1.0000
  As  As3       1.0  0.61400  0.11400  0.34300  1.0000
  As  As4       1.0  0.43700  0.43700  0.43700  1.0000
  As  As5       1.0  0.11400  0.84300  0.61400  1.0000
  As  As6       1.0  0.11400  0.34300  0.61400  1.0000
  As  As7       1.0  0.61400  0.11400  0.84300  1.0000
  As  As8       1.0  0.93700  0.93700  0.93700  1.0000
  Hg  Hg1       1.0  0.64400  0.88200  0.03870  1.0000
  Hg  Hg2       1.0  0.31700  0.09380  0.04740  1.0000
  Hg  Hg3       1.0  0.04740  0.31700  0.09380  1.0000
  Hg  Hg4       1.0  0.53900  0.38200  0.14400  1.0000
  Hg  Hg5       1.0  0.86100  0.29500  0.23300  1.0000
  Hg  Hg6       1.0  0.23300  0.86100  0.29500  1.0000
  Hg  Hg7       1.0  0.09380  0.04740  0.31700  1.0000
  Hg  Hg8       1.0  0.73300  0.79500  0.36100  1.0000
  Hg  Hg9       1.0  0.14400  0.53900  0.38200  1.0000
  Hg  Hg10      1.0  0.38200  0.14400  0.53900  1.0000
  Hg  Hg11      1.0  0.59400  0.81700  0.54700  1.0000
  Hg  Hg12      1.0  0.81700  0.54700  0.59400  1.0000
  Hg  Hg13      1.0  0.88200  0.03870  0.64400  1.0000
  Hg  Hg14      1.0  0.79500  0.36100  0.73300  1.0000
  Hg  Hg15      1.0  0.36100  0.73300  0.79500  1.0000
  Hg  Hg16      1.0  0.54700  0.59400  0.81700  1.0000
  Hg  Hg17      1.0  0.29500  0.23300  0.86100  1.0000
  Hg  Hg18      1.0  0.03870  0.64400  0.88200  1.0000
  O   O1        1.0  0.28500  0.70000  0.00311  1.0000
  O   O2        1.0  0.09050  0.90100  0.01520  1.0000
  O   O3        1.0  0.62900  0.12300  0.01830  1.0000
  O   O4        1.0  0.22100  0.42200  0.02590  1.0000
  O   O5        1.0  0.90100  0.01520  0.09050  1.0000
  O   O6        1.0  0.01830  0.62900  0.12300  1.0000
  O   O7        1.0  0.51800  0.62300  0.12900  1.0000
  O   O8        1.0  0.78500  0.50300  0.20000  1.0000
  O   O9        1.0  0.85600  0.79200  0.21100  1.0000
  O   O10       1.0  0.42200  0.02590  0.22100  1.0000
  O   O11       1.0  0.28300  0.28300  0.28300  1.0000
  O   O12       1.0  0.70000  0.00311  0.28500  1.0000
  O   O13       1.0  0.35600  0.71100  0.29200  1.0000
  O   O14       1.0  0.71100  0.29200  0.35600  1.0000
  O   O15       1.0  0.59000  0.51500  0.40100  1.0000
  O   O16       1.0  0.02590  0.22100  0.42200  1.0000
  O   O17       1.0  0.20000  0.78500  0.50300  1.0000
  O   O18       1.0  0.40100  0.59000  0.51500  1.0000
  O   O19       1.0  0.62300  0.12900  0.51800  1.0000
  O   O20       1.0  0.92200  0.72100  0.52600  1.0000
  O   O21       1.0  0.51500  0.40100  0.59000  1.0000
  O   O22       1.0  0.12900  0.51800  0.62300  1.0000
  O   O23       1.0  0.12300  0.01830  0.62900  1.0000
  O   O24       1.0  0.00312  0.28500  0.70000  1.0000
  O   O25       1.0  0.29200  0.35600  0.71100  1.0000
  O   O26       1.0  0.52600  0.92200  0.72100  1.0000
  O   O27       1.0  0.78300  0.78300  0.78300  1.0000
  O   O28       1.0  0.50300  0.20000  0.78500  1.0000
  O   O29       1.0  0.21100  0.85600  0.79200  1.0000
  O   O30       1.0  0.79200  0.21100  0.85600  1.0000
  O   O31       1.0  0.01520  0.09050  0.90100  1.0000
  O   O32       1.0  0.72100  0.52600  0.92200  1.0000
