data_image0
_chemical_formula_structural       F40Li8U8
_chemical_formula_sum              "F40 Li8 U8"
_cell_length_a       6.39386
_cell_length_b       10.7399
_cell_length_c       10.7399
_cell_angle_alpha    95.0834
_cell_angle_beta     72.6824
_cell_angle_gamma    107.318

_space_group_name_H-M_alt    "P 1"
_space_group_IT_number       1

loop_
  _space_group_symop_operation_xyz
  'x, y, z'

loop_
  _atom_site_type_symbol
  _atom_site_label
  _atom_site_symmetry_multiplicity
  _atom_site_fract_x
  _atom_site_fract_y
  _atom_site_fract_z
  _atom_site_occupancy
  F   F1        1.0  0.81800  0.90800  0.00931  1.0000
  F   F2        1.0  0.41600  0.37800  0.02960  1.0000
  F   F3        1.0  0.89400  0.70900  0.07920  1.0000
  F   F4        1.0  0.08980  0.50900  0.09180  1.0000
  F   F5        1.0  0.30700  0.77300  0.11900  1.0000
  F   F6        1.0  0.72900  0.29500  0.11900  1.0000
  F   F7        1.0  0.44600  0.02960  0.12200  1.0000
  F   F8        1.0  0.84800  0.11900  0.20500  1.0000
  F   F9        1.0  0.02720  0.92100  0.20900  1.0000
  F   F10       1.0  0.46600  0.61900  0.22700  1.0000
  F   F11       1.0  0.57400  0.88100  0.27300  1.0000
  F   F12       1.0  0.81600  0.57900  0.29100  1.0000
  F   F13       1.0  0.43300  0.38100  0.29500  1.0000
  F   F14       1.0  0.03790  0.47000  0.37800  1.0000
  F   F15       1.0  0.05260  0.20500  0.38100  1.0000
  F   F16       1.0  0.15400  0.72700  0.38100  1.0000
  F   F17       1.0  0.17200  0.99100  0.40800  1.0000
  F   F18       1.0  0.76400  0.79100  0.42100  1.0000
  F   F19       1.0  0.56700  0.12200  0.47000  1.0000
  F   F20       1.0  0.41900  0.59200  0.49100  1.0000
  F   F21       1.0  0.58100  0.40800  0.50900  1.0000
  F   F22       1.0  0.43300  0.87800  0.53000  1.0000
  F   F23       1.0  0.23600  0.20900  0.57900  1.0000
  F   F24       1.0  0.82800  0.00931  0.59200  1.0000
  F   F25       1.0  0.84600  0.27300  0.61900  1.0000
  F   F26       1.0  0.94700  0.79500  0.61900  1.0000
  F   F27       1.0  0.96200  0.53000  0.62200  1.0000
  F   F28       1.0  0.56700  0.61900  0.70500  1.0000
  F   F29       1.0  0.18400  0.42100  0.70900  1.0000
  F   F30       1.0  0.42600  0.11900  0.72700  1.0000
  F   F31       1.0  0.53400  0.38100  0.77300  1.0000
  F   F32       1.0  0.97300  0.07920  0.79100  1.0000
  F   F33       1.0  0.15200  0.88100  0.79500  1.0000
  F   F34       1.0  0.55400  0.97000  0.87800  1.0000
  F   F35       1.0  0.27100  0.70500  0.88100  1.0000
  F   F36       1.0  0.69300  0.22700  0.88100  1.0000
  F   F37       1.0  0.91000  0.49100  0.90800  1.0000
  F   F38       1.0  0.10600  0.29100  0.92100  1.0000
  F   F39       1.0  0.58400  0.62200  0.97000  1.0000
  F   F40       1.0  0.18200  0.09180  0.99100  1.0000
  Li  Li1       1.0  0.60600  0.76700  0.10700  1.0000
  Li  Li2       1.0  0.16100  0.60700  0.23300  1.0000
  Li  Li3       1.0  0.28600  0.89300  0.26700  1.0000
  Li  Li4       1.0  0.44700  0.73300  0.39300  1.0000
  Li  Li5       1.0  0.55300  0.26700  0.60700  1.0000
  Li  Li6       1.0  0.71400  0.10700  0.73300  1.0000
  Li  Li7       1.0  0.83900  0.39300  0.76700  1.0000
  Li  Li8       1.0  0.39400  0.23300  0.89300  1.0000
  U   U1        1.0  0.80500  0.11700  0.00716  1.0000
  U   U2        1.0  0.68800  0.49300  0.11700  1.0000
  U   U3        1.0  0.81200  0.00716  0.38300  1.0000
  U   U4        1.0  0.19600  0.38300  0.49300  1.0000
  U   U5        1.0  0.80400  0.61700  0.50700  1.0000
  U   U6        1.0  0.18800  0.99300  0.61700  1.0000
  U   U7        1.0  0.31200  0.50700  0.88300  1.0000
  U   U8        1.0  0.19500  0.88300  0.99300  1.0000
