data_image0
_chemical_formula_structural       Br8Cu8O24Sb16
_chemical_formula_sum              "Br8 Cu8 O24 Sb16"
_cell_length_a       7.8642
_cell_length_b       7.8642
_cell_length_c       18.9454
_cell_angle_alpha    89.992
_cell_angle_beta     90.008
_cell_angle_gamma    59.8777

_space_group_name_H-M_alt    "P 1"
_space_group_IT_number       1

loop_
  _space_group_symop_operation_xyz
  'x, y, z'

loop_
  _atom_site_type_symbol
  _atom_site_label
  _atom_site_symmetry_multiplicity
  _atom_site_fract_x
  _atom_site_fract_y
  _atom_site_fract_z
  _atom_site_occupancy
  Br  Br1       1.0  0.34700  0.83200  0.22300  1.0000
  Br  Br2       1.0  0.83900  0.83200  0.24900  1.0000
  Br  Br3       1.0  0.34500  0.32600  0.24900  1.0000
  Br  Br4       1.0  0.84700  0.33100  0.27900  1.0000
  Br  Br5       1.0  0.16800  0.65300  0.72300  1.0000
  Br  Br6       1.0  0.16800  0.16100  0.74900  1.0000
  Br  Br7       1.0  0.67400  0.65500  0.74900  1.0000
  Br  Br8       1.0  0.66900  0.15300  0.77900  1.0000
  Cu  Cu1       1.0  0.00085  0.48800  0.21600  1.0000
  Cu  Cu2       1.0  0.03620  0.97300  0.28300  1.0000
  Cu  Cu3       1.0  0.48800  0.52100  0.28300  1.0000
  Cu  Cu4       1.0  0.50000  0.98700  0.28900  1.0000
  Cu  Cu5       1.0  0.51200  0.99900  0.71600  1.0000
  Cu  Cu6       1.0  0.02720  0.96400  0.78300  1.0000
  Cu  Cu7       1.0  0.47900  0.51200  0.78300  1.0000
  Cu  Cu8       1.0  0.01320  0.50000  0.78900  1.0000
  O   O1        1.0  0.30700  0.78800  0.02590  1.0000
  O   O2        1.0  0.30200  0.40800  0.02600  1.0000
  O   O3        1.0  0.92500  0.78500  0.02610  1.0000
  O   O4        1.0  0.59100  0.45000  0.10600  1.0000
  O   O5        1.0  0.96900  0.07370  0.10600  1.0000
  O   O6        1.0  0.96500  0.44800  0.11000  1.0000
  O   O7        1.0  0.46300  0.94700  0.39400  1.0000
  O   O8        1.0  0.09350  0.94600  0.39500  1.0000
  O   O9        1.0  0.46400  0.57600  0.39500  1.0000
  O   O10       1.0  0.41900  0.28600  0.47700  1.0000
  O   O11       1.0  0.80600  0.28600  0.47700  1.0000
  O   O12       1.0  0.80100  0.90200  0.47700  1.0000
  O   O13       1.0  0.21200  0.69300  0.52600  1.0000
  O   O14       1.0  0.59200  0.69800  0.52600  1.0000
  O   O15       1.0  0.21500  0.07470  0.52600  1.0000
  O   O16       1.0  0.55000  0.40900  0.60600  1.0000
  O   O17       1.0  0.92600  0.03090  0.60600  1.0000
  O   O18       1.0  0.55200  0.03500  0.61000  1.0000
  O   O19       1.0  0.05280  0.53700  0.89400  1.0000
  O   O20       1.0  0.05410  0.90700  0.89500  1.0000
  O   O21       1.0  0.42400  0.53600  0.89500  1.0000
  O   O22       1.0  0.71400  0.58100  0.97700  1.0000
  O   O23       1.0  0.71400  0.19400  0.97700  1.0000
  O   O24       1.0  0.09790  0.19900  0.97700  1.0000
  Sb  Sb1       1.0  0.68100  0.63800  0.08190  1.0000
  Sb  Sb2       1.0  0.15600  0.16500  0.08200  1.0000
  Sb  Sb3       1.0  0.18000  0.66100  0.08250  1.0000
  Sb  Sb4       1.0  0.68800  0.16900  0.08330  1.0000
  Sb  Sb5       1.0  0.18400  0.66400  0.42200  1.0000
  Sb  Sb6       1.0  0.67600  0.15900  0.42200  1.0000
  Sb  Sb7       1.0  0.65700  0.66600  0.42400  1.0000
  Sb  Sb8       1.0  0.18100  0.14000  0.42400  1.0000
  Sb  Sb9       1.0  0.36200  0.31900  0.58200  1.0000
  Sb  Sb10      1.0  0.83500  0.84400  0.58200  1.0000
  Sb  Sb11      1.0  0.33900  0.82000  0.58300  1.0000
  Sb  Sb12      1.0  0.83100  0.31200  0.58300  1.0000
  Sb  Sb13      1.0  0.33600  0.81600  0.92200  1.0000
  Sb  Sb14      1.0  0.84100  0.32400  0.92200  1.0000
  Sb  Sb15      1.0  0.33400  0.34300  0.92400  1.0000
  Sb  Sb16      1.0  0.86000  0.81900  0.92400  1.0000
