data_image0
_chemical_formula_structural       Cs12Nd4P8S32
_chemical_formula_sum              "Cs12 Nd4 P8 S32"
_cell_length_a       15.5991
_cell_length_b       6.99889
_cell_length_c       15.6896
_cell_angle_alpha    90
_cell_angle_beta     99.2773
_cell_angle_gamma    90

_space_group_name_H-M_alt    "P 1"
_space_group_IT_number       1

loop_
  _space_group_symop_operation_xyz
  'x, y, z'

loop_
  _atom_site_type_symbol
  _atom_site_label
  _atom_site_symmetry_multiplicity
  _atom_site_fract_x
  _atom_site_fract_y
  _atom_site_fract_z
  _atom_site_occupancy
  Cs  Cs1       1.0  0.10800  0.74500  0.02550  1.0000
  Cs  Cs2       1.0  0.54800  0.25200  0.11000  1.0000
  Cs  Cs3       1.0  0.77700  0.75800  0.12200  1.0000
  Cs  Cs4       1.0  0.72300  0.25800  0.37800  1.0000
  Cs  Cs5       1.0  0.95200  0.75200  0.39000  1.0000
  Cs  Cs6       1.0  0.39200  0.24500  0.47500  1.0000
  Cs  Cs7       1.0  0.60800  0.75500  0.52500  1.0000
  Cs  Cs8       1.0  0.04830  0.24800  0.61000  1.0000
  Cs  Cs9       1.0  0.27700  0.74200  0.62200  1.0000
  Cs  Cs10      1.0  0.22300  0.24200  0.87800  1.0000
  Cs  Cs11      1.0  0.45200  0.74800  0.89000  1.0000
  Cs  Cs12      1.0  0.89200  0.25500  0.97500  1.0000
  Nd  Nd1       1.0  0.37700  0.73100  0.22900  1.0000
  Nd  Nd2       1.0  0.12300  0.23100  0.27100  1.0000
  Nd  Nd3       1.0  0.87700  0.76900  0.72900  1.0000
  Nd  Nd4       1.0  0.62300  0.26900  0.77100  1.0000
  P   P1        1.0  0.28300  0.27300  0.12800  1.0000
  P   P2        1.0  0.91600  0.25500  0.22300  1.0000
  P   P3        1.0  0.58400  0.75500  0.27700  1.0000
  P   P4        1.0  0.21700  0.77300  0.37200  1.0000
  P   P5        1.0  0.78300  0.22700  0.62800  1.0000
  P   P6        1.0  0.41600  0.24500  0.72300  1.0000
  P   P7        1.0  0.08390  0.74500  0.77700  1.0000
  P   P8        1.0  0.71700  0.72700  0.87200  1.0000
  S   S1        1.0  0.33100  0.50500  0.07050  1.0000
  S   S2        1.0  0.15100  0.25000  0.09240  1.0000
  S   S3        1.0  0.34300  0.03040  0.09350  1.0000
  S   S4        1.0  0.55100  0.75000  0.14400  1.0000
  S   S5        1.0  0.78800  0.26100  0.17400  1.0000
  S   S6        1.0  0.97600  0.01350  0.18300  1.0000
  S   S7        1.0  0.98200  0.48800  0.18600  1.0000
  S   S8        1.0  0.19600  0.83300  0.24100  1.0000
  S   S9        1.0  0.30400  0.33300  0.25900  1.0000
  S   S10       1.0  0.51800  0.98800  0.31400  1.0000
  S   S11       1.0  0.52400  0.51400  0.31700  1.0000
  S   S12       1.0  0.71200  0.76100  0.32600  1.0000
  S   S13       1.0  0.94900  0.25000  0.35600  1.0000
  S   S14       1.0  0.15700  0.53000  0.40600  1.0000
  S   S15       1.0  0.34900  0.75000  0.40800  1.0000
  S   S16       1.0  0.16900  0.00545  0.43000  1.0000
  S   S17       1.0  0.83100  0.99500  0.57000  1.0000
  S   S18       1.0  0.65100  0.25000  0.59200  1.0000
  S   S19       1.0  0.84300  0.47000  0.59400  1.0000
  S   S20       1.0  0.05090  0.75000  0.64400  1.0000
  S   S21       1.0  0.28800  0.23900  0.67400  1.0000
  S   S22       1.0  0.47600  0.48600  0.68300  1.0000
  S   S23       1.0  0.48200  0.01200  0.68600  1.0000
  S   S24       1.0  0.69600  0.66700  0.74100  1.0000
  S   S25       1.0  0.80400  0.16700  0.75900  1.0000
  S   S26       1.0  0.01810  0.51200  0.81400  1.0000
  S   S27       1.0  0.02440  0.98600  0.81700  1.0000
  S   S28       1.0  0.21200  0.73900  0.82600  1.0000
  S   S29       1.0  0.44900  0.25000  0.85600  1.0000
  S   S30       1.0  0.65700  0.97000  0.90600  1.0000
  S   S31       1.0  0.84900  0.75000  0.90800  1.0000
  S   S32       1.0  0.66900  0.49500  0.93000  1.0000
