data_image0
_chemical_formula_structural       K8O36P8W4
_chemical_formula_sum              "K8 O36 P8 W4"
_cell_length_a       7.80434
_cell_length_b       7.80434
_cell_length_c       15.4153
_cell_angle_alpha    97.231
_cell_angle_beta     97.231
_cell_angle_gamma    60.0244

_space_group_name_H-M_alt    "P 1"
_space_group_IT_number       1

loop_
  _space_group_symop_operation_xyz
  'x, y, z'

loop_
  _atom_site_type_symbol
  _atom_site_label
  _atom_site_symmetry_multiplicity
  _atom_site_fract_x
  _atom_site_fract_y
  _atom_site_fract_z
  _atom_site_occupancy
  K   K1        1.0  0.44200  0.27100  0.02030  1.0000
  K   K2        1.0  0.48600  0.80500  0.24100  1.0000
  K   K3        1.0  0.19500  0.51400  0.25900  1.0000
  K   K4        1.0  0.72900  0.55800  0.48000  1.0000
  K   K5        1.0  0.27100  0.44200  0.52000  1.0000
  K   K6        1.0  0.80500  0.48600  0.74100  1.0000
  K   K7        1.0  0.51400  0.19500  0.75900  1.0000
  K   K8        1.0  0.55800  0.72900  0.98000  1.0000
  O   O1        1.0  0.81100  0.33400  0.01990  1.0000
  O   O2        1.0  0.14500  0.96500  0.08020  1.0000
  O   O3        1.0  0.96300  0.77700  0.10000  1.0000
  O   O4        1.0  0.15700  0.30600  0.10800  1.0000
  O   O5        1.0  0.60100  0.94500  0.12100  1.0000
  O   O6        1.0  0.33600  0.61500  0.13300  1.0000
  O   O7        1.0  0.77700  0.14800  0.14500  1.0000
  O   O8        1.0  0.81400  0.49200  0.19000  1.0000
  O   O9        1.0  0.10900  0.13900  0.24800  1.0000
  O   O10       1.0  0.86100  0.89100  0.25200  1.0000
  O   O11       1.0  0.50800  0.18600  0.31000  1.0000
  O   O12       1.0  0.85200  0.22300  0.35500  1.0000
  O   O13       1.0  0.38500  0.66400  0.36700  1.0000
  O   O14       1.0  0.05460  0.39900  0.37900  1.0000
  O   O15       1.0  0.69400  0.84300  0.39200  1.0000
  O   O16       1.0  0.22300  0.03750  0.40000  1.0000
  O   O17       1.0  0.03480  0.85500  0.42000  1.0000
  O   O18       1.0  0.66600  0.18900  0.48000  1.0000
  O   O19       1.0  0.33400  0.81100  0.52000  1.0000
  O   O20       1.0  0.96500  0.14500  0.58000  1.0000
  O   O21       1.0  0.77700  0.96300  0.60000  1.0000
  O   O22       1.0  0.30600  0.15700  0.60800  1.0000
  O   O23       1.0  0.94500  0.60100  0.62100  1.0000
  O   O24       1.0  0.61500  0.33600  0.63300  1.0000
  O   O25       1.0  0.14800  0.77700  0.64500  1.0000
  O   O26       1.0  0.49200  0.81400  0.69000  1.0000
  O   O27       1.0  0.13900  0.10900  0.74800  1.0000
  O   O28       1.0  0.89100  0.86100  0.75200  1.0000
  O   O29       1.0  0.18600  0.50800  0.81000  1.0000
  O   O30       1.0  0.22300  0.85200  0.85500  1.0000
  O   O31       1.0  0.66400  0.38500  0.86700  1.0000
  O   O32       1.0  0.39900  0.05460  0.87900  1.0000
  O   O33       1.0  0.84300  0.69400  0.89200  1.0000
  O   O34       1.0  0.03750  0.22300  0.90000  1.0000
  O   O35       1.0  0.85500  0.03480  0.92000  1.0000
  O   O36       1.0  0.18900  0.66600  0.98000  1.0000
  P   P1        1.0  0.16700  0.75800  0.07680  1.0000
  P   P2        1.0  0.78500  0.95200  0.15500  1.0000
  P   P3        1.0  0.04780  0.21500  0.34500  1.0000
  P   P4        1.0  0.24200  0.83300  0.42300  1.0000
  P   P5        1.0  0.75800  0.16700  0.57700  1.0000
  P   P6        1.0  0.95200  0.78500  0.65500  1.0000
  P   P7        1.0  0.21500  0.04780  0.84500  1.0000
  P   P8        1.0  0.83300  0.24200  0.92300  1.0000
  W   W1        1.0  0.96900  0.26600  0.13500  1.0000
  W   W2        1.0  0.73400  0.03100  0.36500  1.0000
  W   W3        1.0  0.26600  0.96900  0.63500  1.0000
  W   W4        1.0  0.03100  0.73400  0.86500  1.0000
