data_image0
_chemical_formula_structural       Cl6Cu2Nd8O30Te10
_chemical_formula_sum              "Cl6 Cu2 Nd8 O30 Te10"
_cell_length_a       5.6571
_cell_length_b       11.8199
_cell_length_c       14.7953
_cell_angle_alpha    92.3496
_cell_angle_beta     101.022
_cell_angle_gamma    103.845

_space_group_name_H-M_alt    "P 1"
_space_group_IT_number       1

loop_
  _space_group_symop_operation_xyz
  'x, y, z'

loop_
  _atom_site_type_symbol
  _atom_site_label
  _atom_site_symmetry_multiplicity
  _atom_site_fract_x
  _atom_site_fract_y
  _atom_site_fract_z
  _atom_site_occupancy
  Cl  Cl1       1.0  0.37500  0.38800  0.00161  1.0000
  Cl  Cl2       1.0  0.94100  0.37800  0.17700  1.0000
  Cl  Cl3       1.0  0.65600  0.60000  0.21900  1.0000
  Cl  Cl4       1.0  0.83700  0.40000  0.78100  1.0000
  Cl  Cl5       1.0  0.38500  0.62200  0.82300  1.0000
  Cl  Cl6       1.0  0.98500  0.61200  0.99800  1.0000
  Cu  Cu1       1.0  0.75100  0.50100  0.08740  1.0000
  Cu  Cu2       1.0  0.16200  0.49900  0.91300  1.0000
  Nd  Nd1       1.0  0.17800  0.00000  0.00000  1.0000
  Nd  Nd2       1.0  0.78700  0.03820  0.19900  1.0000
  Nd  Nd3       1.0  0.75300  0.78900  0.37100  1.0000
  Nd  Nd4       1.0  0.02270  0.24600  0.42600  1.0000
  Nd  Nd5       1.0  0.73100  0.50000  0.50000  1.0000
  Nd  Nd6       1.0  0.35100  0.75400  0.57400  1.0000
  Nd  Nd7       1.0  0.59200  0.21100  0.62900  1.0000
  Nd  Nd8       1.0  0.55000  0.96200  0.80100  1.0000
  O   O1        1.0  0.58200  0.12400  0.06430  1.0000
  O   O2        1.0  0.84100  0.89600  0.07540  1.0000
  O   O3        1.0  0.08130  0.15000  0.10500  1.0000
  O   O4        1.0  0.35300  0.93000  0.15100  1.0000
  O   O5        1.0  0.96900  0.88300  0.25900  1.0000
  O   O6        1.0  0.33400  0.77200  0.29400  1.0000
  O   O7        1.0  0.14700  0.16300  0.29700  1.0000
  O   O8        1.0  0.64600  0.18700  0.29900  1.0000
  O   O9        1.0  0.74300  0.99200  0.35100  1.0000
  O   O10       1.0  0.44600  0.36100  0.38100  1.0000
  O   O11       1.0  0.99600  0.43700  0.40400  1.0000
  O   O12       1.0  0.00613  0.66000  0.42500  1.0000
  O   O13       1.0  0.46900  0.62500  0.43500  1.0000
  O   O14       1.0  0.56900  0.88300  0.48300  1.0000
  O   O15       1.0  0.69400  0.12800  0.49600  1.0000
  O   O16       1.0  0.06990  0.87200  0.50400  1.0000
  O   O17       1.0  0.20300  0.11700  0.51700  1.0000
  O   O18       1.0  0.40900  0.37500  0.56500  1.0000
  O   O19       1.0  0.92100  0.34000  0.57500  1.0000
  O   O20       1.0  0.15400  0.56300  0.59600  1.0000
  O   O21       1.0  0.70500  0.63900  0.61900  1.0000
  O   O22       1.0  0.40000  0.00795  0.64900  1.0000
  O   O23       1.0  0.16000  0.81300  0.70100  1.0000
  O   O24       1.0  0.68700  0.83700  0.70300  1.0000
  O   O25       1.0  0.26700  0.22800  0.70600  1.0000
  O   O26       1.0  0.82700  0.11700  0.74100  1.0000
  O   O27       1.0  0.27200  0.06950  0.84900  1.0000
  O   O28       1.0  0.82700  0.85000  0.89500  1.0000
  O   O29       1.0  0.87000  0.10400  0.92500  1.0000
  O   O30       1.0  0.39300  0.87600  0.93600  1.0000
  Te  Te1       1.0  0.85800  0.21700  0.02280  1.0000
  Te  Te2       1.0  0.12300  0.80000  0.18500  1.0000
  Te  Te3       1.0  0.41200  0.27700  0.26400  1.0000
  Te  Te4       1.0  0.15200  0.57100  0.35000  1.0000
  Te  Te5       1.0  0.47900  0.00438  0.41100  1.0000
  Te  Te6       1.0  0.06350  0.99600  0.58900  1.0000
  Te  Te7       1.0  0.23100  0.42900  0.65000  1.0000
  Te  Te8       1.0  0.87100  0.72300  0.73600  1.0000
  Te  Te9       1.0  0.13800  0.20000  0.81500  1.0000
  Te  Te10      1.0  0.61800  0.78300  0.97700  1.0000
