data_image0
_chemical_formula_structural       La20Se38
_chemical_formula_sum              "La20 Se38"
_cell_length_a       9.48217
_cell_length_b       9.48217
_cell_length_c       17.1664
_cell_angle_alpha    90
_cell_angle_beta     90
_cell_angle_gamma    90

_space_group_name_H-M_alt    "P 1"
_space_group_IT_number       1

loop_
  _space_group_symop_operation_xyz
  'x, y, z'

loop_
  _atom_site_type_symbol
  _atom_site_label
  _atom_site_symmetry_multiplicity
  _atom_site_fract_x
  _atom_site_fract_y
  _atom_site_fract_z
  _atom_site_occupancy
  La  La1       1.0  0.05380  0.14800  0.10400  1.0000
  La  La2       1.0  0.44600  0.35200  0.10400  1.0000
  La  La3       1.0  0.25000  0.75000  0.11600  1.0000
  La  La4       1.0  0.84700  0.54300  0.12000  1.0000
  La  La5       1.0  0.65300  0.95700  0.12000  1.0000
  La  La6       1.0  0.54300  0.65300  0.38000  1.0000
  La  La7       1.0  0.95700  0.84700  0.38000  1.0000
  La  La8       1.0  0.75000  0.25000  0.38400  1.0000
  La  La9       1.0  0.35200  0.05380  0.39600  1.0000
  La  La10      1.0  0.14800  0.44600  0.39600  1.0000
  La  La11      1.0  0.85200  0.55400  0.60400  1.0000
  La  La12      1.0  0.64800  0.94600  0.60400  1.0000
  La  La13      1.0  0.25000  0.75000  0.61600  1.0000
  La  La14      1.0  0.04340  0.15300  0.62000  1.0000
  La  La15      1.0  0.45700  0.34700  0.62000  1.0000
  La  La16      1.0  0.34700  0.04340  0.88000  1.0000
  La  La17      1.0  0.15300  0.45700  0.88000  1.0000
  La  La18      1.0  0.75000  0.25000  0.88400  1.0000
  La  La19      1.0  0.55400  0.64800  0.89600  1.0000
  La  La20      1.0  0.94600  0.85200  0.89600  1.0000
  Se  Se1       1.0  0.35100  0.05260  0.06370  1.0000
  Se  Se2       1.0  0.14900  0.44700  0.06370  1.0000
  Se  Se3       1.0  0.75000  0.25000  0.06580  1.0000
  Se  Se4       1.0  0.54800  0.65200  0.07340  1.0000
  Se  Se5       1.0  0.95200  0.84800  0.07340  1.0000
  Se  Se6       1.0  0.88600  0.06780  0.24900  1.0000
  Se  Se7       1.0  0.61400  0.43200  0.24900  1.0000
  Se  Se8       1.0  0.32400  0.52900  0.25000  1.0000
  Se  Se9       1.0  0.17600  0.97100  0.25000  1.0000
  Se  Se10      1.0  0.75000  0.75000  0.25000  1.0000
  Se  Se11      1.0  0.52900  0.17600  0.25000  1.0000
  Se  Se12      1.0  0.97100  0.32400  0.25000  1.0000
  Se  Se13      1.0  0.06780  0.61400  0.25100  1.0000
  Se  Se14      1.0  0.43200  0.88600  0.25100  1.0000
  Se  Se15      1.0  0.84800  0.54800  0.42700  1.0000
  Se  Se16      1.0  0.65200  0.95200  0.42700  1.0000
  Se  Se17      1.0  0.25000  0.75000  0.43400  1.0000
  Se  Se18      1.0  0.05260  0.14900  0.43600  1.0000
  Se  Se19      1.0  0.44700  0.35100  0.43600  1.0000
  Se  Se20      1.0  0.55300  0.64900  0.56400  1.0000
  Se  Se21      1.0  0.94700  0.85100  0.56400  1.0000
  Se  Se22      1.0  0.75000  0.25000  0.56600  1.0000
  Se  Se23      1.0  0.34800  0.04850  0.57300  1.0000
  Se  Se24      1.0  0.15200  0.45200  0.57300  1.0000
  Se  Se25      1.0  0.56800  0.11400  0.74900  1.0000
  Se  Se26      1.0  0.93200  0.38600  0.74900  1.0000
  Se  Se27      1.0  0.02900  0.67600  0.75000  1.0000
  Se  Se28      1.0  0.47100  0.82400  0.75000  1.0000
  Se  Se29      1.0  0.25000  0.25000  0.75000  1.0000
  Se  Se30      1.0  0.82400  0.02900  0.75000  1.0000
  Se  Se31      1.0  0.67600  0.47100  0.75000  1.0000
  Se  Se32      1.0  0.38600  0.56800  0.75100  1.0000
  Se  Se33      1.0  0.11400  0.93200  0.75100  1.0000
  Se  Se34      1.0  0.04850  0.15200  0.92700  1.0000
  Se  Se35      1.0  0.45200  0.34800  0.92700  1.0000
  Se  Se36      1.0  0.25000  0.75000  0.93400  1.0000
  Se  Se37      1.0  0.85100  0.55300  0.93600  1.0000
  Se  Se38      1.0  0.64900  0.94700  0.93600  1.0000
