data_image0
_chemical_formula_structural       As2CaFe2
_chemical_formula_sum              "As2 Ca1 Fe2"
_cell_length_a       3.97836
_cell_length_b       3.97836
_cell_length_c       5.90575
_cell_angle_alpha    109.683
_cell_angle_beta     109.683
_cell_angle_gamma    90

_space_group_name_H-M_alt    "P 1"
_space_group_IT_number       1

loop_
  _space_group_symop_operation_xyz
  'x, y, z'

loop_
  _atom_site_type_symbol
  _atom_site_label
  _atom_site_symmetry_multiplicity
  _atom_site_fract_x
  _atom_site_fract_y
  _atom_site_fract_z
  _atom_site_occupancy
  As  As1       1.0  0.63800  0.63800  0.27600  1.0000
  As  As2       1.0  0.36200  0.36200  0.72400  1.0000
  Ca  Ca1       1.0  0.00000  0.00000  0.00000  1.0000
  Fe  Fe1       1.0  0.75000  0.25000  0.50000  1.0000
  Fe  Fe2       1.0  0.25000  0.75000  0.50000  1.0000
