data_image0
_chemical_formula_structural       H4Mg14O32Si8
_chemical_formula_sum              "H4 Mg14 O32 Si8"
_cell_length_a       5.73063
_cell_length_b       11.4346
_cell_length_c       8.19682
_cell_angle_alpha    90
_cell_angle_beta     90
_cell_angle_gamma    90

_space_group_name_H-M_alt    "P 1"
_space_group_IT_number       1

loop_
  _space_group_symop_operation_xyz
  'x, y, z'

loop_
  _atom_site_type_symbol
  _atom_site_label
  _atom_site_symmetry_multiplicity
  _atom_site_fract_x
  _atom_site_fract_y
  _atom_site_fract_z
  _atom_site_occupancy
  H   H1        1.0  0.00000  0.25000  0.36000  1.0000
  H   H2        1.0  0.50000  0.25000  0.40300  1.0000
  H   H3        1.0  0.50000  0.75000  0.59700  1.0000
  H   H4        1.0  0.00000  0.75000  0.64000  1.0000
  Mg  Mg1       1.0  0.00000  0.00000  0.00000  1.0000
  Mg  Mg2       1.0  0.00000  0.50000  0.00000  1.0000
  Mg  Mg3       1.0  0.00000  0.75000  0.04560  1.0000
  Mg  Mg4       1.0  0.25400  0.11500  0.25200  1.0000
  Mg  Mg5       1.0  0.74600  0.11500  0.25200  1.0000
  Mg  Mg6       1.0  0.25400  0.38500  0.25200  1.0000
  Mg  Mg7       1.0  0.74600  0.38500  0.25200  1.0000
  Mg  Mg8       1.0  0.50000  0.00000  0.50000  1.0000
  Mg  Mg9       1.0  0.50000  0.50000  0.50000  1.0000
  Mg  Mg10      1.0  0.25400  0.61500  0.74800  1.0000
  Mg  Mg11      1.0  0.74600  0.61500  0.74800  1.0000
  Mg  Mg12      1.0  0.25400  0.88500  0.74800  1.0000
  Mg  Mg13      1.0  0.74600  0.88500  0.74800  1.0000
  Mg  Mg14      1.0  0.00000  0.25000  0.95400  1.0000
  O   O1        1.0  0.25800  0.12500  0.00151  1.0000
  O   O2        1.0  0.74200  0.12500  0.00151  1.0000
  O   O3        1.0  0.25800  0.37500  0.00151  1.0000
  O   O4        1.0  0.74200  0.37500  0.00151  1.0000
  O   O5        1.0  0.50000  0.75000  0.20900  1.0000
  O   O6        1.0  0.00000  0.25000  0.23900  1.0000
  O   O7        1.0  0.50000  0.51200  0.24000  1.0000
  O   O8        1.0  0.50000  0.98800  0.24000  1.0000
  O   O9        1.0  0.00000  0.51400  0.24800  1.0000
  O   O10       1.0  0.00000  0.98600  0.24800  1.0000
  O   O11       1.0  0.50000  0.25000  0.28200  1.0000
  O   O12       1.0  0.00000  0.75000  0.28900  1.0000
  O   O13       1.0  0.23200  0.11800  0.49500  1.0000
  O   O14       1.0  0.76800  0.11800  0.49500  1.0000
  O   O15       1.0  0.23200  0.38200  0.49500  1.0000
  O   O16       1.0  0.76800  0.38200  0.49500  1.0000
  O   O17       1.0  0.23200  0.61800  0.50500  1.0000
  O   O18       1.0  0.76800  0.61800  0.50500  1.0000
  O   O19       1.0  0.23200  0.88200  0.50500  1.0000
  O   O20       1.0  0.76800  0.88200  0.50500  1.0000
  O   O21       1.0  0.00000  0.25000  0.71100  1.0000
  O   O22       1.0  0.50000  0.75000  0.71800  1.0000
  O   O23       1.0  0.00000  0.01430  0.75200  1.0000
  O   O24       1.0  0.00000  0.48600  0.75200  1.0000
  O   O25       1.0  0.50000  0.01210  0.76000  1.0000
  O   O26       1.0  0.50000  0.48800  0.76000  1.0000
  O   O27       1.0  0.00000  0.75000  0.76100  1.0000
  O   O28       1.0  0.50000  0.25000  0.79100  1.0000
  O   O29       1.0  0.25800  0.62500  0.99800  1.0000
  O   O30       1.0  0.74200  0.62500  0.99800  1.0000
  O   O31       1.0  0.25800  0.87500  0.99800  1.0000
  O   O32       1.0  0.74200  0.87500  0.99800  1.0000
  Si  Si1       1.0  0.50000  0.62400  0.11300  1.0000
  Si  Si2       1.0  0.50000  0.87600  0.11300  1.0000
  Si  Si3       1.0  0.00000  0.61900  0.39100  1.0000
  Si  Si4       1.0  0.00000  0.88100  0.39100  1.0000
  Si  Si5       1.0  0.00000  0.11900  0.60900  1.0000
  Si  Si6       1.0  0.00000  0.38100  0.60900  1.0000
  Si  Si7       1.0  0.50000  0.12400  0.88700  1.0000
  Si  Si8       1.0  0.50000  0.37600  0.88700  1.0000
