data_image0
_chemical_formula_structural       Ce8Cu40In8
_chemical_formula_sum              "Ce8 Cu40 In8"
_cell_length_a       16.8237
_cell_length_b       10.6178
_cell_length_c       5.08838
_cell_angle_alpha    90
_cell_angle_beta     90
_cell_angle_gamma    90

_space_group_name_H-M_alt    "P 1"
_space_group_IT_number       1

loop_
  _space_group_symop_operation_xyz
  'x, y, z'

loop_
  _atom_site_type_symbol
  _atom_site_label
  _atom_site_symmetry_multiplicity
  _atom_site_fract_x
  _atom_site_fract_y
  _atom_site_fract_z
  _atom_site_occupancy
  Ce  Ce1       1.0  0.00000  0.00000  0.00000  1.0000
  Ce  Ce2       1.0  0.50000  0.00000  0.00000  1.0000
  Ce  Ce3       1.0  0.75500  0.38400  0.00000  1.0000
  Ce  Ce4       1.0  0.24500  0.61600  0.00000  1.0000
  Ce  Ce5       1.0  0.25500  0.11600  0.50000  1.0000
  Ce  Ce6       1.0  0.00000  0.50000  0.50000  1.0000
  Ce  Ce7       1.0  0.50000  0.50000  0.50000  1.0000
  Ce  Ce8       1.0  0.74500  0.88400  0.50000  1.0000
  Cu  Cu1       1.0  0.16900  0.07210  0.00000  1.0000
  Cu  Cu2       1.0  0.34800  0.16300  0.00000  1.0000
  Cu  Cu3       1.0  0.21700  0.30000  0.00000  1.0000
  Cu  Cu4       1.0  0.46600  0.31100  0.00000  1.0000
  Cu  Cu5       1.0  0.09720  0.44900  0.00000  1.0000
  Cu  Cu6       1.0  0.58500  0.46000  0.00000  1.0000
  Cu  Cu7       1.0  0.41500  0.54000  0.00000  1.0000
  Cu  Cu8       1.0  0.90300  0.55100  0.00000  1.0000
  Cu  Cu9       1.0  0.53400  0.68900  0.00000  1.0000
  Cu  Cu10      1.0  0.78300  0.70000  0.00000  1.0000
  Cu  Cu11      1.0  0.65200  0.83700  0.00000  1.0000
  Cu  Cu12      1.0  0.83100  0.92800  0.00000  1.0000
  Cu  Cu13      1.0  0.59200  0.25600  0.24900  1.0000
  Cu  Cu14      1.0  0.40800  0.74400  0.24900  1.0000
  Cu  Cu15      1.0  0.84100  0.13200  0.24900  1.0000
  Cu  Cu16      1.0  0.15900  0.86800  0.24900  1.0000
  Cu  Cu17      1.0  0.34100  0.36800  0.25100  1.0000
  Cu  Cu18      1.0  0.65900  0.63200  0.25100  1.0000
  Cu  Cu19      1.0  0.09220  0.24400  0.25100  1.0000
  Cu  Cu20      1.0  0.90800  0.75600  0.25100  1.0000
  Cu  Cu21      1.0  0.08520  0.03990  0.50000  1.0000
  Cu  Cu22      1.0  0.59700  0.05130  0.50000  1.0000
  Cu  Cu23      1.0  0.96600  0.18900  0.50000  1.0000
  Cu  Cu24      1.0  0.71700  0.20000  0.50000  1.0000
  Cu  Cu25      1.0  0.84800  0.33700  0.50000  1.0000
  Cu  Cu26      1.0  0.66900  0.42800  0.50000  1.0000
  Cu  Cu27      1.0  0.33100  0.57200  0.50000  1.0000
  Cu  Cu28      1.0  0.15200  0.66300  0.50000  1.0000
  Cu  Cu29      1.0  0.28300  0.80000  0.50000  1.0000
  Cu  Cu30      1.0  0.03410  0.81100  0.50000  1.0000
  Cu  Cu31      1.0  0.40300  0.94900  0.50000  1.0000
  Cu  Cu32      1.0  0.91500  0.96000  0.50000  1.0000
  Cu  Cu33      1.0  0.09220  0.24400  0.74900  1.0000
  Cu  Cu34      1.0  0.90800  0.75600  0.74900  1.0000
  Cu  Cu35      1.0  0.34100  0.36800  0.74900  1.0000
  Cu  Cu36      1.0  0.65900  0.63200  0.74900  1.0000
  Cu  Cu37      1.0  0.84100  0.13200  0.75100  1.0000
  Cu  Cu38      1.0  0.15900  0.86800  0.75100  1.0000
  Cu  Cu39      1.0  0.59200  0.25600  0.75100  1.0000
  Cu  Cu40      1.0  0.40800  0.74400  0.75100  1.0000
  In  In1       1.0  0.69400  0.08260  0.00000  1.0000
  In  In2       1.0  0.94700  0.30700  0.00000  1.0000
  In  In3       1.0  0.05320  0.69300  0.00000  1.0000
  In  In4       1.0  0.30600  0.91700  0.00000  1.0000
  In  In5       1.0  0.44700  0.19300  0.50000  1.0000
  In  In6       1.0  0.19400  0.41700  0.50000  1.0000
  In  In7       1.0  0.80600  0.58300  0.50000  1.0000
  In  In8       1.0  0.55300  0.80700  0.50000  1.0000
