data_image0
_chemical_formula_structural       Br8H24O20U4
_chemical_formula_sum              "Br8 H24 O20 U4"
_cell_length_a       9.51994
_cell_length_b       6.20649
_cell_length_c       12.6995
_cell_angle_alpha    90
_cell_angle_beta     91.6057
_cell_angle_gamma    90

_space_group_name_H-M_alt    "P 1"
_space_group_IT_number       1

loop_
  _space_group_symop_operation_xyz
  'x, y, z'

loop_
  _atom_site_type_symbol
  _atom_site_label
  _atom_site_symmetry_multiplicity
  _atom_site_fract_x
  _atom_site_fract_y
  _atom_site_fract_z
  _atom_site_occupancy
  Br  Br1       1.0  0.61400  0.57600  0.19600  1.0000
  Br  Br2       1.0  0.13700  0.49300  0.20900  1.0000
  Br  Br3       1.0  0.86300  0.99300  0.29100  1.0000
  Br  Br4       1.0  0.38600  0.07620  0.30400  1.0000
  Br  Br5       1.0  0.61400  0.92400  0.69600  1.0000
  Br  Br6       1.0  0.13700  0.00711  0.70900  1.0000
  Br  Br7       1.0  0.86300  0.50700  0.79100  1.0000
  Br  Br8       1.0  0.38600  0.42400  0.80400  1.0000
  H   H1        1.0  0.96400  0.25600  0.02850  1.0000
  H   H2        1.0  0.45900  0.27100  0.08580  1.0000
  H   H3        1.0  0.31200  0.38400  0.11100  1.0000
  H   H4        1.0  0.19500  0.79000  0.11800  1.0000
  H   H5        1.0  0.91600  0.31100  0.14200  1.0000
  H   H6        1.0  0.26900  0.99800  0.16200  1.0000
  H   H7        1.0  0.73100  0.49800  0.33800  1.0000
  H   H8        1.0  0.08440  0.81100  0.35800  1.0000
  H   H9        1.0  0.80500  0.29000  0.38200  1.0000
  H   H10       1.0  0.68800  0.88400  0.38900  1.0000
  H   H11       1.0  0.54100  0.77100  0.41400  1.0000
  H   H12       1.0  0.03610  0.75600  0.47100  1.0000
  H   H13       1.0  0.96400  0.24400  0.52900  1.0000
  H   H14       1.0  0.45900  0.22900  0.58600  1.0000
  H   H15       1.0  0.31200  0.11600  0.61100  1.0000
  H   H16       1.0  0.19500  0.71000  0.61800  1.0000
  H   H17       1.0  0.91600  0.18900  0.64200  1.0000
  H   H18       1.0  0.26900  0.50200  0.66200  1.0000
  H   H19       1.0  0.73100  0.00170  0.83800  1.0000
  H   H20       1.0  0.08440  0.68900  0.85800  1.0000
  H   H21       1.0  0.80500  0.21000  0.88200  1.0000
  H   H22       1.0  0.68800  0.61600  0.88900  1.0000
  H   H23       1.0  0.54100  0.72900  0.91400  1.0000
  H   H24       1.0  0.03610  0.74400  0.97100  1.0000
  O   O1        1.0  0.36700  0.31200  0.05500  1.0000
  O   O2        1.0  0.90000  0.74500  0.05780  1.0000
  O   O3        1.0  0.88300  0.24500  0.07550  1.0000
  O   O4        1.0  0.59500  0.06330  0.09640  1.0000
  O   O5        1.0  0.22000  0.93900  0.09820  1.0000
  O   O6        1.0  0.78000  0.43900  0.40200  1.0000
  O   O7        1.0  0.40500  0.56300  0.40400  1.0000
  O   O8        1.0  0.11700  0.74500  0.42500  1.0000
  O   O9        1.0  0.09960  0.24500  0.44200  1.0000
  O   O10       1.0  0.63300  0.81200  0.44500  1.0000
  O   O11       1.0  0.36700  0.18800  0.55500  1.0000
  O   O12       1.0  0.90000  0.75500  0.55800  1.0000
  O   O13       1.0  0.88300  0.25500  0.57500  1.0000
  O   O14       1.0  0.59500  0.43700  0.59600  1.0000
  O   O15       1.0  0.22000  0.56100  0.59800  1.0000
  O   O16       1.0  0.78000  0.06110  0.90200  1.0000
  O   O17       1.0  0.40500  0.93700  0.90400  1.0000
  O   O18       1.0  0.11700  0.75500  0.92500  1.0000
  O   O19       1.0  0.09960  0.25500  0.94200  1.0000
  O   O20       1.0  0.63300  0.68800  0.94500  1.0000
  U   U1        1.0  0.74800  0.90600  0.07780  1.0000
  U   U2        1.0  0.25200  0.40600  0.42200  1.0000
  U   U3        1.0  0.74800  0.59400  0.57800  1.0000
  U   U4        1.0  0.25200  0.09420  0.92200  1.0000
