data_image0
_chemical_formula_structural       HMg16O32Si8
_chemical_formula_sum              "H1 Mg16 O32 Si8"
_cell_length_a       10.175
_cell_length_b       5.99255
_cell_length_c       9.52648
_cell_angle_alpha    90.4795
_cell_angle_beta     90.1339
_cell_angle_gamma    90.5974

_space_group_name_H-M_alt    "P 1"
_space_group_IT_number       1

loop_
  _space_group_symop_operation_xyz
  'x, y, z'

loop_
  _atom_site_type_symbol
  _atom_site_label
  _atom_site_symmetry_multiplicity
  _atom_site_fract_x
  _atom_site_fract_y
  _atom_site_fract_z
  _atom_site_occupancy
  H   H1        1.0  0.28100  0.47700  0.30900  1.0000
  Mg  Mg1       1.0  0.72400  0.74900  0.00277  1.0000
  Mg  Mg2       1.0  0.21300  0.79200  0.23300  1.0000
  Mg  Mg3       1.0  0.51500  0.50100  0.24400  1.0000
  Mg  Mg4       1.0  0.50200  1.00000  0.24800  1.0000
  Mg  Mg5       1.0  0.77900  0.24700  0.25500  1.0000
  Mg  Mg6       1.0  0.00048  0.50300  0.50100  1.0000
  Mg  Mg7       1.0  0.99500  0.00228  0.50200  1.0000
  Mg  Mg8       1.0  0.72300  0.74700  0.50600  1.0000
  Mg  Mg9       1.0  0.27400  0.22000  0.50700  1.0000
  Mg  Mg10      1.0  0.22100  0.75000  0.74700  1.0000
  Mg  Mg11      1.0  0.49900  0.49300  0.75000  1.0000
  Mg  Mg12      1.0  0.50300  0.99400  0.75000  1.0000
  Mg  Mg13      1.0  0.77600  0.25100  0.75400  1.0000
  Mg  Mg14      1.0  0.28000  0.24800  0.99300  1.0000
  Mg  Mg15      1.0  0.99600  0.01010  0.99900  1.0000
  Mg  Mg16      1.0  0.99900  0.50900  0.99900  1.0000
  O   O1        1.0  0.66900  0.46600  0.11000  1.0000
  O   O2        1.0  0.44900  0.25000  0.11000  1.0000
  O   O3        1.0  0.66500  0.02960  0.11100  1.0000
  O   O4        1.0  0.90900  0.75600  0.11500  1.0000
  O   O5        1.0  0.16200  0.05310  0.13100  1.0000
  O   O6        1.0  0.40700  0.74800  0.13600  1.0000
  O   O7        1.0  0.94600  0.26200  0.13900  1.0000
  O   O8        1.0  0.16800  0.48500  0.14900  1.0000
  O   O9        1.0  0.05400  0.75600  0.36100  1.0000
  O   O10       1.0  0.83600  0.53200  0.36200  1.0000
  O   O11       1.0  0.83500  0.96800  0.36300  1.0000
  O   O12       1.0  0.59400  0.24600  0.36500  1.0000
  O   O13       1.0  0.32900  0.94800  0.38600  1.0000
  O   O14       1.0  0.09230  0.25000  0.38600  1.0000
  O   O15       1.0  0.55200  0.74700  0.38800  1.0000
  O   O16       1.0  0.34600  0.49200  0.38900  1.0000
  O   O17       1.0  0.44600  0.23800  0.61100  1.0000
  O   O18       1.0  0.66400  0.02840  0.61100  1.0000
  O   O19       1.0  0.66200  0.46700  0.61200  1.0000
  O   O20       1.0  0.90700  0.75100  0.61500  1.0000
  O   O21       1.0  0.40600  0.74100  0.63400  1.0000
  O   O22       1.0  0.16400  0.46800  0.63800  1.0000
  O   O23       1.0  0.94400  0.25300  0.63900  1.0000
  O   O24       1.0  0.16000  0.03180  0.64200  1.0000
  O   O25       1.0  0.83600  0.97100  0.86100  1.0000
  O   O26       1.0  0.83500  0.53400  0.86200  1.0000
  O   O27       1.0  0.05350  0.75600  0.86200  1.0000
  O   O28       1.0  0.59300  0.24700  0.86400  1.0000
  O   O29       1.0  0.09060  0.25900  0.88600  1.0000
  O   O30       1.0  0.33600  0.52700  0.88700  1.0000
  O   O31       1.0  0.33700  0.96400  0.88800  1.0000
  O   O32       1.0  0.55400  0.74600  0.88900  1.0000
  Si  Si1       1.0  0.59700  0.24600  0.03410  1.0000
  Si  Si2       1.0  0.09300  0.26400  0.21500  1.0000
  Si  Si3       1.0  0.90500  0.75100  0.28600  1.0000
  Si  Si4       1.0  0.40600  0.74400  0.46400  1.0000
  Si  Si5       1.0  0.59500  0.24500  0.53600  1.0000
  Si  Si6       1.0  0.09190  0.25400  0.71500  1.0000
  Si  Si7       1.0  0.90500  0.75300  0.78600  1.0000
  Si  Si8       1.0  0.40600  0.74600  0.96400  1.0000
