data_image0
_chemical_formula_structural       As4C4Ga4H20N4O20
_chemical_formula_sum              "As4 C4 Ga4 H20 N4 O20"
_cell_length_a       4.65781
_cell_length_b       5.9767
_cell_length_c       18.4693
_cell_angle_alpha    90
_cell_angle_beta     95.5247
_cell_angle_gamma    90

_space_group_name_H-M_alt    "P 1"
_space_group_IT_number       1

loop_
  _space_group_symop_operation_xyz
  'x, y, z'

loop_
  _atom_site_type_symbol
  _atom_site_label
  _atom_site_symmetry_multiplicity
  _atom_site_fract_x
  _atom_site_fract_y
  _atom_site_fract_z
  _atom_site_occupancy
  As  As1       1.0  0.49100  0.87900  0.15100  1.0000
  As  As2       1.0  0.50900  0.37900  0.34900  1.0000
  As  As3       1.0  0.49100  0.62100  0.65100  1.0000
  As  As4       1.0  0.50900  0.12100  0.84900  1.0000
  C   C1        1.0  0.10600  0.41400  0.01670  1.0000
  C   C2        1.0  0.89400  0.91400  0.48300  1.0000
  C   C3        1.0  0.10600  0.08580  0.51700  1.0000
  C   C4        1.0  0.89400  0.58600  0.98300  1.0000
  Ga  Ga1       1.0  0.98300  0.60800  0.24200  1.0000
  Ga  Ga2       1.0  0.01700  0.10800  0.25800  1.0000
  Ga  Ga3       1.0  0.98300  0.89200  0.74200  1.0000
  Ga  Ga4       1.0  0.01700  0.39200  0.75800  1.0000
  H   H1        1.0  0.77700  0.17800  0.01830  1.0000
  H   H2        1.0  0.77600  0.66600  0.02500  1.0000
  H   H3        1.0  0.26300  0.49000  0.05770  1.0000
  H   H4        1.0  0.10000  0.10500  0.06410  1.0000
  H   H5        1.0  0.88800  0.29100  0.10300  1.0000
  H   H6        1.0  0.11200  0.79100  0.39700  1.0000
  H   H7        1.0  0.90000  0.60500  0.43600  1.0000
  H   H8        1.0  0.73700  0.99000  0.44200  1.0000
  H   H9        1.0  0.22400  0.16600  0.47500  1.0000
  H   H10       1.0  0.22300  0.67800  0.48200  1.0000
  H   H11       1.0  0.77700  0.32200  0.51800  1.0000
  H   H12       1.0  0.77600  0.83400  0.52500  1.0000
  H   H13       1.0  0.26300  0.00999  0.55800  1.0000
  H   H14       1.0  0.10000  0.39500  0.56400  1.0000
  H   H15       1.0  0.88800  0.20900  0.60300  1.0000
  H   H16       1.0  0.11200  0.70900  0.89700  1.0000
  H   H17       1.0  0.90000  0.89500  0.93600  1.0000
  H   H18       1.0  0.73700  0.51000  0.94200  1.0000
  H   H19       1.0  0.22400  0.33400  0.97500  1.0000
  H   H20       1.0  0.22300  0.82200  0.98200  1.0000
  N   N1        1.0  0.95100  0.23800  0.05330  1.0000
  N   N2        1.0  0.04870  0.73800  0.44700  1.0000
  N   N3        1.0  0.95100  0.26200  0.55300  1.0000
  N   N4        1.0  0.04870  0.76200  0.94700  1.0000
  O   O1        1.0  0.38500  0.92800  0.06200  1.0000
  O   O2        1.0  0.67200  0.63000  0.16200  1.0000
  O   O3        1.0  0.66400  0.11600  0.18600  1.0000
  O   O4        1.0  0.17400  0.86700  0.19400  1.0000
  O   O5        1.0  0.13500  0.34900  0.19900  1.0000
  O   O6        1.0  0.86500  0.84900  0.30100  1.0000
  O   O7        1.0  0.82600  0.36700  0.30600  1.0000
  O   O8        1.0  0.33600  0.61600  0.31400  1.0000
  O   O9        1.0  0.32800  0.13000  0.33800  1.0000
  O   O10       1.0  0.61500  0.42800  0.43800  1.0000
  O   O11       1.0  0.38500  0.57200  0.56200  1.0000
  O   O12       1.0  0.67200  0.87000  0.66200  1.0000
  O   O13       1.0  0.66400  0.38400  0.68600  1.0000
  O   O14       1.0  0.17400  0.63300  0.69400  1.0000
  O   O15       1.0  0.13500  0.15100  0.69900  1.0000
  O   O16       1.0  0.86500  0.65100  0.80100  1.0000
  O   O17       1.0  0.82600  0.13300  0.80600  1.0000
  O   O18       1.0  0.33600  0.88400  0.81400  1.0000
  O   O19       1.0  0.32800  0.37000  0.83800  1.0000
  O   O20       1.0  0.61500  0.07180  0.93800  1.0000
