data_image0
_chemical_formula_structural       C8Fe4Na12O32S2
_chemical_formula_sum              "C8 Fe4 Na12 O32 S2"
_cell_length_a       9.76982
_cell_length_b       9.76982
_cell_length_c       9.76982
_cell_angle_alpha    120
_cell_angle_beta     90
_cell_angle_gamma    120

_space_group_name_H-M_alt    "P 1"
_space_group_IT_number       1

loop_
  _space_group_symop_operation_xyz
  'x, y, z'

loop_
  _atom_site_type_symbol
  _atom_site_label
  _atom_site_symmetry_multiplicity
  _atom_site_fract_x
  _atom_site_fract_y
  _atom_site_fract_z
  _atom_site_occupancy
  C   C1        1.0  0.33900  0.05900  0.28000  1.0000
  C   C2        1.0  0.72000  0.05900  0.28000  1.0000
  C   C3        1.0  0.72000  0.44100  0.28000  1.0000
  C   C4        1.0  0.28000  0.55900  0.33900  1.0000
  C   C5        1.0  0.72000  0.44100  0.66100  1.0000
  C   C6        1.0  0.28000  0.55900  0.72000  1.0000
  C   C7        1.0  0.28000  0.94100  0.72000  1.0000
  C   C8        1.0  0.66100  0.94100  0.72000  1.0000
  Fe  Fe1       1.0  0.50000  0.00000  0.00000  1.0000
  Fe  Fe2       1.0  0.50000  0.00000  0.50000  1.0000
  Fe  Fe3       1.0  0.00000  0.50000  0.50000  1.0000
  Fe  Fe4       1.0  0.50000  0.50000  0.50000  1.0000
  Na  Na1       1.0  0.34000  0.67900  0.08970  1.0000
  Na  Na2       1.0  0.34000  0.25000  0.08970  1.0000
  Na  Na3       1.0  0.91000  0.25000  0.08970  1.0000
  Na  Na4       1.0  0.08970  0.17900  0.34000  1.0000
  Na  Na5       1.0  0.08970  0.75000  0.34000  1.0000
  Na  Na6       1.0  0.66000  0.75000  0.34000  1.0000
  Na  Na7       1.0  0.34000  0.25000  0.66000  1.0000
  Na  Na8       1.0  0.91000  0.25000  0.66000  1.0000
  Na  Na9       1.0  0.91000  0.82100  0.66000  1.0000
  Na  Na10      1.0  0.66000  0.32100  0.91000  1.0000
  Na  Na11      1.0  0.08970  0.75000  0.91000  1.0000
  Na  Na12      1.0  0.66000  0.75000  0.91000  1.0000
  O   O1        1.0  0.93700  0.62500  0.06260  1.0000
  O   O2        1.0  0.68800  0.62500  0.06260  1.0000
  O   O3        1.0  0.93700  0.87500  0.06260  1.0000
  O   O4        1.0  0.70000  0.03590  0.13700  1.0000
  O   O5        1.0  0.33600  0.93700  0.13700  1.0000
  O   O6        1.0  0.60100  0.30000  0.13700  1.0000
  O   O7        1.0  0.86300  0.46400  0.30000  1.0000
  O   O8        1.0  0.60100  0.93700  0.30000  1.0000
  O   O9        1.0  0.33600  0.20000  0.30000  1.0000
  O   O10       1.0  0.93700  0.87500  0.31200  1.0000
  O   O11       1.0  0.30000  0.70000  0.33600  1.0000
  O   O12       1.0  0.39900  0.53600  0.33600  1.0000
  O   O13       1.0  0.13700  0.43700  0.33600  1.0000
  O   O14       1.0  0.70000  0.56300  0.39900  1.0000
  O   O15       1.0  0.86300  0.20000  0.39900  1.0000
  O   O16       1.0  0.33600  0.03590  0.39900  1.0000
  O   O17       1.0  0.13700  0.80000  0.60100  1.0000
  O   O18       1.0  0.66400  0.96400  0.60100  1.0000
  O   O19       1.0  0.30000  0.43700  0.60100  1.0000
  O   O20       1.0  0.86300  0.56300  0.66400  1.0000
  O   O21       1.0  0.70000  0.30000  0.66400  1.0000
  O   O22       1.0  0.60100  0.46400  0.66400  1.0000
  O   O23       1.0  0.06260  0.12500  0.68800  1.0000
  O   O24       1.0  0.39900  0.06300  0.70000  1.0000
  O   O25       1.0  0.13700  0.53600  0.70000  1.0000
  O   O26       1.0  0.66400  0.80000  0.70000  1.0000
  O   O27       1.0  0.39900  0.70000  0.86300  1.0000
  O   O28       1.0  0.30000  0.96400  0.86300  1.0000
  O   O29       1.0  0.66400  0.06300  0.86300  1.0000
  O   O30       1.0  0.06260  0.37500  0.93700  1.0000
  O   O31       1.0  0.31200  0.37500  0.93700  1.0000
  O   O32       1.0  0.06260  0.12500  0.93700  1.0000
  S   S1        1.0  0.87500  0.75000  0.12500  1.0000
  S   S2        1.0  0.12500  0.25000  0.87500  1.0000
