data_image0
_chemical_formula_structural       Ba8Eu8O32Pt4Zn4
_chemical_formula_sum              "Ba8 Eu8 O32 Pt4 Zn4"
_cell_length_a       13.3303
_cell_length_b       5.76876
_cell_length_c       10.4023
_cell_angle_alpha    90
_cell_angle_beta     90
_cell_angle_gamma    90

_space_group_name_H-M_alt    "P 1"
_space_group_IT_number       1

loop_
  _space_group_symop_operation_xyz
  'x, y, z'

loop_
  _atom_site_type_symbol
  _atom_site_label
  _atom_site_symmetry_multiplicity
  _atom_site_fract_x
  _atom_site_fract_y
  _atom_site_fract_z
  _atom_site_occupancy
  Ba  Ba1       1.0  0.58300  0.25000  0.11300  1.0000
  Ba  Ba2       1.0  0.20800  0.75000  0.17300  1.0000
  Ba  Ba3       1.0  0.70800  0.75000  0.32700  1.0000
  Ba  Ba4       1.0  0.08290  0.25000  0.38700  1.0000
  Ba  Ba5       1.0  0.91700  0.75000  0.61300  1.0000
  Ba  Ba6       1.0  0.29200  0.25000  0.67300  1.0000
  Ba  Ba7       1.0  0.79200  0.25000  0.82700  1.0000
  Ba  Ba8       1.0  0.41700  0.75000  0.88700  1.0000
  Eu  Eu1       1.0  0.08060  0.25000  0.00694  1.0000
  Eu  Eu2       1.0  0.86500  0.25000  0.18700  1.0000
  Eu  Eu3       1.0  0.36500  0.25000  0.31300  1.0000
  Eu  Eu4       1.0  0.58100  0.25000  0.49300  1.0000
  Eu  Eu5       1.0  0.41900  0.75000  0.50700  1.0000
  Eu  Eu6       1.0  0.63500  0.75000  0.68700  1.0000
  Eu  Eu7       1.0  0.13500  0.75000  0.81300  1.0000
  Eu  Eu8       1.0  0.91900  0.75000  0.99300  1.0000
  O   O1        1.0  0.77200  0.51100  0.05910  1.0000
  O   O2        1.0  0.77200  0.98900  0.05910  1.0000
  O   O3        1.0  0.59400  0.75000  0.11500  1.0000
  O   O4        1.0  0.38900  0.00089  0.12100  1.0000
  O   O5        1.0  0.38900  0.49900  0.12100  1.0000
  O   O6        1.0  0.00463  0.50900  0.15100  1.0000
  O   O7        1.0  0.00463  0.99100  0.15100  1.0000
  O   O8        1.0  0.21400  0.25000  0.17600  1.0000
  O   O9        1.0  0.71400  0.25000  0.32400  1.0000
  O   O10       1.0  0.50500  0.50900  0.34900  1.0000
  O   O11       1.0  0.50500  0.99100  0.34900  1.0000
  O   O12       1.0  0.88900  0.00089  0.37900  1.0000
  O   O13       1.0  0.88900  0.49900  0.37900  1.0000
  O   O14       1.0  0.09370  0.75000  0.38500  1.0000
  O   O15       1.0  0.27200  0.51100  0.44100  1.0000
  O   O16       1.0  0.27200  0.98900  0.44100  1.0000
  O   O17       1.0  0.72800  0.01080  0.55900  1.0000
  O   O18       1.0  0.72800  0.48900  0.55900  1.0000
  O   O19       1.0  0.90600  0.25000  0.61500  1.0000
  O   O20       1.0  0.11100  0.50100  0.62100  1.0000
  O   O21       1.0  0.11100  0.99900  0.62100  1.0000
  O   O22       1.0  0.49500  0.00933  0.65100  1.0000
  O   O23       1.0  0.49500  0.49100  0.65100  1.0000
  O   O24       1.0  0.28600  0.75000  0.67600  1.0000
  O   O25       1.0  0.78600  0.75000  0.82400  1.0000
  O   O26       1.0  0.99500  0.00933  0.84900  1.0000
  O   O27       1.0  0.99500  0.49100  0.84900  1.0000
  O   O28       1.0  0.61100  0.50100  0.87900  1.0000
  O   O29       1.0  0.61100  0.99900  0.87900  1.0000
  O   O30       1.0  0.40600  0.25000  0.88500  1.0000
  O   O31       1.0  0.22800  0.01080  0.94100  1.0000
  O   O32       1.0  0.22800  0.48900  0.94100  1.0000
  Pt  Pt1       1.0  0.31000  0.25000  0.02950  1.0000
  Pt  Pt2       1.0  0.81000  0.25000  0.47000  1.0000
  Pt  Pt3       1.0  0.19000  0.75000  0.53000  1.0000
  Pt  Pt4       1.0  0.69000  0.75000  0.97000  1.0000
  Zn  Zn1       1.0  0.46900  0.75000  0.22300  1.0000
  Zn  Zn2       1.0  0.96900  0.75000  0.27700  1.0000
  Zn  Zn3       1.0  0.03090  0.25000  0.72300  1.0000
  Zn  Zn4       1.0  0.53100  0.25000  0.77700  1.0000
