data_image0
_chemical_formula_structural       Ba12Nd4O34Ti8
_chemical_formula_sum              "Ba12 Nd4 O34 Ti8"
_cell_length_a       5.99226
_cell_length_b       5.99226
_cell_length_c       30.2262
_cell_angle_alpha    90
_cell_angle_beta     90
_cell_angle_gamma    120

_space_group_name_H-M_alt    "P 1"
_space_group_IT_number       1

loop_
  _space_group_symop_operation_xyz
  'x, y, z'

loop_
  _atom_site_type_symbol
  _atom_site_label
  _atom_site_symmetry_multiplicity
  _atom_site_fract_x
  _atom_site_fract_y
  _atom_site_fract_z
  _atom_site_occupancy
  Ba  Ba1       1.0  0.00000  0.00000  0.00000  1.0000
  Ba  Ba2       1.0  0.66700  0.33300  0.09000  1.0000
  Ba  Ba3       1.0  0.33300  0.66700  0.18600  1.0000
  Ba  Ba4       1.0  0.00000  0.00000  0.25000  1.0000
  Ba  Ba5       1.0  0.33300  0.66700  0.31400  1.0000
  Ba  Ba6       1.0  0.66700  0.33300  0.41000  1.0000
  Ba  Ba7       1.0  0.00000  0.00000  0.50000  1.0000
  Ba  Ba8       1.0  0.33300  0.66700  0.59000  1.0000
  Ba  Ba9       1.0  0.66700  0.33300  0.68600  1.0000
  Ba  Ba10      1.0  0.00000  0.00000  0.75000  1.0000
  Ba  Ba11      1.0  0.66700  0.33300  0.81400  1.0000
  Ba  Ba12      1.0  0.33300  0.66700  0.91000  1.0000
  Nd  Nd1       1.0  0.00000  0.00000  0.12600  1.0000
  Nd  Nd2       1.0  0.00000  0.00000  0.37400  1.0000
  Nd  Nd3       1.0  0.00000  0.00000  0.62600  1.0000
  Nd  Nd4       1.0  0.00000  0.00000  0.87400  1.0000
  O   O1        1.0  0.66700  0.33300  0.00756  1.0000
  O   O2        1.0  0.16900  0.83100  0.07470  1.0000
  O   O3        1.0  0.66300  0.83100  0.07470  1.0000
  O   O4        1.0  0.16900  0.33700  0.07470  1.0000
  O   O5        1.0  0.35400  0.17700  0.17100  1.0000
  O   O6        1.0  0.82300  0.17700  0.17100  1.0000
  O   O7        1.0  0.82300  0.64600  0.17100  1.0000
  O   O8        1.0  0.51700  0.03330  0.25000  1.0000
  O   O9        1.0  0.51700  0.48300  0.25000  1.0000
  O   O10       1.0  0.96700  0.48300  0.25000  1.0000
  O   O11       1.0  0.82300  0.64600  0.32900  1.0000
  O   O12       1.0  0.35400  0.17700  0.32900  1.0000
  O   O13       1.0  0.82300  0.17700  0.32900  1.0000
  O   O14       1.0  0.16900  0.33700  0.42500  1.0000
  O   O15       1.0  0.16900  0.83100  0.42500  1.0000
  O   O16       1.0  0.66300  0.83100  0.42500  1.0000
  O   O17       1.0  0.66700  0.33300  0.49200  1.0000
  O   O18       1.0  0.33300  0.66700  0.50800  1.0000
  O   O19       1.0  0.33700  0.16900  0.57500  1.0000
  O   O20       1.0  0.83100  0.16900  0.57500  1.0000
  O   O21       1.0  0.83100  0.66300  0.57500  1.0000
  O   O22       1.0  0.17700  0.82300  0.67100  1.0000
  O   O23       1.0  0.64600  0.82300  0.67100  1.0000
  O   O24       1.0  0.17700  0.35400  0.67100  1.0000
  O   O25       1.0  0.03330  0.51700  0.75000  1.0000
  O   O26       1.0  0.48300  0.51700  0.75000  1.0000
  O   O27       1.0  0.48300  0.96700  0.75000  1.0000
  O   O28       1.0  0.17700  0.35400  0.82900  1.0000
  O   O29       1.0  0.17700  0.82300  0.82900  1.0000
  O   O30       1.0  0.64600  0.82300  0.82900  1.0000
  O   O31       1.0  0.83100  0.66300  0.92500  1.0000
  O   O32       1.0  0.33700  0.16900  0.92500  1.0000
  O   O33       1.0  0.83100  0.16900  0.92500  1.0000
  O   O34       1.0  0.33300  0.66700  0.99200  1.0000
  Ti  Ti1       1.0  0.33300  0.66700  0.05170  1.0000
  Ti  Ti2       1.0  0.66700  0.33300  0.20500  1.0000
  Ti  Ti3       1.0  0.66700  0.33300  0.29500  1.0000
  Ti  Ti4       1.0  0.33300  0.66700  0.44800  1.0000
  Ti  Ti5       1.0  0.66700  0.33300  0.55200  1.0000
  Ti  Ti6       1.0  0.33300  0.66700  0.70500  1.0000
  Ti  Ti7       1.0  0.33300  0.66700  0.79500  1.0000
  Ti  Ti8       1.0  0.66700  0.33300  0.94800  1.0000
