data_image0
_chemical_formula_structural       Ba6Ni25S27
_chemical_formula_sum              "Ba6 Ni25 S27"
_cell_length_a       10.0524
_cell_length_b       10.0524
_cell_length_c       10.0524
_cell_angle_alpha    90
_cell_angle_beta     90
_cell_angle_gamma    90

_space_group_name_H-M_alt    "P 1"
_space_group_IT_number       1

loop_
  _space_group_symop_operation_xyz
  'x, y, z'

loop_
  _atom_site_type_symbol
  _atom_site_label
  _atom_site_symmetry_multiplicity
  _atom_site_fract_x
  _atom_site_fract_y
  _atom_site_fract_z
  _atom_site_occupancy
  Ba  Ba1       1.0  0.50000  0.50000  0.19500  1.0000
  Ba  Ba2       1.0  0.50000  0.19500  0.50000  1.0000
  Ba  Ba3       1.0  0.19500  0.50000  0.50000  1.0000
  Ba  Ba4       1.0  0.80500  0.50000  0.50000  1.0000
  Ba  Ba5       1.0  0.50000  0.80500  0.50000  1.0000
  Ba  Ba6       1.0  0.50000  0.50000  0.80500  1.0000
  Ni  Ni1       1.0  0.00000  0.00000  0.00000  1.0000
  Ni  Ni2       1.0  0.35900  0.13300  0.13300  1.0000
  Ni  Ni3       1.0  0.64100  0.13300  0.13300  1.0000
  Ni  Ni4       1.0  0.13300  0.35900  0.13300  1.0000
  Ni  Ni5       1.0  0.86700  0.35900  0.13300  1.0000
  Ni  Ni6       1.0  0.13300  0.64100  0.13300  1.0000
  Ni  Ni7       1.0  0.86700  0.64100  0.13300  1.0000
  Ni  Ni8       1.0  0.35900  0.86700  0.13300  1.0000
  Ni  Ni9       1.0  0.64100  0.86700  0.13300  1.0000
  Ni  Ni10      1.0  0.13300  0.13300  0.35900  1.0000
  Ni  Ni11      1.0  0.86700  0.13300  0.35900  1.0000
  Ni  Ni12      1.0  0.13300  0.86700  0.35900  1.0000
  Ni  Ni13      1.0  0.86700  0.86700  0.35900  1.0000
  Ni  Ni14      1.0  0.13300  0.13300  0.64100  1.0000
  Ni  Ni15      1.0  0.86700  0.13300  0.64100  1.0000
  Ni  Ni16      1.0  0.13300  0.86700  0.64100  1.0000
  Ni  Ni17      1.0  0.86700  0.86700  0.64100  1.0000
  Ni  Ni18      1.0  0.35900  0.13300  0.86700  1.0000
  Ni  Ni19      1.0  0.64100  0.13300  0.86700  1.0000
  Ni  Ni20      1.0  0.13300  0.35900  0.86700  1.0000
  Ni  Ni21      1.0  0.86700  0.35900  0.86700  1.0000
  Ni  Ni22      1.0  0.13300  0.64100  0.86700  1.0000
  Ni  Ni23      1.0  0.86700  0.64100  0.86700  1.0000
  Ni  Ni24      1.0  0.35900  0.86700  0.86700  1.0000
  Ni  Ni25      1.0  0.64100  0.86700  0.86700  1.0000
  S   S1        1.0  0.23900  0.00000  0.00000  1.0000
  S   S2        1.0  0.76100  0.00000  0.00000  1.0000
  S   S3        1.0  0.50000  0.23800  0.00000  1.0000
  S   S4        1.0  0.00000  0.23900  0.00000  1.0000
  S   S5        1.0  0.23800  0.50000  0.00000  1.0000
  S   S6        1.0  0.76200  0.50000  0.00000  1.0000
  S   S7        1.0  0.00000  0.76100  0.00000  1.0000
  S   S8        1.0  0.50000  0.76200  0.00000  1.0000
  S   S9        1.0  0.50000  0.00000  0.23800  1.0000
  S   S10       1.0  0.00000  0.50000  0.23800  1.0000
  S   S11       1.0  0.00000  0.00000  0.23900  1.0000
  S   S12       1.0  0.27800  0.27800  0.27800  1.0000
  S   S13       1.0  0.72200  0.27800  0.27800  1.0000
  S   S14       1.0  0.27800  0.72200  0.27800  1.0000
  S   S15       1.0  0.72200  0.72200  0.27800  1.0000
  S   S16       1.0  0.23800  0.00000  0.50000  1.0000
  S   S17       1.0  0.76200  0.00000  0.50000  1.0000
  S   S18       1.0  0.00000  0.23800  0.50000  1.0000
  S   S19       1.0  0.50000  0.50000  0.50000  1.0000
  S   S20       1.0  0.00000  0.76200  0.50000  1.0000
  S   S21       1.0  0.27800  0.27800  0.72200  1.0000
  S   S22       1.0  0.72200  0.27800  0.72200  1.0000
  S   S23       1.0  0.27800  0.72200  0.72200  1.0000
  S   S24       1.0  0.72200  0.72200  0.72200  1.0000
  S   S25       1.0  0.00000  0.00000  0.76100  1.0000
  S   S26       1.0  0.50000  0.00000  0.76200  1.0000
  S   S27       1.0  0.00000  0.50000  0.76200  1.0000
