data_image0
_chemical_formula_structural       Ge16Pd42
_chemical_formula_sum              "Ge16 Pd42"
_cell_length_a       10.1657
_cell_length_b       10.6763
_cell_length_c       10.6763
_cell_angle_alpha    103.101
_cell_angle_beta     61.5697
_cell_angle_gamma    118.43

_space_group_name_H-M_alt    "P 1"
_space_group_IT_number       1

loop_
  _space_group_symop_operation_xyz
  'x, y, z'

loop_
  _atom_site_type_symbol
  _atom_site_label
  _atom_site_symmetry_multiplicity
  _atom_site_fract_x
  _atom_site_fract_y
  _atom_site_fract_z
  _atom_site_occupancy
  Ge  Ge1       1.0  0.34500  0.77800  0.03070  1.0000
  Ge  Ge2       1.0  0.07980  0.35600  0.05050  1.0000
  Ge  Ge3       1.0  0.13000  0.05050  0.14400  1.0000
  Ge  Ge4       1.0  0.43400  0.53100  0.22200  1.0000
  Ge  Ge5       1.0  0.62500  0.96900  0.27800  1.0000
  Ge  Ge6       1.0  0.72300  0.44900  0.35600  1.0000
  Ge  Ge7       1.0  0.27400  0.14400  0.44900  1.0000
  Ge  Ge8       1.0  0.09700  0.72200  0.46900  1.0000
  Ge  Ge9       1.0  0.90300  0.27800  0.53100  1.0000
  Ge  Ge10      1.0  0.72600  0.85600  0.55100  1.0000
  Ge  Ge11      1.0  0.27700  0.55100  0.64400  1.0000
  Ge  Ge12      1.0  0.37500  0.03070  0.72200  1.0000
  Ge  Ge13      1.0  0.56600  0.46900  0.77800  1.0000
  Ge  Ge14      1.0  0.87000  0.94900  0.85600  1.0000
  Ge  Ge15      1.0  0.92000  0.64400  0.94900  1.0000
  Ge  Ge16      1.0  0.65500  0.22200  0.96900  1.0000
  Pd  Pd1       1.0  0.37700  0.54400  0.01660  1.0000
  Pd  Pd2       1.0  0.60600  0.98300  0.04370  1.0000
  Pd  Pd3       1.0  0.70300  0.77300  0.05990  1.0000
  Pd  Pd4       1.0  0.83600  0.40600  0.08760  1.0000
  Pd  Pd5       1.0  0.92300  0.08760  0.09370  1.0000
  Pd  Pd6       1.0  0.06680  0.78500  0.10700  1.0000
  Pd  Pd7       1.0  0.38900  0.23200  0.17400  1.0000
  Pd  Pd8       1.0  0.71800  0.60700  0.21500  1.0000
  Pd  Pd9       1.0  0.07020  0.56000  0.22700  1.0000
  Pd  Pd10      1.0  0.15700  0.32600  0.23200  1.0000
  Pd  Pd11      1.0  0.37500  0.75000  0.25000  1.0000
  Pd  Pd12      1.0  0.56300  0.17400  0.26800  1.0000
  Pd  Pd13      1.0  0.23700  0.94000  0.27300  1.0000
  Pd  Pd14      1.0  0.82600  0.89300  0.28500  1.0000
  Pd  Pd15      1.0  0.83100  0.26800  0.32600  1.0000
  Pd  Pd16      1.0  0.88900  0.71500  0.39300  1.0000
  Pd  Pd17      1.0  0.43000  0.41200  0.40600  1.0000
  Pd  Pd18      1.0  0.01710  0.09370  0.41200  1.0000
  Pd  Pd19      1.0  0.49000  0.72700  0.44000  1.0000
  Pd  Pd20      1.0  0.16600  0.51700  0.45600  1.0000
  Pd  Pd21      1.0  0.35000  0.95600  0.48300  1.0000
  Pd  Pd22      1.0  0.65000  0.04370  0.51700  1.0000
  Pd  Pd23      1.0  0.83400  0.48300  0.54400  1.0000
  Pd  Pd24      1.0  0.51000  0.27300  0.56000  1.0000
  Pd  Pd25      1.0  0.98300  0.90600  0.58800  1.0000
  Pd  Pd26      1.0  0.57000  0.58800  0.59400  1.0000
  Pd  Pd27      1.0  0.11100  0.28500  0.60700  1.0000
  Pd  Pd28      1.0  0.16900  0.73200  0.67400  1.0000
  Pd  Pd29      1.0  0.17400  0.10700  0.71500  1.0000
  Pd  Pd30      1.0  0.76300  0.05990  0.72700  1.0000
  Pd  Pd31      1.0  0.43700  0.82600  0.73200  1.0000
  Pd  Pd32      1.0  0.62500  0.25000  0.75000  1.0000
  Pd  Pd33      1.0  0.84300  0.67400  0.76800  1.0000
  Pd  Pd34      1.0  0.93000  0.44000  0.77300  1.0000
  Pd  Pd35      1.0  0.28200  0.39300  0.78500  1.0000
  Pd  Pd36      1.0  0.61100  0.76800  0.82600  1.0000
  Pd  Pd37      1.0  0.93300  0.21500  0.89300  1.0000
  Pd  Pd38      1.0  0.07650  0.91200  0.90600  1.0000
  Pd  Pd39      1.0  0.16400  0.59400  0.91200  1.0000
  Pd  Pd40      1.0  0.29700  0.22700  0.94000  1.0000
  Pd  Pd41      1.0  0.39400  0.01660  0.95600  1.0000
  Pd  Pd42      1.0  0.62300  0.45600  0.98300  1.0000
