data_image0
_chemical_formula_structural       Ce8O36Se12
_chemical_formula_sum              "Ce8 O36 Se12"
_cell_length_a       8.41058
_cell_length_b       14.0648
_cell_length_c       7.03532
_cell_angle_alpha    90
_cell_angle_beta     90
_cell_angle_gamma    90

_space_group_name_H-M_alt    "P 1"
_space_group_IT_number       1

loop_
  _space_group_symop_operation_xyz
  'x, y, z'

loop_
  _atom_site_type_symbol
  _atom_site_label
  _atom_site_symmetry_multiplicity
  _atom_site_fract_x
  _atom_site_fract_y
  _atom_site_fract_z
  _atom_site_occupancy
  Ce  Ce1       1.0  0.19900  0.06320  0.18200  1.0000
  Ce  Ce2       1.0  0.19900  0.43700  0.18200  1.0000
  Ce  Ce3       1.0  0.69900  0.06320  0.31800  1.0000
  Ce  Ce4       1.0  0.69900  0.43700  0.31800  1.0000
  Ce  Ce5       1.0  0.30100  0.56300  0.68200  1.0000
  Ce  Ce6       1.0  0.30100  0.93700  0.68200  1.0000
  Ce  Ce7       1.0  0.80100  0.56300  0.81800  1.0000
  Ce  Ce8       1.0  0.80100  0.93700  0.81800  1.0000
  O   O1        1.0  0.29400  0.60300  0.03430  1.0000
  O   O2        1.0  0.29400  0.89700  0.03430  1.0000
  O   O3        1.0  0.16000  0.25000  0.05700  1.0000
  O   O4        1.0  0.61600  0.57400  0.08600  1.0000
  O   O5        1.0  0.61600  0.92600  0.08600  1.0000
  O   O6        1.0  0.92500  0.54100  0.14600  1.0000
  O   O7        1.0  0.92500  0.95900  0.14600  1.0000
  O   O8        1.0  0.94500  0.15400  0.23900  1.0000
  O   O9        1.0  0.94500  0.34600  0.23900  1.0000
  O   O10       1.0  0.44500  0.15400  0.26100  1.0000
  O   O11       1.0  0.44500  0.34600  0.26100  1.0000
  O   O12       1.0  0.42500  0.54100  0.35400  1.0000
  O   O13       1.0  0.42500  0.95900  0.35400  1.0000
  O   O14       1.0  0.11600  0.57400  0.41400  1.0000
  O   O15       1.0  0.11600  0.92600  0.41400  1.0000
  O   O16       1.0  0.66000  0.25000  0.44300  1.0000
  O   O17       1.0  0.79400  0.60300  0.46600  1.0000
  O   O18       1.0  0.79400  0.89700  0.46600  1.0000
  O   O19       1.0  0.20600  0.10300  0.53400  1.0000
  O   O20       1.0  0.20600  0.39700  0.53400  1.0000
  O   O21       1.0  0.34000  0.75000  0.55700  1.0000
  O   O22       1.0  0.88400  0.07440  0.58600  1.0000
  O   O23       1.0  0.88400  0.42600  0.58600  1.0000
  O   O24       1.0  0.57500  0.04150  0.64600  1.0000
  O   O25       1.0  0.57500  0.45900  0.64600  1.0000
  O   O26       1.0  0.55500  0.65400  0.73900  1.0000
  O   O27       1.0  0.55500  0.84600  0.73900  1.0000
  O   O28       1.0  0.05540  0.65400  0.76100  1.0000
  O   O29       1.0  0.05540  0.84600  0.76100  1.0000
  O   O30       1.0  0.07490  0.04150  0.85400  1.0000
  O   O31       1.0  0.07490  0.45900  0.85400  1.0000
  O   O32       1.0  0.38400  0.07440  0.91400  1.0000
  O   O33       1.0  0.38400  0.42600  0.91400  1.0000
  O   O34       1.0  0.84000  0.75000  0.94300  1.0000
  O   O35       1.0  0.70600  0.10300  0.96600  1.0000
  O   O36       1.0  0.70600  0.39700  0.96600  1.0000
  Se  Se1       1.0  0.95600  0.25000  0.08610  1.0000
  Se  Se2       1.0  0.45300  0.62900  0.18100  1.0000
  Se  Se3       1.0  0.45300  0.87100  0.18100  1.0000
  Se  Se4       1.0  0.95300  0.62900  0.31900  1.0000
  Se  Se5       1.0  0.95300  0.87100  0.31900  1.0000
  Se  Se6       1.0  0.45600  0.25000  0.41400  1.0000
  Se  Se7       1.0  0.54400  0.75000  0.58600  1.0000
  Se  Se8       1.0  0.04730  0.12900  0.68100  1.0000
  Se  Se9       1.0  0.04730  0.37100  0.68100  1.0000
  Se  Se10      1.0  0.54700  0.12900  0.81900  1.0000
  Se  Se11      1.0  0.54700  0.37100  0.81900  1.0000
  Se  Se12      1.0  0.04410  0.75000  0.91400  1.0000
