data_image0
_chemical_formula_structural       C6Ca3H24N6O12S6
_chemical_formula_sum              "C6 Ca3 H24 N6 O12 S6"
_cell_length_a       7.73563
_cell_length_b       7.73563
_cell_length_c       12.4117
_cell_angle_alpha    90
_cell_angle_beta     90
_cell_angle_gamma    120

_space_group_name_H-M_alt    "P 1"
_space_group_IT_number       1

loop_
  _space_group_symop_operation_xyz
  'x, y, z'

loop_
  _atom_site_type_symbol
  _atom_site_label
  _atom_site_symmetry_multiplicity
  _atom_site_fract_x
  _atom_site_fract_y
  _atom_site_fract_z
  _atom_site_occupancy
  C   C1        1.0  0.51400  0.77500  0.11700  1.0000
  C   C2        1.0  0.73900  0.22500  0.21600  1.0000
  C   C3        1.0  0.26100  0.48600  0.45000  1.0000
  C   C4        1.0  0.48600  0.26100  0.55000  1.0000
  C   C5        1.0  0.22500  0.73900  0.78400  1.0000
  C   C6        1.0  0.77500  0.51400  0.88300  1.0000
  Ca  Ca1       1.0  0.99800  0.99800  0.00000  1.0000
  Ca  Ca2       1.0  0.00000  0.00191  0.33300  1.0000
  Ca  Ca3       1.0  0.00191  0.00000  0.66700  1.0000
  H   H1        1.0  0.87900  0.31800  0.03070  1.0000
  H   H2        1.0  0.42800  0.08110  0.03440  1.0000
  H   H3        1.0  0.10100  0.78600  0.15700  1.0000
  H   H4        1.0  0.21200  0.34200  0.16400  1.0000
  H   H5        1.0  0.87000  0.65800  0.17000  1.0000
  H   H6        1.0  0.31600  0.21400  0.17600  1.0000
  H   H7        1.0  0.34700  0.91900  0.29900  1.0000
  H   H8        1.0  0.56100  0.68200  0.30300  1.0000
  H   H9        1.0  0.43900  0.12100  0.36400  1.0000
  H   H10       1.0  0.65300  0.57200  0.36800  1.0000
  H   H11       1.0  0.68400  0.89900  0.49100  1.0000
  H   H12       1.0  0.13000  0.78800  0.49700  1.0000
  H   H13       1.0  0.78800  0.13000  0.50300  1.0000
  H   H14       1.0  0.89900  0.68400  0.50900  1.0000
  H   H15       1.0  0.57200  0.65300  0.63200  1.0000
  H   H16       1.0  0.12100  0.43900  0.63600  1.0000
  H   H17       1.0  0.68200  0.56100  0.69700  1.0000
  H   H18       1.0  0.91900  0.34700  0.70100  1.0000
  H   H19       1.0  0.21400  0.31600  0.82400  1.0000
  H   H20       1.0  0.65800  0.87000  0.83000  1.0000
  H   H21       1.0  0.34200  0.21200  0.83600  1.0000
  H   H22       1.0  0.78600  0.10100  0.84300  1.0000
  H   H23       1.0  0.08110  0.42800  0.96600  1.0000
  H   H24       1.0  0.31800  0.87900  0.96900  1.0000
  N   N1        1.0  0.65800  0.86000  0.06300  1.0000
  N   N2        1.0  0.79800  0.14000  0.27000  1.0000
  N   N3        1.0  0.20200  0.34200  0.39600  1.0000
  N   N4        1.0  0.34200  0.20200  0.60400  1.0000
  N   N5        1.0  0.14000  0.79800  0.73000  1.0000
  N   N6        1.0  0.86000  0.65800  0.93700  1.0000
  O   O1        1.0  0.29600  0.97800  0.00826  1.0000
  O   O2        1.0  0.18600  0.20300  0.15900  1.0000
  O   O3        1.0  0.98300  0.79700  0.17400  1.0000
  O   O4        1.0  0.31900  0.02210  0.32500  1.0000
  O   O5        1.0  0.68100  0.70400  0.34200  1.0000
  O   O6        1.0  0.01740  0.81400  0.49300  1.0000
  O   O7        1.0  0.81400  0.01740  0.50700  1.0000
  O   O8        1.0  0.70400  0.68100  0.65800  1.0000
  O   O9        1.0  0.02210  0.31900  0.67500  1.0000
  O   O10       1.0  0.79700  0.98300  0.82600  1.0000
  O   O11       1.0  0.20300  0.18600  0.84100  1.0000
  O   O12       1.0  0.97800  0.29600  0.99200  1.0000
  S   S1        1.0  0.66100  0.34200  0.13800  1.0000
  S   S2        1.0  0.31900  0.65800  0.19600  1.0000
  S   S3        1.0  0.68100  0.33900  0.47100  1.0000
  S   S4        1.0  0.33900  0.68100  0.52900  1.0000
  S   S5        1.0  0.65800  0.31900  0.80400  1.0000
  S   S6        1.0  0.34200  0.66100  0.86200  1.0000
