data_image0
_chemical_formula_structural       Ba6Ca2Cu2O34Si12
_chemical_formula_sum              "Ba6 Ca2 Cu2 O34 Si12"
_cell_length_a       7.05351
_cell_length_b       8.01062
_cell_length_c       15.9848
_cell_angle_alpha    90
_cell_angle_beta     90
_cell_angle_gamma    116.12

_space_group_name_H-M_alt    "P 1"
_space_group_IT_number       1

loop_
  _space_group_symop_operation_xyz
  'x, y, z'

loop_
  _atom_site_type_symbol
  _atom_site_label
  _atom_site_symmetry_multiplicity
  _atom_site_fract_x
  _atom_site_fract_y
  _atom_site_fract_z
  _atom_site_occupancy
  Ba  Ba1       1.0  0.49200  0.49800  0.11200  1.0000
  Ba  Ba2       1.0  0.97500  0.01370  0.25000  1.0000
  Ba  Ba3       1.0  0.49200  0.49800  0.38800  1.0000
  Ba  Ba4       1.0  0.00632  0.49800  0.61200  1.0000
  Ba  Ba5       1.0  0.03890  0.01370  0.75000  1.0000
  Ba  Ba6       1.0  0.00632  0.49800  0.88800  1.0000
  Ca  Ca1       1.0  0.99500  0.98900  0.00000  1.0000
  Ca  Ca2       1.0  0.99500  0.98900  0.50000  1.0000
  Cu  Cu1       1.0  0.47300  0.94600  0.00000  1.0000
  Cu  Cu2       1.0  0.47300  0.94600  0.50000  1.0000
  O   O1        1.0  0.76300  0.13400  0.00192  1.0000
  O   O2        1.0  0.18300  0.75600  0.00777  1.0000
  O   O3        1.0  0.87400  0.46000  0.07370  1.0000
  O   O4        1.0  0.07770  0.24100  0.10800  1.0000
  O   O5        1.0  0.92800  0.79200  0.12100  1.0000
  O   O6        1.0  0.20400  0.64700  0.16600  1.0000
  O   O7        1.0  0.69700  0.15900  0.16800  1.0000
  O   O8        1.0  0.47900  0.31900  0.25000  1.0000
  O   O9        1.0  0.55800  0.73900  0.25000  1.0000
  O   O10       1.0  0.34700  0.96000  0.25000  1.0000
  O   O11       1.0  0.69700  0.15900  0.33200  1.0000
  O   O12       1.0  0.20400  0.64700  0.33400  1.0000
  O   O13       1.0  0.92800  0.79200  0.37900  1.0000
  O   O14       1.0  0.07770  0.24100  0.39200  1.0000
  O   O15       1.0  0.87400  0.46000  0.42600  1.0000
  O   O16       1.0  0.18300  0.75600  0.49200  1.0000
  O   O17       1.0  0.76300  0.13400  0.49800  1.0000
  O   O18       1.0  0.37100  0.13400  0.50200  1.0000
  O   O19       1.0  0.57300  0.75600  0.50800  1.0000
  O   O20       1.0  0.58600  0.46000  0.57400  1.0000
  O   O21       1.0  0.16300  0.24100  0.60800  1.0000
  O   O22       1.0  0.86400  0.79200  0.62100  1.0000
  O   O23       1.0  0.44300  0.64700  0.66600  1.0000
  O   O24       1.0  0.46200  0.15900  0.66800  1.0000
  O   O25       1.0  0.84000  0.31900  0.75000  1.0000
  O   O26       1.0  0.18000  0.73900  0.75000  1.0000
  O   O27       1.0  0.61300  0.96000  0.75000  1.0000
  O   O28       1.0  0.46200  0.15900  0.83200  1.0000
  O   O29       1.0  0.44300  0.64700  0.83400  1.0000
  O   O30       1.0  0.86400  0.79200  0.87900  1.0000
  O   O31       1.0  0.16300  0.24100  0.89200  1.0000
  O   O32       1.0  0.58600  0.46000  0.92600  1.0000
  O   O33       1.0  0.57300  0.75600  0.99200  1.0000
  O   O34       1.0  0.37100  0.13400  0.99800  1.0000
  Si  Si1       1.0  0.85900  0.24900  0.08790  1.0000
  Si  Si2       1.0  0.05380  0.67600  0.09420  1.0000
  Si  Si3       1.0  0.55800  0.16200  0.25000  1.0000
  Si  Si4       1.0  0.34000  0.75200  0.25000  1.0000
  Si  Si5       1.0  0.05380  0.67600  0.40600  1.0000
  Si  Si6       1.0  0.85900  0.24900  0.41200  1.0000
  Si  Si7       1.0  0.39100  0.24900  0.58800  1.0000
  Si  Si8       1.0  0.62300  0.67600  0.59400  1.0000
  Si  Si9       1.0  0.60400  0.16200  0.75000  1.0000
  Si  Si10      1.0  0.41200  0.75200  0.75000  1.0000
  Si  Si11      1.0  0.62300  0.67600  0.90600  1.0000
  Si  Si12      1.0  0.39100  0.24900  0.91200  1.0000
