data_image0
_chemical_formula_structural       H24N4O28U2
_chemical_formula_sum              "H24 N4 O28 U2"
_cell_length_a       7.36422
_cell_length_b       7.36422
_cell_length_c       10.8632
_cell_angle_alpha    90
_cell_angle_beta     90
_cell_angle_gamma    62.7648

_space_group_name_H-M_alt    "P 1"
_space_group_IT_number       1

loop_
  _space_group_symop_operation_xyz
  'x, y, z'

loop_
  _atom_site_type_symbol
  _atom_site_label
  _atom_site_symmetry_multiplicity
  _atom_site_fract_x
  _atom_site_fract_y
  _atom_site_fract_z
  _atom_site_occupancy
  H   H1        1.0  0.14100  0.45500  0.00299  1.0000
  H   H2        1.0  0.54500  0.85900  0.00299  1.0000
  H   H3        1.0  0.09190  0.64800  0.08750  1.0000
  H   H4        1.0  0.35200  0.90800  0.08750  1.0000
  H   H5        1.0  0.05270  0.41300  0.17400  1.0000
  H   H6        1.0  0.58700  0.94700  0.17400  1.0000
  H   H7        1.0  0.16400  0.30500  0.30600  1.0000
  H   H8        1.0  0.69500  0.83600  0.30600  1.0000
  H   H9        1.0  0.31800  0.42100  0.41800  1.0000
  H   H10       1.0  0.57900  0.68200  0.41800  1.0000
  H   H11       1.0  0.16400  0.35500  0.48500  1.0000
  H   H12       1.0  0.64500  0.83600  0.48500  1.0000
  H   H13       1.0  0.45500  0.14100  0.50300  1.0000
  H   H14       1.0  0.85900  0.54500  0.50300  1.0000
  H   H15       1.0  0.64800  0.09190  0.58700  1.0000
  H   H16       1.0  0.90800  0.35200  0.58700  1.0000
  H   H17       1.0  0.41300  0.05270  0.67400  1.0000
  H   H18       1.0  0.94700  0.58700  0.67400  1.0000
  H   H19       1.0  0.30500  0.16400  0.80600  1.0000
  H   H20       1.0  0.83600  0.69500  0.80600  1.0000
  H   H21       1.0  0.42100  0.31800  0.91800  1.0000
  H   H22       1.0  0.68200  0.57900  0.91800  1.0000
  H   H23       1.0  0.35500  0.16400  0.98500  1.0000
  H   H24       1.0  0.83600  0.64500  0.98500  1.0000
  N   N1        1.0  0.50300  0.49700  0.15900  1.0000
  N   N2        1.0  0.21900  0.78100  0.36400  1.0000
  N   N3        1.0  0.49700  0.50300  0.65900  1.0000
  N   N4        1.0  0.78100  0.21900  0.86400  1.0000
  O   O1        1.0  0.03440  0.55700  0.06210  1.0000
  O   O2        1.0  0.44300  0.96600  0.06210  1.0000
  O   O3        1.0  0.95800  0.04170  0.09530  1.0000
  O   O4        1.0  0.34600  0.65400  0.13100  1.0000
  O   O5        1.0  0.50100  0.32600  0.17400  1.0000
  O   O6        1.0  0.67400  0.49900  0.17400  1.0000
  O   O7        1.0  0.06800  0.30800  0.23800  1.0000
  O   O8        1.0  0.69200  0.93200  0.23800  1.0000
  O   O9        1.0  0.05570  0.77100  0.34000  1.0000
  O   O10       1.0  0.22900  0.94400  0.34000  1.0000
  O   O11       1.0  0.77800  0.22200  0.39700  1.0000
  O   O12       1.0  0.37000  0.63000  0.41000  1.0000
  O   O13       1.0  0.28500  0.30600  0.42600  1.0000
  O   O14       1.0  0.69400  0.71500  0.42600  1.0000
  O   O15       1.0  0.55700  0.03440  0.56200  1.0000
  O   O16       1.0  0.96600  0.44300  0.56200  1.0000
  O   O17       1.0  0.04170  0.95800  0.59500  1.0000
  O   O18       1.0  0.65400  0.34600  0.63100  1.0000
  O   O19       1.0  0.32600  0.50100  0.67400  1.0000
  O   O20       1.0  0.49900  0.67400  0.67400  1.0000
  O   O21       1.0  0.30800  0.06800  0.73800  1.0000
  O   O22       1.0  0.93200  0.69200  0.73800  1.0000
  O   O23       1.0  0.77100  0.05570  0.84000  1.0000
  O   O24       1.0  0.94400  0.22900  0.84000  1.0000
  O   O25       1.0  0.22200  0.77800  0.89700  1.0000
  O   O26       1.0  0.63000  0.37000  0.91000  1.0000
  O   O27       1.0  0.30600  0.28500  0.92600  1.0000
  O   O28       1.0  0.71500  0.69400  0.92600  1.0000
  U   U1        1.0  0.86900  0.13100  0.24700  1.0000
  U   U2        1.0  0.13100  0.86900  0.74700  1.0000
