data_image0
_chemical_formula_structural       H22N2O22P6Zn5
_chemical_formula_sum              "H22 N2 O22 P6 Zn5"
_cell_length_a       6.9986
_cell_length_b       9.69107
_cell_length_c       10.0208
_cell_angle_alpha    63.8921
_cell_angle_beta     85.988
_cell_angle_gamma    71.3539

_space_group_name_H-M_alt    "P 1"
_space_group_IT_number       1

loop_
  _space_group_symop_operation_xyz
  'x, y, z'

loop_
  _atom_site_type_symbol
  _atom_site_label
  _atom_site_symmetry_multiplicity
  _atom_site_fract_x
  _atom_site_fract_y
  _atom_site_fract_z
  _atom_site_occupancy
  H   H1        1.0  0.03700  0.65300  0.04900  1.0000
  H   H2        1.0  0.73300  0.08690  0.07900  1.0000
  H   H3        1.0  0.76000  0.90300  0.08840  1.0000
  H   H4        1.0  0.92000  0.92700  0.19400  1.0000
  H   H5        1.0  0.66900  0.94800  0.23100  1.0000
  H   H6        1.0  0.07600  0.17000  0.23800  1.0000
  H   H7        1.0  0.62500  0.21100  0.26800  1.0000
  H   H8        1.0  0.28300  0.30200  0.34800  1.0000
  H   H9        1.0  0.96800  0.47600  0.40500  1.0000
  H   H10       1.0  0.73000  0.19700  0.40600  1.0000
  H   H11       1.0  0.68800  0.72100  0.48800  1.0000
  H   H12       1.0  0.31200  0.27900  0.51200  1.0000
  H   H13       1.0  0.27000  0.80300  0.59400  1.0000
  H   H14       1.0  0.03160  0.52400  0.59500  1.0000
  H   H15       1.0  0.71700  0.69800  0.65200  1.0000
  H   H16       1.0  0.37500  0.78900  0.73200  1.0000
  H   H17       1.0  0.92400  0.83000  0.76200  1.0000
  H   H18       1.0  0.33100  0.05180  0.76900  1.0000
  H   H19       1.0  0.08050  0.07280  0.80600  1.0000
  H   H20       1.0  0.24000  0.09700  0.91200  1.0000
  H   H21       1.0  0.26700  0.91300  0.92100  1.0000
  H   H22       1.0  0.96300  0.34700  0.95100  1.0000
  N   N1        1.0  0.77200  0.96300  0.15000  1.0000
  N   N2        1.0  0.22800  0.03680  0.85000  1.0000
  O   O1        1.0  0.34800  0.69900  0.01970  1.0000
  O   O2        1.0  0.28300  0.16400  0.03860  1.0000
  O   O3        1.0  0.32000  0.41000  0.15100  1.0000
  O   O4        1.0  0.80900  0.48000  0.20100  1.0000
  O   O5        1.0  0.16700  0.92900  0.20500  1.0000
  O   O6        1.0  0.20700  0.59200  0.27600  1.0000
  O   O7        1.0  0.42100  0.99900  0.31000  1.0000
  O   O8        1.0  0.63500  0.64800  0.34300  1.0000
  O   O9        1.0  0.70300  0.12900  0.36200  1.0000
  O   O10       1.0  0.27900  0.22800  0.45400  1.0000
  O   O11       1.0  0.72400  0.33600  0.46200  1.0000
  O   O12       1.0  0.27600  0.66400  0.53800  1.0000
  O   O13       1.0  0.72100  0.77200  0.54600  1.0000
  O   O14       1.0  0.29700  0.87100  0.63800  1.0000
  O   O15       1.0  0.36500  0.35200  0.65700  1.0000
  O   O16       1.0  0.57900  0.00098  0.69000  1.0000
  O   O17       1.0  0.79300  0.40800  0.72400  1.0000
  O   O18       1.0  0.83300  0.07140  0.79500  1.0000
  O   O19       1.0  0.19100  0.52000  0.79900  1.0000
  O   O20       1.0  0.68000  0.59000  0.84900  1.0000
  O   O21       1.0  0.71700  0.83600  0.96100  1.0000
  O   O22       1.0  0.65200  0.30100  0.98000  1.0000
  P   P1        1.0  0.22900  0.58900  0.12500  1.0000
  P   P2        1.0  0.23800  0.06590  0.20100  1.0000
  P   P3        1.0  0.78300  0.48500  0.35200  1.0000
  P   P4        1.0  0.21700  0.51500  0.64800  1.0000
  P   P5        1.0  0.76200  0.93400  0.79900  1.0000
  P   P6        1.0  0.77100  0.41100  0.87500  1.0000
  Zn  Zn1       1.0  0.64400  0.64000  0.02090  1.0000
  Zn  Zn2       1.0  0.34100  0.70800  0.33400  1.0000
  Zn  Zn3       1.0  0.50000  0.00000  0.50000  1.0000
  Zn  Zn4       1.0  0.65900  0.29200  0.66600  1.0000
  Zn  Zn5       1.0  0.35600  0.36000  0.97900  1.0000
