data_image0
_chemical_formula_structural       Pr20Se38
_chemical_formula_sum              "Pr20 Se38"
_cell_length_a       9.3703
_cell_length_b       9.3703
_cell_length_c       17.1101
_cell_angle_alpha    90
_cell_angle_beta     90
_cell_angle_gamma    90

_space_group_name_H-M_alt    "P 1"
_space_group_IT_number       1

loop_
  _space_group_symop_operation_xyz
  'x, y, z'

loop_
  _atom_site_type_symbol
  _atom_site_label
  _atom_site_symmetry_multiplicity
  _atom_site_fract_x
  _atom_site_fract_y
  _atom_site_fract_z
  _atom_site_occupancy
  Pr  Pr1       1.0  0.14800  0.05370  0.10600  1.0000
  Pr  Pr2       1.0  0.35200  0.44600  0.10600  1.0000
  Pr  Pr3       1.0  0.75000  0.25000  0.11700  1.0000
  Pr  Pr4       1.0  0.95700  0.65300  0.12000  1.0000
  Pr  Pr5       1.0  0.54300  0.84700  0.12000  1.0000
  Pr  Pr6       1.0  0.65300  0.54300  0.38000  1.0000
  Pr  Pr7       1.0  0.84700  0.95700  0.38000  1.0000
  Pr  Pr8       1.0  0.25000  0.75000  0.38300  1.0000
  Pr  Pr9       1.0  0.44600  0.14800  0.39400  1.0000
  Pr  Pr10      1.0  0.05370  0.35200  0.39400  1.0000
  Pr  Pr11      1.0  0.94600  0.64800  0.60600  1.0000
  Pr  Pr12      1.0  0.55400  0.85200  0.60600  1.0000
  Pr  Pr13      1.0  0.75000  0.25000  0.61700  1.0000
  Pr  Pr14      1.0  0.15300  0.04350  0.62000  1.0000
  Pr  Pr15      1.0  0.34700  0.45700  0.62000  1.0000
  Pr  Pr16      1.0  0.45700  0.15300  0.88000  1.0000
  Pr  Pr17      1.0  0.04350  0.34700  0.88000  1.0000
  Pr  Pr18      1.0  0.25000  0.75000  0.88300  1.0000
  Pr  Pr19      1.0  0.64800  0.55400  0.89400  1.0000
  Pr  Pr20      1.0  0.85200  0.94600  0.89400  1.0000
  Se  Se1       1.0  0.44800  0.14900  0.06330  1.0000
  Se  Se2       1.0  0.05200  0.35100  0.06330  1.0000
  Se  Se3       1.0  0.25000  0.75000  0.06430  1.0000
  Se  Se4       1.0  0.65300  0.54900  0.07130  1.0000
  Se  Se5       1.0  0.84700  0.95100  0.07130  1.0000
  Se  Se6       1.0  0.43400  0.61800  0.24900  1.0000
  Se  Se7       1.0  0.06580  0.88200  0.24900  1.0000
  Se  Se8       1.0  0.97000  0.17300  0.25000  1.0000
  Se  Se9       1.0  0.53000  0.32700  0.25000  1.0000
  Se  Se10      1.0  0.75000  0.75000  0.25000  1.0000
  Se  Se11      1.0  0.17300  0.53000  0.25000  1.0000
  Se  Se12      1.0  0.32700  0.97000  0.25000  1.0000
  Se  Se13      1.0  0.61800  0.06580  0.25100  1.0000
  Se  Se14      1.0  0.88200  0.43400  0.25100  1.0000
  Se  Se15      1.0  0.95100  0.65300  0.42900  1.0000
  Se  Se16      1.0  0.54900  0.84700  0.42900  1.0000
  Se  Se17      1.0  0.75000  0.25000  0.43600  1.0000
  Se  Se18      1.0  0.14900  0.05200  0.43700  1.0000
  Se  Se19      1.0  0.35100  0.44800  0.43700  1.0000
  Se  Se20      1.0  0.64900  0.55200  0.56300  1.0000
  Se  Se21      1.0  0.85100  0.94800  0.56300  1.0000
  Se  Se22      1.0  0.25000  0.75000  0.56400  1.0000
  Se  Se23      1.0  0.45100  0.15300  0.57100  1.0000
  Se  Se24      1.0  0.04880  0.34700  0.57100  1.0000
  Se  Se25      1.0  0.11800  0.56600  0.74900  1.0000
  Se  Se26      1.0  0.38200  0.93400  0.74900  1.0000
  Se  Se27      1.0  0.67300  0.02960  0.75000  1.0000
  Se  Se28      1.0  0.82700  0.47000  0.75000  1.0000
  Se  Se29      1.0  0.25000  0.25000  0.75000  1.0000
  Se  Se30      1.0  0.47000  0.67300  0.75000  1.0000
  Se  Se31      1.0  0.02960  0.82700  0.75000  1.0000
  Se  Se32      1.0  0.93400  0.11800  0.75100  1.0000
  Se  Se33      1.0  0.56600  0.38200  0.75100  1.0000
  Se  Se34      1.0  0.15300  0.04880  0.92900  1.0000
  Se  Se35      1.0  0.34700  0.45100  0.92900  1.0000
  Se  Se36      1.0  0.75000  0.25000  0.93600  1.0000
  Se  Se37      1.0  0.94800  0.64900  0.93700  1.0000
  Se  Se38      1.0  0.55200  0.85100  0.93700  1.0000
