data_image0
_chemical_formula_structural       Al12B10F6O30
_chemical_formula_sum              "Al12 B10 F6 O30"
_cell_length_a       8.52527
_cell_length_b       8.52553
_cell_length_c       8.14738
_cell_angle_alpha    90
_cell_angle_beta     90
_cell_angle_gamma    120.001

_space_group_name_H-M_alt    "P 1"
_space_group_IT_number       1

loop_
  _space_group_symop_operation_xyz
  'x, y, z'

loop_
  _atom_site_type_symbol
  _atom_site_label
  _atom_site_symmetry_multiplicity
  _atom_site_fract_x
  _atom_site_fract_y
  _atom_site_fract_z
  _atom_site_occupancy
  Al  Al1       1.0  0.66300  0.64700  0.07560  1.0000
  Al  Al2       1.0  0.35300  0.01640  0.07560  1.0000
  Al  Al3       1.0  0.98400  0.33700  0.07560  1.0000
  Al  Al4       1.0  0.98400  0.33700  0.42400  1.0000
  Al  Al5       1.0  0.35300  0.01640  0.42400  1.0000
  Al  Al6       1.0  0.66300  0.64700  0.42400  1.0000
  Al  Al7       1.0  0.33700  0.35300  0.57600  1.0000
  Al  Al8       1.0  0.64700  0.98400  0.57600  1.0000
  Al  Al9       1.0  0.01640  0.66300  0.57600  1.0000
  Al  Al10      1.0  0.01640  0.66300  0.92400  1.0000
  Al  Al11      1.0  0.64700  0.98400  0.92400  1.0000
  Al  Al12      1.0  0.33700  0.35300  0.92400  1.0000
  B   B1        1.0  0.33300  0.66700  0.05730  1.0000
  B   B2        1.0  0.23000  0.23400  0.25000  1.0000
  B   B3        1.0  0.00345  0.77000  0.25000  1.0000
  B   B4        1.0  0.76600  0.99700  0.25000  1.0000
  B   B5        1.0  0.33300  0.66700  0.44300  1.0000
  B   B6        1.0  0.66700  0.33300  0.55700  1.0000
  B   B7        1.0  0.23400  0.00340  0.75000  1.0000
  B   B8        1.0  0.99700  0.23000  0.75000  1.0000
  B   B9        1.0  0.77000  0.76600  0.75000  1.0000
  B   B10       1.0  0.66700  0.33300  0.94300  1.0000
  F   F1        1.0  0.50500  0.11800  0.25000  1.0000
  F   F2        1.0  0.88200  0.38700  0.25000  1.0000
  F   F3        1.0  0.61300  0.49500  0.25000  1.0000
  F   F4        1.0  0.38700  0.50500  0.75000  1.0000
  F   F5        1.0  0.11800  0.61300  0.75000  1.0000
  F   F6        1.0  0.49500  0.88200  0.75000  1.0000
  O   O1        1.0  0.41100  0.56000  0.05750  1.0000
  O   O2        1.0  0.14900  0.58900  0.05750  1.0000
  O   O3        1.0  0.44000  0.85100  0.05750  1.0000
  O   O4        1.0  0.28400  0.19600  0.10100  1.0000
  O   O5        1.0  0.91200  0.71600  0.10100  1.0000
  O   O6        1.0  0.80400  0.08780  0.10100  1.0000
  O   O7        1.0  0.11600  0.30400  0.25000  1.0000
  O   O8        1.0  0.69600  0.81200  0.25000  1.0000
  O   O9        1.0  0.18800  0.88400  0.25000  1.0000
  O   O10       1.0  0.80400  0.08780  0.39900  1.0000
  O   O11       1.0  0.91200  0.71600  0.39900  1.0000
  O   O12       1.0  0.28400  0.19600  0.39900  1.0000
  O   O13       1.0  0.44000  0.85100  0.44200  1.0000
  O   O14       1.0  0.14900  0.58900  0.44200  1.0000
  O   O15       1.0  0.41100  0.56000  0.44200  1.0000
  O   O16       1.0  0.58900  0.44000  0.55800  1.0000
  O   O17       1.0  0.85100  0.41100  0.55800  1.0000
  O   O18       1.0  0.56000  0.14900  0.55800  1.0000
  O   O19       1.0  0.71600  0.80400  0.60100  1.0000
  O   O20       1.0  0.08780  0.28400  0.60100  1.0000
  O   O21       1.0  0.19600  0.91200  0.60100  1.0000
  O   O22       1.0  0.81200  0.11600  0.75000  1.0000
  O   O23       1.0  0.30400  0.18800  0.75000  1.0000
  O   O24       1.0  0.88400  0.69600  0.75000  1.0000
  O   O25       1.0  0.19600  0.91200  0.89900  1.0000
  O   O26       1.0  0.08780  0.28400  0.89900  1.0000
  O   O27       1.0  0.71600  0.80400  0.89900  1.0000
  O   O28       1.0  0.56000  0.14900  0.94200  1.0000
  O   O29       1.0  0.85100  0.41100  0.94200  1.0000
  O   O30       1.0  0.58900  0.44000  0.94200  1.0000
