data_image0
_chemical_formula_structural       H24NiO24P2U2
_chemical_formula_sum              "H24 Ni1 O24 P2 U2"
_cell_length_a       6.81073
_cell_length_b       6.82478
_cell_length_c       10.6724
_cell_angle_alpha    81.9539
_cell_angle_beta     82.3293
_cell_angle_gamma    88.903

_space_group_name_H-M_alt    "P 1"
_space_group_IT_number       1

loop_
  _space_group_symop_operation_xyz
  'x, y, z'

loop_
  _atom_site_type_symbol
  _atom_site_label
  _atom_site_symmetry_multiplicity
  _atom_site_fract_x
  _atom_site_fract_y
  _atom_site_fract_z
  _atom_site_occupancy
  H   H1        1.0  0.55100  0.31500  0.22900  1.0000
  H   H2        1.0  0.89200  0.06940  0.23300  1.0000
  H   H3        1.0  0.10900  0.56100  0.23700  1.0000
  H   H4        1.0  0.33400  0.88600  0.24500  1.0000
  H   H5        1.0  0.07950  0.03060  0.31200  1.0000
  H   H6        1.0  0.26200  0.42200  0.31500  1.0000
  H   H7        1.0  0.37800  0.06330  0.32400  1.0000
  H   H8        1.0  0.56100  0.30400  0.37800  1.0000
  H   H9        1.0  0.84600  0.22600  0.40400  1.0000
  H   H10       1.0  0.72500  0.67800  0.40700  1.0000
  H   H11       1.0  0.86100  0.85700  0.40900  1.0000
  H   H12       1.0  0.26400  0.77400  0.45400  1.0000
  H   H13       1.0  0.73600  0.22600  0.54600  1.0000
  H   H14       1.0  0.13900  0.14300  0.59100  1.0000
  H   H15       1.0  0.27500  0.32200  0.59300  1.0000
  H   H16       1.0  0.15400  0.77400  0.59600  1.0000
  H   H17       1.0  0.43900  0.69600  0.62200  1.0000
  H   H18       1.0  0.62200  0.93700  0.67600  1.0000
  H   H19       1.0  0.73800  0.57800  0.68500  1.0000
  H   H20       1.0  0.92100  0.96900  0.68800  1.0000
  H   H21       1.0  0.66600  0.11400  0.75500  1.0000
  H   H22       1.0  0.89100  0.43900  0.76300  1.0000
  H   H23       1.0  0.10800  0.93100  0.76700  1.0000
  H   H24       1.0  0.44900  0.68500  0.77100  1.0000
  Ni  Ni1       1.0  0.00000  0.50000  0.50000  1.0000
  O   O1        1.0  0.66300  0.39400  0.08110  1.0000
  O   O2        1.0  0.05760  0.67400  0.08780  1.0000
  O   O3        1.0  0.39300  0.81300  0.08890  1.0000
  O   O4        1.0  0.80300  0.05370  0.09000  1.0000
  O   O5        1.0  0.23100  0.23200  0.09490  1.0000
  O   O6        1.0  0.67900  0.68200  0.24500  1.0000
  O   O7        1.0  0.47300  0.27800  0.31500  1.0000
  O   O8        1.0  0.93200  0.05980  0.32000  1.0000
  O   O9        1.0  0.14700  0.51300  0.32200  1.0000
  O   O10       1.0  0.29600  0.94000  0.32600  1.0000
  O   O11       1.0  0.81000  0.72900  0.46200  1.0000
  O   O12       1.0  0.77500  0.31600  0.46300  1.0000
  O   O13       1.0  0.22500  0.68400  0.53700  1.0000
  O   O14       1.0  0.19000  0.27100  0.53800  1.0000
  O   O15       1.0  0.70400  0.06000  0.67400  1.0000
  O   O16       1.0  0.85300  0.48700  0.67800  1.0000
  O   O17       1.0  0.06750  0.94000  0.68000  1.0000
  O   O18       1.0  0.52700  0.72200  0.68500  1.0000
  O   O19       1.0  0.32100  0.31800  0.75500  1.0000
  O   O20       1.0  0.76900  0.76800  0.90500  1.0000
  O   O21       1.0  0.19700  0.94600  0.91000  1.0000
  O   O22       1.0  0.60700  0.18700  0.91100  1.0000
  O   O23       1.0  0.94200  0.32600  0.91200  1.0000
  O   O24       1.0  0.33700  0.60600  0.91900  1.0000
  P   P1        1.0  0.24500  0.76100  0.00160  1.0000
  P   P2        1.0  0.75500  0.23900  0.99800  1.0000
  U   U1        1.0  0.72500  0.72700  0.07490  1.0000
  U   U2        1.0  0.27500  0.27300  0.92500  1.0000
