data_image0
_chemical_formula_structural       Ce28Ni8Si20
_chemical_formula_sum              "Ce28 Ni8 Si20"
_cell_length_a       23.3462
_cell_length_b       4.33821
_cell_length_c       13.8517
_cell_angle_alpha    90
_cell_angle_beta     90
_cell_angle_gamma    90

_space_group_name_H-M_alt    "P 1"
_space_group_IT_number       1

loop_
  _space_group_symop_operation_xyz
  'x, y, z'

loop_
  _atom_site_type_symbol
  _atom_site_label
  _atom_site_symmetry_multiplicity
  _atom_site_fract_x
  _atom_site_fract_y
  _atom_site_fract_z
  _atom_site_occupancy
  Ce  Ce1       1.0  0.13300  0.25000  0.02550  1.0000
  Ce  Ce2       1.0  0.43200  0.25000  0.04330  1.0000
  Ce  Ce3       1.0  0.72500  0.75000  0.10000  1.0000
  Ce  Ce4       1.0  0.01950  0.75000  0.11600  1.0000
  Ce  Ce5       1.0  0.26200  0.25000  0.16600  1.0000
  Ce  Ce6       1.0  0.60300  0.25000  0.19200  1.0000
  Ce  Ce7       1.0  0.88200  0.75000  0.25000  1.0000
  Ce  Ce8       1.0  0.38200  0.75000  0.25000  1.0000
  Ce  Ce9       1.0  0.10300  0.25000  0.30800  1.0000
  Ce  Ce10      1.0  0.76200  0.25000  0.33400  1.0000
  Ce  Ce11      1.0  0.51900  0.75000  0.38400  1.0000
  Ce  Ce12      1.0  0.22500  0.75000  0.40000  1.0000
  Ce  Ce13      1.0  0.93200  0.25000  0.45700  1.0000
  Ce  Ce14      1.0  0.63300  0.25000  0.47500  1.0000
  Ce  Ce15      1.0  0.36700  0.75000  0.52500  1.0000
  Ce  Ce16      1.0  0.06820  0.75000  0.54300  1.0000
  Ce  Ce17      1.0  0.77500  0.25000  0.60000  1.0000
  Ce  Ce18      1.0  0.48100  0.25000  0.61600  1.0000
  Ce  Ce19      1.0  0.23800  0.75000  0.66600  1.0000
  Ce  Ce20      1.0  0.89700  0.75000  0.69200  1.0000
  Ce  Ce21      1.0  0.61800  0.25000  0.75000  1.0000
  Ce  Ce22      1.0  0.11800  0.25000  0.75000  1.0000
  Ce  Ce23      1.0  0.39700  0.75000  0.80800  1.0000
  Ce  Ce24      1.0  0.73800  0.75000  0.83400  1.0000
  Ce  Ce25      1.0  0.98100  0.25000  0.88400  1.0000
  Ce  Ce26      1.0  0.27500  0.25000  0.90000  1.0000
  Ce  Ce27      1.0  0.56800  0.75000  0.95700  1.0000
  Ce  Ce28      1.0  0.86700  0.75000  0.97500  1.0000
  Ni  Ni1       1.0  0.22700  0.75000  0.03230  1.0000
  Ni  Ni2       1.0  0.48000  0.25000  0.24300  1.0000
  Ni  Ni3       1.0  0.98000  0.25000  0.25700  1.0000
  Ni  Ni4       1.0  0.72700  0.75000  0.46800  1.0000
  Ni  Ni5       1.0  0.27300  0.25000  0.53200  1.0000
  Ni  Ni6       1.0  0.02010  0.75000  0.74300  1.0000
  Ni  Ni7       1.0  0.52000  0.75000  0.75700  1.0000
  Ni  Ni8       1.0  0.77300  0.25000  0.96800  1.0000
  Si  Si1       1.0  0.33200  0.75000  0.03350  1.0000
  Si  Si2       1.0  0.92700  0.25000  0.10600  1.0000
  Si  Si3       1.0  0.82100  0.25000  0.12000  1.0000
  Si  Si4       1.0  0.50500  0.75000  0.15900  1.0000
  Si  Si5       1.0  0.16500  0.75000  0.18100  1.0000
  Si  Si6       1.0  0.66500  0.75000  0.31900  1.0000
  Si  Si7       1.0  0.00535  0.75000  0.34100  1.0000
  Si  Si8       1.0  0.32100  0.25000  0.38000  1.0000
  Si  Si9       1.0  0.42700  0.25000  0.39400  1.0000
  Si  Si10      1.0  0.83200  0.75000  0.46700  1.0000
  Si  Si11      1.0  0.16800  0.25000  0.53300  1.0000
  Si  Si12      1.0  0.57300  0.75000  0.60600  1.0000
  Si  Si13      1.0  0.67900  0.75000  0.62000  1.0000
  Si  Si14      1.0  0.99500  0.25000  0.65900  1.0000
  Si  Si15      1.0  0.33500  0.25000  0.68100  1.0000
  Si  Si16      1.0  0.83500  0.25000  0.81900  1.0000
  Si  Si17      1.0  0.49500  0.25000  0.84100  1.0000
  Si  Si18      1.0  0.17900  0.75000  0.88000  1.0000
  Si  Si19      1.0  0.07320  0.75000  0.89400  1.0000
  Si  Si20      1.0  0.66800  0.25000  0.96700  1.0000
