data_image0
_chemical_formula_structural       Ge8La8Se32Tl8
_chemical_formula_sum              "Ge8 La8 Se32 Tl8"
_cell_length_a       11.5603
_cell_length_b       7.2159
_cell_length_c       19.7021
_cell_angle_alpha    90
_cell_angle_beta     90
_cell_angle_gamma    90

_space_group_name_H-M_alt    "P 1"
_space_group_IT_number       1

loop_
  _space_group_symop_operation_xyz
  'x, y, z'

loop_
  _atom_site_type_symbol
  _atom_site_label
  _atom_site_symmetry_multiplicity
  _atom_site_fract_x
  _atom_site_fract_y
  _atom_site_fract_z
  _atom_site_occupancy
  Ge  Ge1       1.0  0.94400  0.28200  0.11200  1.0000
  Ge  Ge2       1.0  0.55600  0.78200  0.11200  1.0000
  Ge  Ge3       1.0  0.44400  0.28200  0.38800  1.0000
  Ge  Ge4       1.0  0.05590  0.78200  0.38800  1.0000
  Ge  Ge5       1.0  0.94400  0.21800  0.61200  1.0000
  Ge  Ge6       1.0  0.55600  0.71800  0.61200  1.0000
  Ge  Ge7       1.0  0.44400  0.21800  0.88800  1.0000
  Ge  Ge8       1.0  0.05590  0.71800  0.88800  1.0000
  La  La1       1.0  0.60700  0.27200  0.06550  1.0000
  La  La2       1.0  0.89300  0.77200  0.06550  1.0000
  La  La3       1.0  0.10700  0.27200  0.43500  1.0000
  La  La4       1.0  0.39300  0.77200  0.43500  1.0000
  La  La5       1.0  0.60700  0.22800  0.56500  1.0000
  La  La6       1.0  0.89300  0.72800  0.56500  1.0000
  La  La7       1.0  0.10700  0.22800  0.93500  1.0000
  La  La8       1.0  0.39300  0.72800  0.93500  1.0000
  Se  Se1       1.0  0.85800  0.37800  0.00564  1.0000
  Se  Se2       1.0  0.64200  0.87800  0.00564  1.0000
  Se  Se3       1.0  0.09470  0.07000  0.08220  1.0000
  Se  Se4       1.0  0.40500  0.57000  0.08220  1.0000
  Se  Se5       1.0  0.79600  0.09240  0.15800  1.0000
  Se  Se6       1.0  0.70400  0.59200  0.15800  1.0000
  Se  Se7       1.0  0.49700  0.03430  0.18100  1.0000
  Se  Se8       1.0  0.00308  0.53400  0.18100  1.0000
  Se  Se9       1.0  0.99700  0.03430  0.31900  1.0000
  Se  Se10      1.0  0.50300  0.53400  0.31900  1.0000
  Se  Se11      1.0  0.29600  0.09240  0.34200  1.0000
  Se  Se12      1.0  0.20400  0.59200  0.34200  1.0000
  Se  Se13      1.0  0.59500  0.07000  0.41800  1.0000
  Se  Se14      1.0  0.90500  0.57000  0.41800  1.0000
  Se  Se15      1.0  0.35800  0.37800  0.49400  1.0000
  Se  Se16      1.0  0.14200  0.87800  0.49400  1.0000
  Se  Se17      1.0  0.85800  0.12200  0.50600  1.0000
  Se  Se18      1.0  0.64200  0.62200  0.50600  1.0000
  Se  Se19      1.0  0.09470  0.43000  0.58200  1.0000
  Se  Se20      1.0  0.40500  0.93000  0.58200  1.0000
  Se  Se21      1.0  0.79600  0.40800  0.65800  1.0000
  Se  Se22      1.0  0.70400  0.90800  0.65800  1.0000
  Se  Se23      1.0  0.49700  0.46600  0.68100  1.0000
  Se  Se24      1.0  0.00308  0.96600  0.68100  1.0000
  Se  Se25      1.0  0.99700  0.46600  0.81900  1.0000
  Se  Se26      1.0  0.50300  0.96600  0.81900  1.0000
  Se  Se27      1.0  0.29600  0.40800  0.84200  1.0000
  Se  Se28      1.0  0.20400  0.90800  0.84200  1.0000
  Se  Se29      1.0  0.59500  0.43000  0.91800  1.0000
  Se  Se30      1.0  0.90500  0.93000  0.91800  1.0000
  Se  Se31      1.0  0.35800  0.12200  0.99400  1.0000
  Se  Se32      1.0  0.14200  0.62200  0.99400  1.0000
  Tl  Tl1       1.0  0.25400  0.33100  0.19800  1.0000
  Tl  Tl2       1.0  0.24600  0.83100  0.19800  1.0000
  Tl  Tl3       1.0  0.75400  0.33100  0.30200  1.0000
  Tl  Tl4       1.0  0.74600  0.83100  0.30200  1.0000
  Tl  Tl5       1.0  0.25400  0.16900  0.69800  1.0000
  Tl  Tl6       1.0  0.24600  0.66900  0.69800  1.0000
  Tl  Tl7       1.0  0.75400  0.16900  0.80200  1.0000
  Tl  Tl8       1.0  0.74600  0.66900  0.80200  1.0000
