data_image0
_chemical_formula_structural       C8Mg4Na12O32S2
_chemical_formula_sum              "C8 Mg4 Na12 O32 S2"
_cell_length_a       9.83399
_cell_length_b       9.83399
_cell_length_c       9.83399
_cell_angle_alpha    120
_cell_angle_beta     90
_cell_angle_gamma    120

_space_group_name_H-M_alt    "P 1"
_space_group_IT_number       1

loop_
  _space_group_symop_operation_xyz
  'x, y, z'

loop_
  _atom_site_type_symbol
  _atom_site_label
  _atom_site_symmetry_multiplicity
  _atom_site_fract_x
  _atom_site_fract_y
  _atom_site_fract_z
  _atom_site_occupancy
  C   C1        1.0  0.21600  0.81100  0.40500  1.0000
  C   C2        1.0  0.59500  0.81100  0.40500  1.0000
  C   C3        1.0  0.59500  0.18900  0.40500  1.0000
  C   C4        1.0  0.15500  0.31100  0.46600  1.0000
  C   C5        1.0  0.59500  0.18900  0.78400  1.0000
  C   C6        1.0  0.15500  0.31100  0.84500  1.0000
  C   C7        1.0  0.15500  0.68900  0.84500  1.0000
  C   C8        1.0  0.53400  0.68900  0.84500  1.0000
  Mg  Mg1       1.0  0.37500  0.75000  0.12500  1.0000
  Mg  Mg2       1.0  0.37500  0.25000  0.62500  1.0000
  Mg  Mg3       1.0  0.87500  0.25000  0.62500  1.0000
  Mg  Mg4       1.0  0.37500  0.75000  0.62500  1.0000
  Na  Na1       1.0  0.52600  0.50000  0.02590  1.0000
  Na  Na2       1.0  0.97400  0.50000  0.02590  1.0000
  Na  Na3       1.0  0.52600  0.05170  0.02590  1.0000
  Na  Na4       1.0  0.77600  0.00000  0.22400  1.0000
  Na  Na5       1.0  0.22400  0.44800  0.22400  1.0000
  Na  Na6       1.0  0.22400  0.00000  0.22400  1.0000
  Na  Na7       1.0  0.97400  0.94800  0.47400  1.0000
  Na  Na8       1.0  0.52600  0.50000  0.47400  1.0000
  Na  Na9       1.0  0.97400  0.50000  0.47400  1.0000
  Na  Na10      1.0  0.22400  1.00000  0.77600  1.0000
  Na  Na11      1.0  0.77600  1.00000  0.77600  1.0000
  Na  Na12      1.0  0.77600  0.55200  0.77600  1.0000
  O   O1        1.0  0.93800  0.87600  0.06220  1.0000
  O   O2        1.0  0.18700  0.12400  0.06220  1.0000
  O   O3        1.0  0.93800  0.12400  0.06220  1.0000
  O   O4        1.0  0.56300  0.37600  0.18800  1.0000
  O   O5        1.0  0.81200  0.37600  0.18800  1.0000
  O   O6        1.0  0.81200  0.62400  0.18800  1.0000
  O   O7        1.0  0.21400  0.73400  0.25400  1.0000
  O   O8        1.0  0.52000  0.73400  0.25400  1.0000
  O   O9        1.0  0.52000  0.03940  0.25400  1.0000
  O   O10       1.0  0.81200  0.62400  0.43700  1.0000
  O   O11       1.0  0.00368  0.23400  0.46400  1.0000
  O   O12       1.0  0.23000  0.23400  0.46400  1.0000
  O   O13       1.0  0.23000  0.46100  0.46400  1.0000
  O   O14       1.0  0.21400  0.73400  0.48000  1.0000
  O   O15       1.0  0.52000  0.73400  0.48000  1.0000
  O   O16       1.0  0.52000  0.26600  0.48000  1.0000
  O   O17       1.0  0.21400  0.96100  0.48000  1.0000
  O   O18       1.0  0.74600  0.26600  0.48000  1.0000
  O   O19       1.0  0.74600  0.96100  0.48000  1.0000
  O   O20       1.0  0.00368  0.23400  0.77000  1.0000
  O   O21       1.0  0.23000  0.23400  0.77000  1.0000
  O   O22       1.0  0.00368  0.53900  0.77000  1.0000
  O   O23       1.0  0.53600  0.53900  0.77000  1.0000
  O   O24       1.0  0.23000  0.76600  0.77000  1.0000
  O   O25       1.0  0.53600  0.76600  0.77000  1.0000
  O   O26       1.0  0.52000  0.26600  0.78600  1.0000
  O   O27       1.0  0.52000  0.03940  0.78600  1.0000
  O   O28       1.0  0.74600  0.26600  0.78600  1.0000
  O   O29       1.0  0.93800  0.87600  0.81300  1.0000
  O   O30       1.0  0.23000  0.46100  0.99600  1.0000
  O   O31       1.0  0.23000  0.76600  0.99600  1.0000
  O   O32       1.0  0.53600  0.76600  0.99600  1.0000
  S   S1        1.0  0.00000  0.00000  0.00000  1.0000
  S   S2        1.0  0.75000  0.50000  0.25000  1.0000
