data_image0
_chemical_formula_structural       H24Mn4O24S4
_chemical_formula_sum              "H24 Mn4 O24 S4"
_cell_length_a       6.55391
_cell_length_b       8.68316
_cell_length_c       8.59748
_cell_angle_alpha    90
_cell_angle_beta     95.8102
_cell_angle_gamma    90

_space_group_name_H-M_alt    "P 1"
_space_group_IT_number       1

loop_
  _space_group_symop_operation_xyz
  'x, y, z'

loop_
  _atom_site_type_symbol
  _atom_site_label
  _atom_site_symmetry_multiplicity
  _atom_site_fract_x
  _atom_site_fract_y
  _atom_site_fract_z
  _atom_site_occupancy
  H   H1        1.0  0.04880  0.32900  0.01950  1.0000
  H   H2        1.0  0.74500  0.97300  0.02340  1.0000
  H   H3        1.0  0.28300  0.32700  0.10000  1.0000
  H   H4        1.0  0.13900  0.99800  0.13200  1.0000
  H   H5        1.0  0.12000  0.53600  0.14700  1.0000
  H   H6        1.0  0.03790  0.68500  0.23400  1.0000
  H   H7        1.0  0.46200  0.18500  0.26600  1.0000
  H   H8        1.0  0.38000  0.03640  0.35300  1.0000
  H   H9        1.0  0.36100  0.49800  0.36800  1.0000
  H   H10       1.0  0.21700  0.82700  0.40000  1.0000
  H   H11       1.0  0.75500  0.47300  0.47700  1.0000
  H   H12       1.0  0.45100  0.82900  0.48100  1.0000
  H   H13       1.0  0.54900  0.17100  0.51900  1.0000
  H   H14       1.0  0.24500  0.52700  0.52300  1.0000
  H   H15       1.0  0.78300  0.17300  0.60000  1.0000
  H   H16       1.0  0.63900  0.50200  0.63200  1.0000
  H   H17       1.0  0.62000  0.96400  0.64700  1.0000
  H   H18       1.0  0.53800  0.81500  0.73400  1.0000
  H   H19       1.0  0.96200  0.31500  0.76600  1.0000
  H   H20       1.0  0.88000  0.46400  0.85300  1.0000
  H   H21       1.0  0.86100  0.00236  0.86800  1.0000
  H   H22       1.0  0.71700  0.67300  0.90000  1.0000
  H   H23       1.0  0.25500  0.02690  0.97700  1.0000
  H   H24       1.0  0.95100  0.67100  0.98100  1.0000
  Mn  Mn1       1.0  0.41900  0.76200  0.14000  1.0000
  Mn  Mn2       1.0  0.08120  0.26200  0.36000  1.0000
  Mn  Mn3       1.0  0.91900  0.73800  0.64000  1.0000
  Mn  Mn4       1.0  0.58100  0.23800  0.86000  1.0000
  O   O1        1.0  0.25600  0.96500  0.07450  1.0000
  O   O2        1.0  0.53800  0.29300  0.10300  1.0000
  O   O3        1.0  0.13800  0.34400  0.12100  1.0000
  O   O4        1.0  0.10500  0.65200  0.14100  1.0000
  O   O5        1.0  0.72000  0.86000  0.17300  1.0000
  O   O6        1.0  0.51900  0.54300  0.23300  1.0000
  O   O7        1.0  0.98100  0.04320  0.26700  1.0000
  O   O8        1.0  0.78000  0.36000  0.32700  1.0000
  O   O9        1.0  0.39500  0.15200  0.35900  1.0000
  O   O10       1.0  0.36200  0.84400  0.37900  1.0000
  O   O11       1.0  0.96200  0.79300  0.39700  1.0000
  O   O12       1.0  0.24400  0.46500  0.42500  1.0000
  O   O13       1.0  0.75600  0.53500  0.57500  1.0000
  O   O14       1.0  0.03750  0.20700  0.60300  1.0000
  O   O15       1.0  0.63800  0.15600  0.62100  1.0000
  O   O16       1.0  0.60500  0.84800  0.64100  1.0000
  O   O17       1.0  0.22000  0.64000  0.67300  1.0000
  O   O18       1.0  0.01940  0.95700  0.73300  1.0000
  O   O19       1.0  0.48100  0.45700  0.76700  1.0000
  O   O20       1.0  0.28000  0.14000  0.82700  1.0000
  O   O21       1.0  0.89500  0.34800  0.85900  1.0000
  O   O22       1.0  0.86200  0.65600  0.87900  1.0000
  O   O23       1.0  0.46200  0.70700  0.89700  1.0000
  O   O24       1.0  0.74400  0.03460  0.92500  1.0000
  S   S1        1.0  0.67400  0.43000  0.17400  1.0000
  S   S2        1.0  0.82600  0.93000  0.32600  1.0000
  S   S3        1.0  0.17400  0.07040  0.67400  1.0000
  S   S4        1.0  0.32600  0.57000  0.82600  1.0000
