data_image0
_chemical_formula_structural       F28H8O12S4Sb4
_chemical_formula_sum              "F28 H8 O12 S4 Sb4"
_cell_length_a       6.18671
_cell_length_b       12.7118
_cell_length_c       7.6119
_cell_angle_alpha    90
_cell_angle_beta     92.0738
_cell_angle_gamma    90

_space_group_name_H-M_alt    "P 1"
_space_group_IT_number       1

loop_
  _space_group_symop_operation_xyz
  'x, y, z'

loop_
  _atom_site_type_symbol
  _atom_site_label
  _atom_site_symmetry_multiplicity
  _atom_site_fract_x
  _atom_site_fract_y
  _atom_site_fract_z
  _atom_site_occupancy
  F   F1        1.0  0.16300  0.07530  0.02140  1.0000
  F   F2        1.0  0.17600  0.45400  0.04350  1.0000
  F   F3        1.0  0.83800  0.72500  0.11700  1.0000
  F   F4        1.0  0.25400  0.88400  0.14300  1.0000
  F   F5        1.0  0.25600  0.66000  0.14900  1.0000
  F   F6        1.0  0.54700  0.04600  0.18000  1.0000
  F   F7        1.0  0.54500  0.50900  0.20100  1.0000
  F   F8        1.0  0.95500  0.00914  0.29900  1.0000
  F   F9        1.0  0.95300  0.54600  0.32000  1.0000
  F   F10       1.0  0.24400  0.16000  0.35100  1.0000
  F   F11       1.0  0.24600  0.38400  0.35700  1.0000
  F   F12       1.0  0.66200  0.22500  0.38300  1.0000
  F   F13       1.0  0.32400  0.95400  0.45700  1.0000
  F   F14       1.0  0.33700  0.57500  0.47900  1.0000
  F   F15       1.0  0.66300  0.42500  0.52100  1.0000
  F   F16       1.0  0.67600  0.04630  0.54300  1.0000
  F   F17       1.0  0.33800  0.77500  0.61700  1.0000
  F   F18       1.0  0.75400  0.61600  0.64300  1.0000
  F   F19       1.0  0.75600  0.84000  0.64900  1.0000
  F   F20       1.0  0.04670  0.45400  0.68000  1.0000
  F   F21       1.0  0.04540  0.99100  0.70100  1.0000
  F   F22       1.0  0.45500  0.49100  0.79900  1.0000
  F   F23       1.0  0.45300  0.95400  0.82000  1.0000
  F   F24       1.0  0.74400  0.34000  0.85100  1.0000
  F   F25       1.0  0.74600  0.11600  0.85700  1.0000
  F   F26       1.0  0.16200  0.27500  0.88300  1.0000
  F   F27       1.0  0.82400  0.54600  0.95700  1.0000
  F   F28       1.0  0.83700  0.92500  0.97900  1.0000
  H   H1        1.0  0.81300  0.15300  0.01480  1.0000
  H   H2        1.0  0.69900  0.43100  0.22600  1.0000
  H   H3        1.0  0.80100  0.93100  0.27400  1.0000
  H   H4        1.0  0.68700  0.65300  0.48500  1.0000
  H   H5        1.0  0.31300  0.34700  0.51500  1.0000
  H   H6        1.0  0.19900  0.06890  0.72600  1.0000
  H   H7        1.0  0.30100  0.56900  0.77400  1.0000
  H   H8        1.0  0.18700  0.84700  0.98500  1.0000
  O   O1        1.0  0.48400  0.26600  0.10600  1.0000
  O   O2        1.0  0.86000  0.19400  0.13100  1.0000
  O   O3        1.0  0.80400  0.36700  0.21900  1.0000
  O   O4        1.0  0.69600  0.86700  0.28100  1.0000
  O   O5        1.0  0.64000  0.69400  0.36900  1.0000
  O   O6        1.0  0.01630  0.76600  0.39400  1.0000
  O   O7        1.0  0.98400  0.23400  0.60600  1.0000
  O   O8        1.0  0.36000  0.30600  0.63100  1.0000
  O   O9        1.0  0.30400  0.13300  0.71900  1.0000
  O   O10       1.0  0.19600  0.63300  0.78100  1.0000
  O   O11       1.0  0.14000  0.80600  0.86900  1.0000
  O   O12       1.0  0.51600  0.73400  0.89400  1.0000
  S   S1        1.0  0.68800  0.26500  0.19300  1.0000
  S   S2        1.0  0.81200  0.76500  0.30700  1.0000
  S   S3        1.0  0.18800  0.23500  0.69300  1.0000
  S   S4        1.0  0.31200  0.73500  0.80700  1.0000
  Sb  Sb1       1.0  0.25700  0.02510  0.24500  1.0000
  Sb  Sb2       1.0  0.24300  0.52500  0.25500  1.0000
  Sb  Sb3       1.0  0.75700  0.47500  0.74500  1.0000
  Sb  Sb4       1.0  0.74300  0.97500  0.75500  1.0000
