data_image0
_chemical_formula_structural       C8Cl18H24N2Nb6
_chemical_formula_sum              "C8 Cl18 H24 N2 Nb6"
_cell_length_a       10.9317
_cell_length_b       10.9315
_cell_length_c       8.7258
_cell_angle_alpha    90
_cell_angle_beta     90.0017
_cell_angle_gamma    119.999

_space_group_name_H-M_alt    "P 1"
_space_group_IT_number       1

loop_
  _space_group_symop_operation_xyz
  'x, y, z'

loop_
  _atom_site_type_symbol
  _atom_site_label
  _atom_site_symmetry_multiplicity
  _atom_site_fract_x
  _atom_site_fract_y
  _atom_site_fract_z
  _atom_site_occupancy
  C   C1        1.0  0.66700  0.33300  0.12000  1.0000
  C   C2        1.0  0.59200  0.18400  0.34900  1.0000
  C   C3        1.0  0.59200  0.40800  0.34900  1.0000
  C   C4        1.0  0.81600  0.40800  0.34900  1.0000
  C   C5        1.0  0.18400  0.59200  0.65100  1.0000
  C   C6        1.0  0.40800  0.81600  0.65100  1.0000
  C   C7        1.0  0.40800  0.59200  0.65100  1.0000
  C   C8        1.0  0.33300  0.66700  0.88000  1.0000
  Cl  Cl1       1.0  0.31600  0.00000  0.00000  1.0000
  Cl  Cl2       1.0  0.68400  0.00000  0.00000  1.0000
  Cl  Cl3       1.0  0.00000  0.31600  0.00000  1.0000
  Cl  Cl4       1.0  0.31600  0.31600  0.00000  1.0000
  Cl  Cl5       1.0  0.68400  0.68400  0.00000  1.0000
  Cl  Cl6       1.0  0.00000  0.68400  0.00000  1.0000
  Cl  Cl7       1.0  0.59700  0.79900  0.30500  1.0000
  Cl  Cl8       1.0  0.20100  0.40300  0.30500  1.0000
  Cl  Cl9       1.0  0.20100  0.79900  0.30500  1.0000
  Cl  Cl10      1.0  0.20900  0.10400  0.32300  1.0000
  Cl  Cl11      1.0  0.89600  0.79100  0.32300  1.0000
  Cl  Cl12      1.0  0.89600  0.10400  0.32300  1.0000
  Cl  Cl13      1.0  0.10400  0.20900  0.67700  1.0000
  Cl  Cl14      1.0  0.10400  0.89600  0.67700  1.0000
  Cl  Cl15      1.0  0.79100  0.89600  0.67700  1.0000
  Cl  Cl16      1.0  0.79900  0.20100  0.69500  1.0000
  Cl  Cl17      1.0  0.79900  0.59700  0.69500  1.0000
  Cl  Cl18      1.0  0.40300  0.20100  0.69500  1.0000
  H   H1        1.0  0.55700  0.27900  0.07920  1.0000
  H   H2        1.0  0.72100  0.27900  0.07930  1.0000
  H   H3        1.0  0.72100  0.44300  0.07930  1.0000
  H   H4        1.0  0.87000  0.35300  0.30600  1.0000
  H   H5        1.0  0.87000  0.51700  0.30600  1.0000
  H   H6        1.0  0.64700  0.13000  0.30600  1.0000
  H   H7        1.0  0.64700  0.51700  0.30600  1.0000
  H   H8        1.0  0.48300  0.35300  0.30600  1.0000
  H   H9        1.0  0.48300  0.13000  0.30600  1.0000
  H   H10       1.0  0.81500  0.40800  0.47500  1.0000
  H   H11       1.0  0.59200  0.40800  0.47500  1.0000
  H   H12       1.0  0.59200  0.18500  0.47500  1.0000
  H   H13       1.0  0.40800  0.59200  0.52500  1.0000
  H   H14       1.0  0.40800  0.81500  0.52500  1.0000
  H   H15       1.0  0.18500  0.59200  0.52500  1.0000
  H   H16       1.0  0.51700  0.64700  0.69400  1.0000
  H   H17       1.0  0.51700  0.87000  0.69400  1.0000
  H   H18       1.0  0.35300  0.87000  0.69400  1.0000
  H   H19       1.0  0.35300  0.48300  0.69400  1.0000
  H   H20       1.0  0.13000  0.48300  0.69400  1.0000
  H   H21       1.0  0.13000  0.64700  0.69400  1.0000
  H   H22       1.0  0.27900  0.72100  0.92100  1.0000
  H   H23       1.0  0.27900  0.55700  0.92100  1.0000
  H   H24       1.0  0.44300  0.72100  0.92100  1.0000
  N   N1        1.0  0.66700  0.33300  0.29200  1.0000
  N   N2        1.0  0.33300  0.66700  0.70800  1.0000
  Nb  Nb1       1.0  0.81400  0.90700  0.14300  1.0000
  Nb  Nb2       1.0  0.09320  0.90700  0.14300  1.0000
  Nb  Nb3       1.0  0.09320  0.18600  0.14300  1.0000
  Nb  Nb4       1.0  0.90700  0.09320  0.85700  1.0000
  Nb  Nb5       1.0  0.90700  0.81400  0.85700  1.0000
  Nb  Nb6       1.0  0.18600  0.09320  0.85700  1.0000
