data_image0
_chemical_formula_structural       Ag4Nb8P4S40
_chemical_formula_sum              "Ag4 Nb8 P4 S40"
_cell_length_a       8.00245
_cell_length_b       12.9466
_cell_length_c       13.0501
_cell_angle_alpha    93.7977
_cell_angle_beta     90
_cell_angle_gamma    108.002

_space_group_name_H-M_alt    "P 1"
_space_group_IT_number       1

loop_
  _space_group_symop_operation_xyz
  'x, y, z'

loop_
  _atom_site_type_symbol
  _atom_site_label
  _atom_site_symmetry_multiplicity
  _atom_site_fract_x
  _atom_site_fract_y
  _atom_site_fract_z
  _atom_site_occupancy
  Ag  Ag1       1.0  0.54000  0.11500  0.09600  1.0000
  Ag  Ag2       1.0  0.42500  0.88500  0.40400  1.0000
  Ag  Ag3       1.0  0.57500  0.11500  0.59600  1.0000
  Ag  Ag4       1.0  0.46000  0.88500  0.90400  1.0000
  Nb  Nb1       1.0  0.08530  0.27600  0.00478  1.0000
  Nb  Nb2       1.0  0.20500  0.27300  0.21400  1.0000
  Nb  Nb3       1.0  0.93200  0.72700  0.28600  1.0000
  Nb  Nb4       1.0  0.80900  0.72400  0.49500  1.0000
  Nb  Nb5       1.0  0.19100  0.27600  0.50500  1.0000
  Nb  Nb6       1.0  0.06760  0.27300  0.71400  1.0000
  Nb  Nb7       1.0  0.79500  0.72700  0.78600  1.0000
  Nb  Nb8       1.0  0.91500  0.72400  0.99500  1.0000
  P   P1        1.0  0.28800  0.81000  0.13500  1.0000
  P   P2        1.0  0.47800  0.19000  0.36500  1.0000
  P   P3        1.0  0.52200  0.81000  0.63500  1.0000
  P   P4        1.0  0.71200  0.19000  0.86500  1.0000
  S   S1        1.0  0.22800  0.70500  0.00561  1.0000
  S   S2        1.0  0.18500  0.12700  0.06780  1.0000
  S   S3        1.0  0.34800  0.41700  0.09390  1.0000
  S   S4        1.0  0.53100  0.91700  0.12000  1.0000
  S   S5        1.0  0.94900  0.13000  0.12900  1.0000
  S   S6        1.0  0.84500  0.58300  0.13200  1.0000
  S   S7        1.0  0.11000  0.42400  0.14200  1.0000
  S   S8        1.0  0.69800  0.68700  0.14300  1.0000
  S   S9        1.0  0.07510  0.87000  0.14800  1.0000
  S   S10       1.0  0.53600  0.27200  0.23100  1.0000
  S   S11       1.0  0.26400  0.72800  0.26900  1.0000
  S   S12       1.0  0.20500  0.13000  0.35200  1.0000
  S   S13       1.0  0.01040  0.31300  0.35700  1.0000
  S   S14       1.0  0.68700  0.57600  0.35800  1.0000
  S   S15       1.0  0.26200  0.41700  0.36800  1.0000
  S   S16       1.0  0.81900  0.87000  0.37100  1.0000
  S   S17       1.0  0.61400  0.08320  0.38000  1.0000
  S   S18       1.0  0.93100  0.58300  0.40600  1.0000
  S   S19       1.0  0.05780  0.87300  0.43200  1.0000
  S   S20       1.0  0.52300  0.29500  0.49400  1.0000
  S   S21       1.0  0.47700  0.70500  0.50600  1.0000
  S   S22       1.0  0.94200  0.12700  0.56800  1.0000
  S   S23       1.0  0.06870  0.41700  0.59400  1.0000
  S   S24       1.0  0.38600  0.91700  0.62000  1.0000
  S   S25       1.0  0.18100  0.13000  0.62900  1.0000
  S   S26       1.0  0.73800  0.58300  0.63200  1.0000
  S   S27       1.0  0.31300  0.42400  0.64200  1.0000
  S   S28       1.0  0.99000  0.68700  0.64300  1.0000
  S   S29       1.0  0.79500  0.87000  0.64800  1.0000
  S   S30       1.0  0.73600  0.27200  0.73100  1.0000
  S   S31       1.0  0.46400  0.72800  0.76900  1.0000
  S   S32       1.0  0.92500  0.13000  0.85200  1.0000
  S   S33       1.0  0.30200  0.31300  0.85700  1.0000
  S   S34       1.0  0.89000  0.57600  0.85800  1.0000
  S   S35       1.0  0.15500  0.41700  0.86800  1.0000
  S   S36       1.0  0.05090  0.87000  0.87100  1.0000
  S   S37       1.0  0.46900  0.08320  0.88000  1.0000
  S   S38       1.0  0.65200  0.58300  0.90600  1.0000
  S   S39       1.0  0.81500  0.87300  0.93200  1.0000
  S   S40       1.0  0.77200  0.29500  0.99400  1.0000
