data_image0
_chemical_formula_structural       Ga4H22O26P6
_chemical_formula_sum              "Ga4 H22 O26 P6"
_cell_length_a       7.87341
_cell_length_b       9.90843
_cell_length_c       7.50853
_cell_angle_alpha    90
_cell_angle_beta     111.317
_cell_angle_gamma    90

_space_group_name_H-M_alt    "P 1"
_space_group_IT_number       1

loop_
  _space_group_symop_operation_xyz
  'x, y, z'

loop_
  _atom_site_type_symbol
  _atom_site_label
  _atom_site_symmetry_multiplicity
  _atom_site_fract_x
  _atom_site_fract_y
  _atom_site_fract_z
  _atom_site_occupancy
  Ga  Ga1       1.0  0.02030  0.34600  0.07200  1.0000
  Ga  Ga2       1.0  0.60900  0.57800  0.40100  1.0000
  Ga  Ga3       1.0  0.39100  0.07850  0.59900  1.0000
  Ga  Ga4       1.0  0.98000  0.84600  0.92800  1.0000
  H   H1        1.0  0.45500  0.62500  0.02470  1.0000
  H   H2        1.0  0.31200  0.53500  0.08440  1.0000
  H   H3        1.0  0.35900  0.18600  0.10400  1.0000
  H   H4        1.0  0.30700  0.76400  0.15700  1.0000
  H   H5        1.0  0.25000  0.90900  0.23000  1.0000
  H   H6        1.0  0.59200  0.31900  0.25400  1.0000
  H   H7        1.0  0.51900  0.10900  0.26300  1.0000
  H   H8        1.0  0.77700  0.40400  0.28000  1.0000
  H   H9        1.0  0.09560  0.68600  0.35100  1.0000
  H   H10       1.0  0.92000  0.02850  0.39500  1.0000
  H   H11       1.0  0.80200  0.88300  0.46600  1.0000
  H   H12       1.0  0.19800  0.38300  0.53400  1.0000
  H   H13       1.0  0.08010  0.52800  0.60500  1.0000
  H   H14       1.0  0.90400  0.18600  0.64900  1.0000
  H   H15       1.0  0.22300  0.90400  0.72000  1.0000
  H   H16       1.0  0.48100  0.60900  0.73700  1.0000
  H   H17       1.0  0.40800  0.81900  0.74600  1.0000
  H   H18       1.0  0.75000  0.40900  0.77000  1.0000
  H   H19       1.0  0.69300  0.26400  0.84300  1.0000
  H   H20       1.0  0.64100  0.68600  0.89600  1.0000
  H   H21       1.0  0.68800  0.03540  0.91600  1.0000
  H   H22       1.0  0.54500  0.12500  0.97500  1.0000
  O   O1        1.0  0.88200  0.69600  0.03170  1.0000
  O   O2        1.0  0.90500  0.97700  0.08420  1.0000
  O   O3        1.0  0.23200  0.84700  0.12000  1.0000
  O   O4        1.0  0.41100  0.60300  0.13500  1.0000
  O   O5        1.0  0.49300  0.17000  0.15100  1.0000
  O   O6        1.0  0.93900  0.21700  0.22200  1.0000
  O   O7        1.0  0.94500  0.47900  0.22400  1.0000
  O   O8        1.0  0.26800  0.36500  0.24800  1.0000
  O   O9        1.0  0.78500  0.66800  0.31500  1.0000
  O   O10       1.0  0.67300  0.39500  0.32500  1.0000
  O   O11       1.0  0.20100  0.04260  0.34300  1.0000
  O   O12       1.0  0.53300  0.75900  0.44100  1.0000
  O   O13       1.0  0.55700  0.01370  0.47700  1.0000
  O   O14       1.0  0.44300  0.51400  0.52300  1.0000
  O   O15       1.0  0.46700  0.25900  0.55900  1.0000
  O   O16       1.0  0.79900  0.54300  0.65700  1.0000
  O   O17       1.0  0.32700  0.89500  0.67500  1.0000
  O   O18       1.0  0.21500  0.16800  0.68500  1.0000
  O   O19       1.0  0.73200  0.86500  0.75200  1.0000
  O   O20       1.0  0.05500  0.97900  0.77600  1.0000
  O   O21       1.0  0.06070  0.71700  0.77800  1.0000
  O   O22       1.0  0.50700  0.67000  0.84900  1.0000
  O   O23       1.0  0.58900  0.10300  0.86500  1.0000
  O   O24       1.0  0.76800  0.34700  0.88000  1.0000
  O   O25       1.0  0.09540  0.47700  0.91600  1.0000
  O   O26       1.0  0.11800  0.19600  0.96800  1.0000
  P   P1        1.0  0.92700  0.63300  0.22900  1.0000
  P   P2        1.0  0.99400  0.06850  0.26000  1.0000
  P   P3        1.0  0.34200  0.37700  0.46600  1.0000
  P   P4        1.0  0.65800  0.87700  0.53400  1.0000
  P   P5        1.0  0.00608  0.56800  0.74000  1.0000
  P   P6        1.0  0.07250  0.13300  0.77100  1.0000
