data_image0
_chemical_formula_structural       Co2K8Mo8O30
_chemical_formula_sum              "Co2 K8 Mo8 O30"
_cell_length_a       10.2556
_cell_length_b       10.2508
_cell_length_c       8.0373
_cell_angle_alpha    89.9864
_cell_angle_beta     89.983
_cell_angle_gamma    120.014

_space_group_name_H-M_alt    "P 1"
_space_group_IT_number       1

loop_
  _space_group_symop_operation_xyz
  'x, y, z'

loop_
  _atom_site_type_symbol
  _atom_site_label
  _atom_site_symmetry_multiplicity
  _atom_site_fract_x
  _atom_site_fract_y
  _atom_site_fract_z
  _atom_site_occupancy
  Co  Co1       1.0  0.33400  0.66600  0.47100  1.0000
  Co  Co2       1.0  0.66600  0.33400  0.52900  1.0000
  K   K1        1.0  0.00000  0.00000  0.00000  1.0000
  K   K2        1.0  0.30200  0.39000  0.13500  1.0000
  K   K3        1.0  0.08840  0.69800  0.13600  1.0000
  K   K4        1.0  0.60900  0.91100  0.13600  1.0000
  K   K5        1.0  0.00000  0.00000  0.50000  1.0000
  K   K6        1.0  0.39100  0.08860  0.86400  1.0000
  K   K7        1.0  0.91200  0.30200  0.86400  1.0000
  K   K8        1.0  0.69800  0.61000  0.86500  1.0000
  Mo  Mo1       1.0  0.66700  0.33300  0.14000  1.0000
  Mo  Mo2       1.0  0.67500  0.66200  0.36300  1.0000
  Mo  Mo3       1.0  0.98700  0.32600  0.36300  1.0000
  Mo  Mo4       1.0  0.33800  0.01250  0.36300  1.0000
  Mo  Mo5       1.0  0.66200  0.98700  0.63700  1.0000
  Mo  Mo6       1.0  0.01280  0.67400  0.63700  1.0000
  Mo  Mo7       1.0  0.32500  0.33800  0.63700  1.0000
  Mo  Mo8       1.0  0.33300  0.66700  0.86000  1.0000
  O   O1        1.0  0.65600  0.17200  0.04580  1.0000
  O   O2        1.0  0.51700  0.34400  0.04610  1.0000
  O   O3        1.0  0.82700  0.48300  0.04610  1.0000
  O   O4        1.0  0.79200  0.78500  0.20400  1.0000
  O   O5        1.0  0.99300  0.20900  0.20400  1.0000
  O   O6        1.0  0.21500  0.00690  0.20400  1.0000
  O   O7        1.0  0.49000  0.64100  0.33700  1.0000
  O   O8        1.0  0.15000  0.51000  0.33700  1.0000
  O   O9        1.0  0.35900  0.85000  0.33900  1.0000
  O   O10       1.0  0.66400  0.47900  0.34400  1.0000
  O   O11       1.0  0.52100  0.18500  0.34400  1.0000
  O   O12       1.0  0.81500  0.33700  0.34400  1.0000
  O   O13       1.0  0.73400  0.99400  0.43600  1.0000
  O   O14       1.0  0.00615  0.73900  0.43700  1.0000
  O   O15       1.0  0.26100  0.26700  0.43700  1.0000
  O   O16       1.0  0.73900  0.73300  0.56300  1.0000
  O   O17       1.0  0.99400  0.26100  0.56300  1.0000
  O   O18       1.0  0.26600  0.00635  0.56400  1.0000
  O   O19       1.0  0.18500  0.66300  0.65600  1.0000
  O   O20       1.0  0.47900  0.81500  0.65600  1.0000
  O   O21       1.0  0.33600  0.52100  0.65600  1.0000
  O   O22       1.0  0.64100  0.15000  0.66100  1.0000
  O   O23       1.0  0.85000  0.49000  0.66300  1.0000
  O   O24       1.0  0.51000  0.35900  0.66300  1.0000
  O   O25       1.0  0.78500  0.99300  0.79600  1.0000
  O   O26       1.0  0.00681  0.79100  0.79600  1.0000
  O   O27       1.0  0.20800  0.21500  0.79600  1.0000
  O   O28       1.0  0.17300  0.51700  0.95400  1.0000
  O   O29       1.0  0.48300  0.65600  0.95400  1.0000
  O   O30       1.0  0.34400  0.82800  0.95400  1.0000
