data_image0
_chemical_formula_structural       Al4Nb4O32Sr16
_chemical_formula_sum              "Al4 Nb4 O32 Sr16"
_cell_length_a       7.17435
_cell_length_b       5.81634
_cell_length_c       19.7164
_cell_angle_alpha    90
_cell_angle_beta     97.5727
_cell_angle_gamma    90

_space_group_name_H-M_alt    "P 1"
_space_group_IT_number       1

loop_
  _space_group_symop_operation_xyz
  'x, y, z'

loop_
  _atom_site_type_symbol
  _atom_site_label
  _atom_site_symmetry_multiplicity
  _atom_site_fract_x
  _atom_site_fract_y
  _atom_site_fract_z
  _atom_site_occupancy
  Al  Al1       1.0  0.26800  0.21600  0.05650  1.0000
  Al  Al2       1.0  0.73200  0.71600  0.44300  1.0000
  Al  Al3       1.0  0.26800  0.28400  0.55700  1.0000
  Al  Al4       1.0  0.73200  0.78400  0.94300  1.0000
  Nb  Nb1       1.0  0.66300  0.25800  0.21100  1.0000
  Nb  Nb2       1.0  0.33700  0.75800  0.28900  1.0000
  Nb  Nb3       1.0  0.66300  0.24200  0.71100  1.0000
  Nb  Nb4       1.0  0.33700  0.74200  0.78900  1.0000
  O   O1        1.0  0.65800  0.70000  0.02250  1.0000
  O   O2        1.0  0.24800  0.91300  0.05640  1.0000
  O   O3        1.0  0.05800  0.33800  0.07710  1.0000
  O   O4        1.0  0.45000  0.29300  0.12500  1.0000
  O   O5        1.0  0.79100  0.03010  0.16000  1.0000
  O   O6        1.0  0.80000  0.51200  0.17800  1.0000
  O   O7        1.0  0.17500  0.72200  0.20400  1.0000
  O   O8        1.0  0.50100  0.99000  0.24400  1.0000
  O   O9        1.0  0.49900  0.49000  0.25600  1.0000
  O   O10       1.0  0.82500  0.22200  0.29600  1.0000
  O   O11       1.0  0.20000  0.01250  0.32200  1.0000
  O   O12       1.0  0.20900  0.53000  0.34000  1.0000
  O   O13       1.0  0.55000  0.79300  0.37500  1.0000
  O   O14       1.0  0.94200  0.83800  0.42300  1.0000
  O   O15       1.0  0.75200  0.41300  0.44400  1.0000
  O   O16       1.0  0.34200  0.20000  0.47800  1.0000
  O   O17       1.0  0.65800  0.80000  0.52200  1.0000
  O   O18       1.0  0.24800  0.58700  0.55600  1.0000
  O   O19       1.0  0.05800  0.16200  0.57700  1.0000
  O   O20       1.0  0.45000  0.20700  0.62500  1.0000
  O   O21       1.0  0.79100  0.47000  0.66000  1.0000
  O   O22       1.0  0.80000  0.98800  0.67800  1.0000
  O   O23       1.0  0.17500  0.77800  0.70400  1.0000
  O   O24       1.0  0.50100  0.51000  0.74400  1.0000
  O   O25       1.0  0.49900  0.00956  0.75600  1.0000
  O   O26       1.0  0.82500  0.27800  0.79600  1.0000
  O   O27       1.0  0.20000  0.48800  0.82200  1.0000
  O   O28       1.0  0.20900  0.97000  0.84000  1.0000
  O   O29       1.0  0.55000  0.70700  0.87500  1.0000
  O   O30       1.0  0.94200  0.66200  0.92300  1.0000
  O   O31       1.0  0.75200  0.08660  0.94400  1.0000
  O   O32       1.0  0.34200  0.30000  0.97800  1.0000
  Sr  Sr1       1.0  0.70900  0.27900  0.04640  1.0000
  Sr  Sr2       1.0  0.97400  0.75000  0.09500  1.0000
  Sr  Sr3       1.0  0.49800  0.74800  0.13500  1.0000
  Sr  Sr4       1.0  0.13900  0.28100  0.20900  1.0000
  Sr  Sr5       1.0  0.86100  0.78100  0.29100  1.0000
  Sr  Sr6       1.0  0.50200  0.24800  0.36500  1.0000
  Sr  Sr7       1.0  0.02630  0.25000  0.40500  1.0000
  Sr  Sr8       1.0  0.29100  0.77900  0.45400  1.0000
  Sr  Sr9       1.0  0.70900  0.22100  0.54600  1.0000
  Sr  Sr10      1.0  0.97400  0.75000  0.59500  1.0000
  Sr  Sr11      1.0  0.49800  0.75200  0.63500  1.0000
  Sr  Sr12      1.0  0.13900  0.21900  0.70900  1.0000
  Sr  Sr13      1.0  0.86100  0.71900  0.79100  1.0000
  Sr  Sr14      1.0  0.50200  0.25200  0.86500  1.0000
  Sr  Sr15      1.0  0.02630  0.25000  0.90500  1.0000
  Sr  Sr16      1.0  0.29100  0.72100  0.95400  1.0000
