data_image0
_chemical_formula_structural       Rb16S32Zr8
_chemical_formula_sum              "Rb16 S32 Zr8"
_cell_length_a       9.85916
_cell_length_b       6.78508
_cell_length_c       24.3273
_cell_angle_alpha    90
_cell_angle_beta     90
_cell_angle_gamma    90

_space_group_name_H-M_alt    "P 1"
_space_group_IT_number       1

loop_
  _space_group_symop_operation_xyz
  'x, y, z'

loop_
  _atom_site_type_symbol
  _atom_site_label
  _atom_site_symmetry_multiplicity
  _atom_site_fract_x
  _atom_site_fract_y
  _atom_site_fract_z
  _atom_site_occupancy
  Rb  Rb1       1.0  0.86000  0.19500  0.03440  1.0000
  Rb  Rb2       1.0  0.64000  0.69500  0.03440  1.0000
  Rb  Rb3       1.0  0.56800  0.44800  0.20000  1.0000
  Rb  Rb4       1.0  0.93200  0.94800  0.20000  1.0000
  Rb  Rb5       1.0  0.06820  0.44800  0.30000  1.0000
  Rb  Rb6       1.0  0.43200  0.94800  0.30000  1.0000
  Rb  Rb7       1.0  0.36000  0.19500  0.46600  1.0000
  Rb  Rb8       1.0  0.14000  0.69500  0.46600  1.0000
  Rb  Rb9       1.0  0.86000  0.30500  0.53400  1.0000
  Rb  Rb10      1.0  0.64000  0.80500  0.53400  1.0000
  Rb  Rb11      1.0  0.56800  0.05160  0.70000  1.0000
  Rb  Rb12      1.0  0.93200  0.55200  0.70000  1.0000
  Rb  Rb13      1.0  0.06820  0.05160  0.80000  1.0000
  Rb  Rb14      1.0  0.43200  0.55200  0.80000  1.0000
  Rb  Rb15      1.0  0.36000  0.30500  0.96600  1.0000
  Rb  Rb16      1.0  0.14000  0.80500  0.96600  1.0000
  S   S1        1.0  0.17400  0.15200  0.06680  1.0000
  S   S2        1.0  0.32600  0.65200  0.06680  1.0000
  S   S3        1.0  0.54400  0.12700  0.09000  1.0000
  S   S4        1.0  0.95600  0.62700  0.09000  1.0000
  S   S5        1.0  0.91800  0.44500  0.15900  1.0000
  S   S6        1.0  0.58200  0.94500  0.15900  1.0000
  S   S7        1.0  0.26200  0.21900  0.20100  1.0000
  S   S8        1.0  0.23800  0.71900  0.20100  1.0000
  S   S9        1.0  0.76200  0.21900  0.29900  1.0000
  S   S10       1.0  0.73800  0.71900  0.29900  1.0000
  S   S11       1.0  0.41800  0.44500  0.34100  1.0000
  S   S12       1.0  0.08210  0.94500  0.34100  1.0000
  S   S13       1.0  0.04350  0.12700  0.41000  1.0000
  S   S14       1.0  0.45600  0.62700  0.41000  1.0000
  S   S15       1.0  0.67400  0.15200  0.43300  1.0000
  S   S16       1.0  0.82600  0.65200  0.43300  1.0000
  S   S17       1.0  0.17400  0.34800  0.56700  1.0000
  S   S18       1.0  0.32600  0.84800  0.56700  1.0000
  S   S19       1.0  0.54400  0.37300  0.59000  1.0000
  S   S20       1.0  0.95600  0.87300  0.59000  1.0000
  S   S21       1.0  0.91800  0.05530  0.65900  1.0000
  S   S22       1.0  0.58200  0.55500  0.65900  1.0000
  S   S23       1.0  0.26200  0.28100  0.70100  1.0000
  S   S24       1.0  0.23800  0.78100  0.70100  1.0000
  S   S25       1.0  0.76200  0.28100  0.79900  1.0000
  S   S26       1.0  0.73800  0.78100  0.79900  1.0000
  S   S27       1.0  0.41800  0.05530  0.84100  1.0000
  S   S28       1.0  0.08210  0.55500  0.84100  1.0000
  S   S29       1.0  0.04350  0.37300  0.91000  1.0000
  S   S30       1.0  0.45600  0.87300  0.91000  1.0000
  S   S31       1.0  0.67400  0.34800  0.93300  1.0000
  S   S32       1.0  0.82600  0.84800  0.93300  1.0000
  Zr  Zr1       1.0  0.17200  0.46000  0.13000  1.0000
  Zr  Zr2       1.0  0.32800  0.96000  0.13000  1.0000
  Zr  Zr3       1.0  0.67200  0.46000  0.37000  1.0000
  Zr  Zr4       1.0  0.82800  0.96000  0.37000  1.0000
  Zr  Zr5       1.0  0.17200  0.04000  0.63000  1.0000
  Zr  Zr6       1.0  0.32800  0.54000  0.63000  1.0000
  Zr  Zr7       1.0  0.67200  0.04000  0.87000  1.0000
  Zr  Zr8       1.0  0.82800  0.54000  0.87000  1.0000
