data_image0
_chemical_formula_structural       Al12Ca16Mg4
_chemical_formula_sum              "Al12 Ca16 Mg4"
_cell_length_a       6.15971
_cell_length_b       24.199
_cell_length_c       5.87279
_cell_angle_alpha    90
_cell_angle_beta     90
_cell_angle_gamma    90

_space_group_name_H-M_alt    "P 1"
_space_group_IT_number       1

loop_
  _space_group_symop_operation_xyz
  'x, y, z'

loop_
  _atom_site_type_symbol
  _atom_site_label
  _atom_site_symmetry_multiplicity
  _atom_site_fract_x
  _atom_site_fract_y
  _atom_site_fract_z
  _atom_site_occupancy
  Al  Al1       1.0  0.17700  0.25000  0.00000  1.0000
  Al  Al2       1.0  0.82300  0.75000  0.00000  1.0000
  Al  Al3       1.0  0.74600  0.07610  0.25000  1.0000
  Al  Al4       1.0  0.42200  0.32300  0.25000  1.0000
  Al  Al5       1.0  0.25400  0.57600  0.25000  1.0000
  Al  Al6       1.0  0.57800  0.82300  0.25000  1.0000
  Al  Al7       1.0  0.17700  0.25000  0.50000  1.0000
  Al  Al8       1.0  0.82300  0.75000  0.50000  1.0000
  Al  Al9       1.0  0.42200  0.17700  0.75000  1.0000
  Al  Al10      1.0  0.74600  0.42400  0.75000  1.0000
  Al  Al11      1.0  0.57800  0.67700  0.75000  1.0000
  Al  Al12      1.0  0.25400  0.92400  0.75000  1.0000
  Ca  Ca1       1.0  0.24800  0.12400  0.25000  1.0000
  Ca  Ca2       1.0  0.69400  0.21000  0.25000  1.0000
  Ca  Ca3       1.0  0.92700  0.35800  0.25000  1.0000
  Ca  Ca4       1.0  0.49800  0.45400  0.25000  1.0000
  Ca  Ca5       1.0  0.75200  0.62400  0.25000  1.0000
  Ca  Ca6       1.0  0.30600  0.71000  0.25000  1.0000
  Ca  Ca7       1.0  0.07340  0.85800  0.25000  1.0000
  Ca  Ca8       1.0  0.50200  0.95400  0.25000  1.0000
  Ca  Ca9       1.0  0.49800  0.04560  0.75000  1.0000
  Ca  Ca10      1.0  0.92700  0.14200  0.75000  1.0000
  Ca  Ca11      1.0  0.69400  0.29000  0.75000  1.0000
  Ca  Ca12      1.0  0.24800  0.37600  0.75000  1.0000
  Ca  Ca13      1.0  0.50200  0.54600  0.75000  1.0000
  Ca  Ca14      1.0  0.07340  0.64200  0.75000  1.0000
  Ca  Ca15      1.0  0.30600  0.79000  0.75000  1.0000
  Ca  Ca16      1.0  0.75200  0.87600  0.75000  1.0000
  Mg  Mg1       1.0  0.00000  0.00000  0.00000  1.0000
  Mg  Mg2       1.0  0.00000  0.50000  0.00000  1.0000
  Mg  Mg3       1.0  0.00000  0.00000  0.50000  1.0000
  Mg  Mg4       1.0  0.00000  0.50000  0.50000  1.0000
