data_image0
_chemical_formula_structural       Cu8In18Se32
_chemical_formula_sum              "Cu8 In18 Se32"
_cell_length_a       11.7801
_cell_length_b       11.7801
_cell_length_c       11.7801
_cell_angle_alpha    90
_cell_angle_beta     90
_cell_angle_gamma    90

_space_group_name_H-M_alt    "P 1"
_space_group_IT_number       1

loop_
  _space_group_symop_operation_xyz
  'x, y, z'

loop_
  _atom_site_type_symbol
  _atom_site_label
  _atom_site_symmetry_multiplicity
  _atom_site_fract_x
  _atom_site_fract_y
  _atom_site_fract_z
  _atom_site_occupancy
  Cu  Cu1       1.0  0.22100  0.22100  0.22100  1.0000
  Cu  Cu2       1.0  0.77900  0.77900  0.22100  1.0000
  Cu  Cu3       1.0  0.75900  0.24100  0.24100  1.0000
  Cu  Cu4       1.0  0.24100  0.75900  0.24100  1.0000
  Cu  Cu5       1.0  0.24100  0.24100  0.75900  1.0000
  Cu  Cu6       1.0  0.75900  0.75900  0.75900  1.0000
  Cu  Cu7       1.0  0.77900  0.22100  0.77900  1.0000
  Cu  Cu8       1.0  0.22100  0.77900  0.77900  1.0000
  In  In1       1.0  0.50000  0.23000  0.00000  1.0000
  In  In2       1.0  0.23000  0.50000  0.00000  1.0000
  In  In3       1.0  0.77000  0.50000  0.00000  1.0000
  In  In4       1.0  0.50000  0.77000  0.00000  1.0000
  In  In5       1.0  0.50000  0.00000  0.23000  1.0000
  In  In6       1.0  0.00000  0.50000  0.23000  1.0000
  In  In7       1.0  0.50000  0.50000  0.23900  1.0000
  In  In8       1.0  0.23000  0.00000  0.50000  1.0000
  In  In9       1.0  0.77000  0.00000  0.50000  1.0000
  In  In10      1.0  0.00000  0.23000  0.50000  1.0000
  In  In11      1.0  0.50000  0.23900  0.50000  1.0000
  In  In12      1.0  0.23900  0.50000  0.50000  1.0000
  In  In13      1.0  0.76100  0.50000  0.50000  1.0000
  In  In14      1.0  0.50000  0.76100  0.50000  1.0000
  In  In15      1.0  0.00000  0.77000  0.50000  1.0000
  In  In16      1.0  0.50000  0.50000  0.76100  1.0000
  In  In17      1.0  0.50000  0.00000  0.77000  1.0000
  In  In18      1.0  0.00000  0.50000  0.77000  1.0000
  Se  Se1       1.0  0.11100  0.11100  0.11100  1.0000
  Se  Se2       1.0  0.88900  0.88900  0.11100  1.0000
  Se  Se3       1.0  0.65100  0.11600  0.11600  1.0000
  Se  Se4       1.0  0.88400  0.34900  0.11600  1.0000
  Se  Se5       1.0  0.11600  0.65100  0.11600  1.0000
  Se  Se6       1.0  0.34900  0.88400  0.11600  1.0000
  Se  Se7       1.0  0.35900  0.35900  0.13100  1.0000
  Se  Se8       1.0  0.64100  0.64100  0.13100  1.0000
  Se  Se9       1.0  0.88400  0.11600  0.34900  1.0000
  Se  Se10      1.0  0.11600  0.88400  0.34900  1.0000
  Se  Se11      1.0  0.35900  0.13100  0.35900  1.0000
  Se  Se12      1.0  0.13100  0.35900  0.35900  1.0000
  Se  Se13      1.0  0.86900  0.64100  0.35900  1.0000
  Se  Se14      1.0  0.64100  0.86900  0.35900  1.0000
  Se  Se15      1.0  0.63600  0.36400  0.36400  1.0000
  Se  Se16      1.0  0.36400  0.63600  0.36400  1.0000
  Se  Se17      1.0  0.36400  0.36400  0.63600  1.0000
  Se  Se18      1.0  0.63600  0.63600  0.63600  1.0000
  Se  Se19      1.0  0.64100  0.13100  0.64100  1.0000
  Se  Se20      1.0  0.86900  0.35900  0.64100  1.0000
  Se  Se21      1.0  0.13100  0.64100  0.64100  1.0000
  Se  Se22      1.0  0.35900  0.86900  0.64100  1.0000
  Se  Se23      1.0  0.11600  0.11600  0.65100  1.0000
  Se  Se24      1.0  0.88400  0.88400  0.65100  1.0000
  Se  Se25      1.0  0.64100  0.35900  0.86900  1.0000
  Se  Se26      1.0  0.35900  0.64100  0.86900  1.0000
  Se  Se27      1.0  0.34900  0.11600  0.88400  1.0000
  Se  Se28      1.0  0.11600  0.34900  0.88400  1.0000
  Se  Se29      1.0  0.88400  0.65100  0.88400  1.0000
  Se  Se30      1.0  0.65100  0.88400  0.88400  1.0000
  Se  Se31      1.0  0.88900  0.11100  0.88900  1.0000
  Se  Se32      1.0  0.11100  0.88900  0.88900  1.0000
