data_image0
_chemical_formula_structural       K12P8Pu4S32
_chemical_formula_sum              "K12 P8 Pu4 S32"
_cell_length_a       9.0638
_cell_length_b       17.1448
_cell_length_c       9.55335
_cell_angle_alpha    90
_cell_angle_beta     90.2707
_cell_angle_gamma    90

_space_group_name_H-M_alt    "P 1"
_space_group_IT_number       1

loop_
  _space_group_symop_operation_xyz
  'x, y, z'

loop_
  _atom_site_type_symbol
  _atom_site_label
  _atom_site_symmetry_multiplicity
  _atom_site_fract_x
  _atom_site_fract_y
  _atom_site_fract_z
  _atom_site_occupancy
  K   K1        1.0  0.23300  0.96900  0.01300  1.0000
  K   K2        1.0  0.62200  0.79200  0.12800  1.0000
  K   K3        1.0  0.11300  0.71200  0.13300  1.0000
  K   K4        1.0  0.88700  0.21200  0.36700  1.0000
  K   K5        1.0  0.37800  0.29200  0.37200  1.0000
  K   K6        1.0  0.76700  0.46900  0.48700  1.0000
  K   K7        1.0  0.23300  0.53100  0.51300  1.0000
  K   K8        1.0  0.62200  0.70800  0.62800  1.0000
  K   K9        1.0  0.11300  0.78800  0.63300  1.0000
  K   K10       1.0  0.88700  0.28800  0.86700  1.0000
  K   K11       1.0  0.37800  0.20800  0.87200  1.0000
  K   K12       1.0  0.76700  0.03120  0.98700  1.0000
  P   P1        1.0  0.02690  0.40200  0.21900  1.0000
  P   P2        1.0  0.49900  0.60200  0.24200  1.0000
  P   P3        1.0  0.50100  0.10200  0.25800  1.0000
  P   P4        1.0  0.97300  0.90200  0.28100  1.0000
  P   P5        1.0  0.02690  0.09790  0.71900  1.0000
  P   P6        1.0  0.49900  0.89800  0.74200  1.0000
  P   P7        1.0  0.50100  0.39800  0.75800  1.0000
  P   P8        1.0  0.97300  0.59800  0.78100  1.0000
  Pu  Pu1       1.0  0.72100  0.51100  0.02750  1.0000
  Pu  Pu2       1.0  0.27900  0.01130  0.47200  1.0000
  Pu  Pu3       1.0  0.72100  0.98900  0.52800  1.0000
  Pu  Pu4       1.0  0.27900  0.48900  0.97200  1.0000
  S   S1        1.0  0.46700  0.62300  0.02990  1.0000
  S   S2        1.0  0.93400  0.87400  0.07870  1.0000
  S   S3        1.0  0.17100  0.34500  0.08880  1.0000
  S   S4        1.0  0.61800  0.17700  0.13800  1.0000
  S   S5        1.0  0.81300  0.37200  0.16700  1.0000
  S   S6        1.0  0.04310  0.52100  0.17700  1.0000
  S   S7        1.0  0.27900  0.11300  0.22700  1.0000
  S   S8        1.0  0.44900  0.48400  0.25000  1.0000
  S   S9        1.0  0.55100  0.98400  0.25000  1.0000
  S   S10       1.0  0.72100  0.61300  0.27300  1.0000
  S   S11       1.0  0.95700  0.02050  0.32300  1.0000
  S   S12       1.0  0.18700  0.87200  0.33300  1.0000
  S   S13       1.0  0.38200  0.67700  0.36200  1.0000
  S   S14       1.0  0.82900  0.84500  0.41100  1.0000
  S   S15       1.0  0.06630  0.37400  0.42100  1.0000
  S   S16       1.0  0.53300  0.12300  0.47000  1.0000
  S   S17       1.0  0.46700  0.87700  0.53000  1.0000
  S   S18       1.0  0.93400  0.62600  0.57900  1.0000
  S   S19       1.0  0.17100  0.15500  0.58900  1.0000
  S   S20       1.0  0.61800  0.32300  0.63800  1.0000
  S   S21       1.0  0.81300  0.12800  0.66700  1.0000
  S   S22       1.0  0.04310  0.97900  0.67700  1.0000
  S   S23       1.0  0.27900  0.38700  0.72700  1.0000
  S   S24       1.0  0.44900  0.01560  0.75000  1.0000
  S   S25       1.0  0.55100  0.51600  0.75000  1.0000
  S   S26       1.0  0.72100  0.88700  0.77300  1.0000
  S   S27       1.0  0.95700  0.47900  0.82300  1.0000
  S   S28       1.0  0.18700  0.62800  0.83300  1.0000
  S   S29       1.0  0.38200  0.82300  0.86200  1.0000
  S   S30       1.0  0.82900  0.65500  0.91100  1.0000
  S   S31       1.0  0.06630  0.12600  0.92100  1.0000
  S   S32       1.0  0.53300  0.37700  0.97000  1.0000
