data_image0
_chemical_formula_structural       Cs4Mo6O38P10
_chemical_formula_sum              "Cs4 Mo6 O38 P10"
_cell_length_a       9.61112
_cell_length_b       14.5032
_cell_length_c       6.44518
_cell_angle_alpha    90
_cell_angle_beta     104.923
_cell_angle_gamma    90

_space_group_name_H-M_alt    "P 1"
_space_group_IT_number       1

loop_
  _space_group_symop_operation_xyz
  'x, y, z'

loop_
  _atom_site_type_symbol
  _atom_site_label
  _atom_site_symmetry_multiplicity
  _atom_site_fract_x
  _atom_site_fract_y
  _atom_site_fract_z
  _atom_site_occupancy
  Cs  Cs1       1.0  0.50000  0.00000  0.00000  1.0000
  Cs  Cs2       1.0  0.50000  0.50000  0.00000  1.0000
  Cs  Cs3       1.0  0.87100  0.25000  0.05000  1.0000
  Cs  Cs4       1.0  0.12900  0.75000  0.95000  1.0000
  Mo  Mo1       1.0  0.85800  0.62500  0.27500  1.0000
  Mo  Mo2       1.0  0.85800  0.87500  0.27500  1.0000
  Mo  Mo3       1.0  0.53500  0.25000  0.37200  1.0000
  Mo  Mo4       1.0  0.46500  0.75000  0.62800  1.0000
  Mo  Mo5       1.0  0.14200  0.12500  0.72500  1.0000
  Mo  Mo6       1.0  0.14200  0.37500  0.72500  1.0000
  O   O1        1.0  0.15100  0.09020  0.03690  1.0000
  O   O2        1.0  0.15100  0.41000  0.03690  1.0000
  O   O3        1.0  0.54900  0.25000  0.06010  1.0000
  O   O4        1.0  0.64300  0.66200  0.21200  1.0000
  O   O5        1.0  0.64300  0.83800  0.21200  1.0000
  O   O6        1.0  0.89900  0.75000  0.25500  1.0000
  O   O7        1.0  0.37600  0.15100  0.29400  1.0000
  O   O8        1.0  0.37600  0.34900  0.29400  1.0000
  O   O9        1.0  0.44100  0.75000  0.30500  1.0000
  O   O10       1.0  0.80500  0.01180  0.31200  1.0000
  O   O11       1.0  0.80500  0.48800  0.31200  1.0000
  O   O12       1.0  0.07080  0.59200  0.33300  1.0000
  O   O13       1.0  0.07080  0.90800  0.33300  1.0000
  O   O14       1.0  0.29300  0.50200  0.35800  1.0000
  O   O15       1.0  0.29300  0.99800  0.35800  1.0000
  O   O16       1.0  0.13300  0.13600  0.39900  1.0000
  O   O17       1.0  0.13300  0.36400  0.39900  1.0000
  O   O18       1.0  0.69400  0.15000  0.43000  1.0000
  O   O19       1.0  0.69400  0.35000  0.43000  1.0000
  O   O20       1.0  0.30600  0.65000  0.57000  1.0000
  O   O21       1.0  0.30600  0.85000  0.57000  1.0000
  O   O22       1.0  0.86700  0.63600  0.60100  1.0000
  O   O23       1.0  0.86700  0.86400  0.60100  1.0000
  O   O24       1.0  0.70700  0.00196  0.64200  1.0000
  O   O25       1.0  0.70700  0.49800  0.64200  1.0000
  O   O26       1.0  0.92900  0.09190  0.66700  1.0000
  O   O27       1.0  0.92900  0.40800  0.66700  1.0000
  O   O28       1.0  0.19500  0.51200  0.68800  1.0000
  O   O29       1.0  0.19500  0.98800  0.68800  1.0000
  O   O30       1.0  0.55900  0.25000  0.69500  1.0000
  O   O31       1.0  0.62400  0.65100  0.70600  1.0000
  O   O32       1.0  0.62400  0.84900  0.70600  1.0000
  O   O33       1.0  0.10100  0.25000  0.74500  1.0000
  O   O34       1.0  0.35700  0.16200  0.78800  1.0000
  O   O35       1.0  0.35700  0.33800  0.78800  1.0000
  O   O36       1.0  0.45100  0.75000  0.94000  1.0000
  O   O37       1.0  0.84900  0.59000  0.96300  1.0000
  O   O38       1.0  0.84900  0.91000  0.96300  1.0000
  P   P1        1.0  0.55000  0.75000  0.16900  1.0000
  P   P2        1.0  0.23600  0.10100  0.27000  1.0000
  P   P3        1.0  0.23600  0.39900  0.27000  1.0000
  P   P4        1.0  0.21200  0.56800  0.49400  1.0000
  P   P5        1.0  0.21200  0.93200  0.49400  1.0000
  P   P6        1.0  0.78800  0.06770  0.50600  1.0000
  P   P7        1.0  0.78800  0.43200  0.50600  1.0000
  P   P8        1.0  0.76400  0.60100  0.73000  1.0000
  P   P9        1.0  0.76400  0.89900  0.73000  1.0000
  P   P10       1.0  0.45000  0.25000  0.83100  1.0000
