data_image0
_chemical_formula_structural       As4Cl16H4O16Pb16
_chemical_formula_sum              "As4 Cl16 H4 O16 Pb16"
_cell_length_a       13.8681
_cell_length_b       7.95591
_cell_length_c       10.812
_cell_angle_alpha    90
_cell_angle_beta     102.631
_cell_angle_gamma    90

_space_group_name_H-M_alt    "P 1"
_space_group_IT_number       1

loop_
  _space_group_symop_operation_xyz
  'x, y, z'

loop_
  _atom_site_type_symbol
  _atom_site_label
  _atom_site_symmetry_multiplicity
  _atom_site_fract_x
  _atom_site_fract_y
  _atom_site_fract_z
  _atom_site_occupancy
  As  As1       1.0  0.20000  0.55200  0.15400  1.0000
  As  As2       1.0  0.80000  0.05170  0.34600  1.0000
  As  As3       1.0  0.20000  0.94800  0.65400  1.0000
  As  As4       1.0  0.80000  0.44800  0.84600  1.0000
  Cl  Cl1       1.0  0.21600  0.94600  0.06000  1.0000
  Cl  Cl2       1.0  0.59100  0.10200  0.12600  1.0000
  Cl  Cl3       1.0  0.58200  0.56500  0.15700  1.0000
  Cl  Cl4       1.0  0.99700  0.05940  0.21900  1.0000
  Cl  Cl5       1.0  0.00313  0.55900  0.28100  1.0000
  Cl  Cl6       1.0  0.41800  0.06480  0.34300  1.0000
  Cl  Cl7       1.0  0.40900  0.60200  0.37400  1.0000
  Cl  Cl8       1.0  0.78400  0.44600  0.44000  1.0000
  Cl  Cl9       1.0  0.21600  0.55400  0.56000  1.0000
  Cl  Cl10      1.0  0.59100  0.39800  0.62600  1.0000
  Cl  Cl11      1.0  0.58200  0.93500  0.65700  1.0000
  Cl  Cl12      1.0  0.99700  0.44100  0.71900  1.0000
  Cl  Cl13      1.0  0.00313  0.94100  0.78100  1.0000
  Cl  Cl14      1.0  0.41800  0.43500  0.84300  1.0000
  Cl  Cl15      1.0  0.40900  0.89800  0.87400  1.0000
  Cl  Cl16      1.0  0.78400  0.05410  0.94000  1.0000
  H   H1        1.0  0.79800  0.75500  0.19500  1.0000
  H   H2        1.0  0.20200  0.25500  0.30500  1.0000
  H   H3        1.0  0.79800  0.74500  0.69500  1.0000
  H   H4        1.0  0.20200  0.24500  0.80500  1.0000
  O   O1        1.0  0.10100  0.55900  0.01250  1.0000
  O   O2        1.0  0.30100  0.56200  0.06540  1.0000
  O   O3        1.0  0.79900  0.69600  0.11200  1.0000
  O   O4        1.0  0.20300  0.32600  0.16200  1.0000
  O   O5        1.0  0.79700  0.82600  0.33800  1.0000
  O   O6        1.0  0.20100  0.19600  0.38800  1.0000
  O   O7        1.0  0.69900  0.06190  0.43500  1.0000
  O   O8        1.0  0.89900  0.05930  0.48700  1.0000
  O   O9        1.0  0.10100  0.94100  0.51300  1.0000
  O   O10       1.0  0.30100  0.93800  0.56500  1.0000
  O   O11       1.0  0.79900  0.80400  0.61200  1.0000
  O   O12       1.0  0.20300  0.17400  0.66200  1.0000
  O   O13       1.0  0.79700  0.67400  0.83800  1.0000
  O   O14       1.0  0.20100  0.30400  0.88800  1.0000
  O   O15       1.0  0.69900  0.43800  0.93500  1.0000
  O   O16       1.0  0.89900  0.44100  0.98700  1.0000
  Pb  Pb1       1.0  0.94500  0.74300  0.01610  1.0000
  Pb  Pb2       1.0  0.33500  0.25600  0.05510  1.0000
  Pb  Pb3       1.0  0.41500  0.78100  0.13200  1.0000
  Pb  Pb4       1.0  0.81300  0.40600  0.15400  1.0000
  Pb  Pb5       1.0  0.18700  0.90600  0.34600  1.0000
  Pb  Pb6       1.0  0.58500  0.28100  0.36800  1.0000
  Pb  Pb7       1.0  0.66500  0.75600  0.44500  1.0000
  Pb  Pb8       1.0  0.05460  0.24300  0.48400  1.0000
  Pb  Pb9       1.0  0.94500  0.75700  0.51600  1.0000
  Pb  Pb10      1.0  0.33500  0.24400  0.55500  1.0000
  Pb  Pb11      1.0  0.41500  0.71900  0.63200  1.0000
  Pb  Pb12      1.0  0.81300  0.09440  0.65400  1.0000
  Pb  Pb13      1.0  0.18700  0.59400  0.84600  1.0000
  Pb  Pb14      1.0  0.58500  0.21900  0.86800  1.0000
  Pb  Pb15      1.0  0.66500  0.74400  0.94500  1.0000
  Pb  Pb16      1.0  0.05460  0.25700  0.98400  1.0000
