data_image0
_chemical_formula_structural       H12Na8O30P8
_chemical_formula_sum              "H12 Na8 O30 P8"
_cell_length_a       6.49225
_cell_length_b       9.81409
_cell_length_c       10.9656
_cell_angle_alpha    104.227
_cell_angle_beta     101.083
_cell_angle_gamma    91.8543

_space_group_name_H-M_alt    "P 1"
_space_group_IT_number       1

loop_
  _space_group_symop_operation_xyz
  'x, y, z'

loop_
  _atom_site_type_symbol
  _atom_site_label
  _atom_site_symmetry_multiplicity
  _atom_site_fract_x
  _atom_site_fract_y
  _atom_site_fract_z
  _atom_site_occupancy
  H   H1        1.0  0.72400  0.82300  0.02440  1.0000
  H   H2        1.0  0.96500  0.86600  0.03730  1.0000
  H   H3        1.0  0.43500  0.62000  0.35100  1.0000
  H   H4        1.0  0.02560  0.52500  0.37600  1.0000
  H   H5        1.0  0.67300  0.61000  0.40800  1.0000
  H   H6        1.0  0.03240  0.66400  0.48900  1.0000
  H   H7        1.0  0.96800  0.33600  0.51100  1.0000
  H   H8        1.0  0.32700  0.39000  0.59200  1.0000
  H   H9        1.0  0.97400  0.47500  0.62400  1.0000
  H   H10       1.0  0.56500  0.38000  0.64900  1.0000
  H   H11       1.0  0.03520  0.13400  0.96300  1.0000
  H   H12       1.0  0.27600  0.17700  0.97600  1.0000
  Na  Na1       1.0  0.17800  0.43700  0.10600  1.0000
  Na  Na2       1.0  0.92000  0.71600  0.23600  1.0000
  Na  Na3       1.0  0.49900  0.34500  0.37100  1.0000
  Na  Na4       1.0  0.75300  0.03170  0.41800  1.0000
  Na  Na5       1.0  0.24700  0.96800  0.58200  1.0000
  Na  Na6       1.0  0.50100  0.65500  0.62900  1.0000
  Na  Na7       1.0  0.07960  0.28400  0.76400  1.0000
  Na  Na8       1.0  0.82200  0.56300  0.89400  1.0000
  O   O1        1.0  0.86500  0.79100  0.03920  1.0000
  O   O2        1.0  0.45700  0.72700  0.05000  1.0000
  O   O3        1.0  0.81500  0.48000  0.07940  1.0000
  O   O4        1.0  0.81300  0.23600  0.12400  1.0000
  O   O5        1.0  0.51600  0.38900  0.17300  1.0000
  O   O6        1.0  0.28100  0.91000  0.17900  1.0000
  O   O7        1.0  0.07080  0.10300  0.21400  1.0000
  O   O8        1.0  0.26600  0.66700  0.21800  1.0000
  O   O9        1.0  0.62100  0.82100  0.28100  1.0000
  O   O10       1.0  0.12700  0.37100  0.29500  1.0000
  O   O11       1.0  0.83900  0.23500  0.36100  1.0000
  O   O12       1.0  0.08950  0.94500  0.36900  1.0000
  O   O13       1.0  0.41300  0.11100  0.38100  1.0000
  O   O14       1.0  0.95200  0.61100  0.40300  1.0000
  O   O15       1.0  0.52900  0.59200  0.42000  1.0000
  O   O16       1.0  0.47100  0.40800  0.58000  1.0000
  O   O17       1.0  0.04850  0.38900  0.59700  1.0000
  O   O18       1.0  0.58700  0.88900  0.61900  1.0000
  O   O19       1.0  0.91100  0.05470  0.63100  1.0000
  O   O20       1.0  0.16100  0.76500  0.63900  1.0000
  O   O21       1.0  0.87300  0.62900  0.70500  1.0000
  O   O22       1.0  0.37900  0.17900  0.71900  1.0000
  O   O23       1.0  0.73400  0.33300  0.78200  1.0000
  O   O24       1.0  0.92900  0.89700  0.78600  1.0000
  O   O25       1.0  0.71900  0.09010  0.82100  1.0000
  O   O26       1.0  0.48400  0.61100  0.82700  1.0000
  O   O27       1.0  0.18700  0.76400  0.87600  1.0000
  O   O28       1.0  0.18500  0.52000  0.92100  1.0000
  O   O29       1.0  0.54300  0.27300  0.95000  1.0000
  O   O30       1.0  0.13500  0.20900  0.96100  1.0000
  P   P1        1.0  0.67300  0.36200  0.08990  1.0000
  P   P2        1.0  0.41100  0.77400  0.19400  1.0000
  P   P3        1.0  0.96600  0.24800  0.26200  1.0000
  P   P4        1.0  0.22200  0.02010  0.30300  1.0000
  P   P5        1.0  0.77800  0.98000  0.69700  1.0000
  P   P6        1.0  0.03400  0.75200  0.73800  1.0000
  P   P7        1.0  0.58900  0.22600  0.80600  1.0000
  P   P8        1.0  0.32700  0.63800  0.91000  1.0000
