data_image0
_chemical_formula_structural       H12K4O32S8
_chemical_formula_sum              "H12 K4 O32 S8"
_cell_length_a       7.39172
_cell_length_b       11.1603
_cell_length_c       8.35816
_cell_angle_alpha    90
_cell_angle_beta     112.145
_cell_angle_gamma    90

_space_group_name_H-M_alt    "P 1"
_space_group_IT_number       1

loop_
  _space_group_symop_operation_xyz
  'x, y, z'

loop_
  _atom_site_type_symbol
  _atom_site_label
  _atom_site_symmetry_multiplicity
  _atom_site_fract_x
  _atom_site_fract_y
  _atom_site_fract_z
  _atom_site_occupancy
  H   H1        1.0  0.23900  0.08820  0.00379  1.0000
  H   H2        1.0  0.74500  0.61700  0.15700  1.0000
  H   H3        1.0  0.36400  0.43700  0.20900  1.0000
  H   H4        1.0  0.63600  0.93700  0.29100  1.0000
  H   H5        1.0  0.25500  0.11700  0.34300  1.0000
  H   H6        1.0  0.76100  0.58800  0.49600  1.0000
  H   H7        1.0  0.23900  0.41200  0.50400  1.0000
  H   H8        1.0  0.74500  0.88300  0.65700  1.0000
  H   H9        1.0  0.36400  0.06300  0.70900  1.0000
  H   H10       1.0  0.63600  0.56300  0.79100  1.0000
  H   H11       1.0  0.25500  0.38300  0.84300  1.0000
  H   H12       1.0  0.76100  0.91200  0.99600  1.0000
  K   K1        1.0  0.14000  0.75200  0.05530  1.0000
  K   K2        1.0  0.86000  0.25200  0.44500  1.0000
  K   K3        1.0  0.14000  0.74800  0.55500  1.0000
  K   K4        1.0  0.86000  0.24800  0.94500  1.0000
  O   O1        1.0  0.79800  0.99800  0.03600  1.0000
  O   O2        1.0  0.26100  0.22600  0.04890  1.0000
  O   O3        1.0  0.59500  0.62900  0.08670  1.0000
  O   O4        1.0  0.61200  0.22100  0.10600  1.0000
  O   O5        1.0  0.20000  0.51000  0.16900  1.0000
  O   O6        1.0  0.94900  0.39300  0.22400  1.0000
  O   O7        1.0  0.48500  0.37800  0.22700  1.0000
  O   O8        1.0  0.95900  0.61300  0.24700  1.0000
  O   O9        1.0  0.04060  0.11300  0.25300  1.0000
  O   O10       1.0  0.51500  0.87800  0.27300  1.0000
  O   O11       1.0  0.05140  0.89300  0.27600  1.0000
  O   O12       1.0  0.80000  0.00951  0.33100  1.0000
  O   O13       1.0  0.38800  0.72100  0.39400  1.0000
  O   O14       1.0  0.40500  0.12900  0.41300  1.0000
  O   O15       1.0  0.73900  0.72600  0.45100  1.0000
  O   O16       1.0  0.20200  0.49800  0.46400  1.0000
  O   O17       1.0  0.79800  0.50200  0.53600  1.0000
  O   O18       1.0  0.26100  0.27400  0.54900  1.0000
  O   O19       1.0  0.59500  0.87100  0.58700  1.0000
  O   O20       1.0  0.61200  0.27900  0.60600  1.0000
  O   O21       1.0  0.20000  0.99000  0.66900  1.0000
  O   O22       1.0  0.94900  0.10700  0.72400  1.0000
  O   O23       1.0  0.48500  0.12200  0.72700  1.0000
  O   O24       1.0  0.95900  0.88700  0.74700  1.0000
  O   O25       1.0  0.04060  0.38700  0.75300  1.0000
  O   O26       1.0  0.51500  0.62200  0.77300  1.0000
  O   O27       1.0  0.05140  0.60700  0.77600  1.0000
  O   O28       1.0  0.80000  0.49000  0.83100  1.0000
  O   O29       1.0  0.38800  0.77900  0.89400  1.0000
  O   O30       1.0  0.40500  0.37100  0.91300  1.0000
  O   O31       1.0  0.73900  0.77400  0.95100  1.0000
  O   O32       1.0  0.20200  0.00227  0.96400  1.0000
  S   S1        1.0  0.44000  0.29200  0.07390  1.0000
  S   S2        1.0  0.93100  0.00000  0.23400  1.0000
  S   S3        1.0  0.06880  0.50000  0.26600  1.0000
  S   S4        1.0  0.56000  0.79200  0.42600  1.0000
  S   S5        1.0  0.44000  0.20800  0.57400  1.0000
  S   S6        1.0  0.93100  0.50000  0.73400  1.0000
  S   S7        1.0  0.06880  0.00037  0.76600  1.0000
  S   S8        1.0  0.56000  0.70800  0.92600  1.0000
