data_image0
_chemical_formula_structural       Cs6P10S36Zr4
_chemical_formula_sum              "Cs6 P10 S36 Zr4"
_cell_length_a       6.94774
_cell_length_b       6.94774
_cell_length_c       34.3434
_cell_angle_alpha    93.1467
_cell_angle_beta     93.1467
_cell_angle_gamma    93.7362

_space_group_name_H-M_alt    "P 1"
_space_group_IT_number       1

loop_
  _space_group_symop_operation_xyz
  'x, y, z'

loop_
  _atom_site_type_symbol
  _atom_site_label
  _atom_site_symmetry_multiplicity
  _atom_site_fract_x
  _atom_site_fract_y
  _atom_site_fract_z
  _atom_site_occupancy
  Cs  Cs1       1.0  0.77800  0.99700  0.06820  1.0000
  Cs  Cs2       1.0  0.66100  0.93800  0.25500  1.0000
  Cs  Cs3       1.0  0.28600  0.47300  0.36300  1.0000
  Cs  Cs4       1.0  0.99700  0.77800  0.56800  1.0000
  Cs  Cs5       1.0  0.93800  0.66100  0.75500  1.0000
  Cs  Cs6       1.0  0.47300  0.28600  0.86300  1.0000
  P   P1        1.0  0.26400  0.56000  0.05860  1.0000
  P   P2        1.0  0.80400  0.42900  0.17400  1.0000
  P   P3        1.0  0.15800  0.65100  0.23800  1.0000
  P   P4        1.0  0.75000  0.19100  0.38000  1.0000
  P   P5        1.0  0.07220  0.00686  0.44500  1.0000
  P   P6        1.0  0.56000  0.26400  0.55900  1.0000
  P   P7        1.0  0.42900  0.80400  0.67400  1.0000
  P   P8        1.0  0.65100  0.15800  0.73800  1.0000
  P   P9        1.0  0.19100  0.75000  0.88000  1.0000
  P   P10       1.0  0.00686  0.07220  0.94500  1.0000
  S   S1        1.0  0.42000  0.64100  0.01260  1.0000
  S   S2        1.0  0.99100  0.49100  0.03390  1.0000
  S   S3        1.0  0.37600  0.33600  0.08690  1.0000
  S   S4        1.0  0.27000  0.77700  0.10200  1.0000
  S   S5        1.0  0.02020  0.32200  0.14300  1.0000
  S   S6        1.0  0.70400  0.68000  0.15500  1.0000
  S   S7        1.0  0.57900  0.22700  0.16900  1.0000
  S   S8        1.0  0.17500  0.80700  0.19000  1.0000
  S   S9        1.0  0.36200  0.45600  0.22900  1.0000
  S   S10       1.0  0.88200  0.47900  0.23500  1.0000
  S   S11       1.0  0.16100  0.80000  0.28900  1.0000
  S   S12       1.0  0.76700  0.31100  0.32900  1.0000
  S   S13       1.0  0.00020  0.01970  0.38300  1.0000
  S   S14       1.0  0.51600  0.00783  0.38900  1.0000
  S   S15       1.0  0.75400  0.37900  0.42800  1.0000
  S   S16       1.0  0.27500  0.81100  0.45000  1.0000
  S   S17       1.0  0.20200  0.26900  0.46500  1.0000
  S   S18       1.0  0.83900  0.91600  0.47400  1.0000
  S   S19       1.0  0.64100  0.42000  0.51300  1.0000
  S   S20       1.0  0.49100  0.99100  0.53400  1.0000
  S   S21       1.0  0.33600  0.37600  0.58700  1.0000
  S   S22       1.0  0.77700  0.27000  0.60200  1.0000
  S   S23       1.0  0.32200  0.02020  0.64300  1.0000
  S   S24       1.0  0.68000  0.70400  0.65500  1.0000
  S   S25       1.0  0.22700  0.57900  0.66900  1.0000
  S   S26       1.0  0.80700  0.17500  0.69000  1.0000
  S   S27       1.0  0.45600  0.36200  0.72900  1.0000
  S   S28       1.0  0.47900  0.88200  0.73500  1.0000
  S   S29       1.0  0.80000  0.16100  0.78900  1.0000
  S   S30       1.0  0.31100  0.76700  0.82900  1.0000
  S   S31       1.0  0.01970  0.00020  0.88300  1.0000
  S   S32       1.0  0.00783  0.51600  0.88900  1.0000
  S   S33       1.0  0.37900  0.75400  0.92800  1.0000
  S   S34       1.0  0.81100  0.27500  0.95000  1.0000
  S   S35       1.0  0.26900  0.20200  0.96500  1.0000
  S   S36       1.0  0.91600  0.83900  0.97400  1.0000
  Zr  Zr1       1.0  0.35000  0.52500  0.15500  1.0000
  Zr  Zr2       1.0  0.53900  0.12400  0.46300  1.0000
  Zr  Zr3       1.0  0.52500  0.35000  0.65500  1.0000
  Zr  Zr4       1.0  0.12400  0.53900  0.96300  1.0000
