data_image0
_chemical_formula_structural       Bi12F4O28P4Zn2
_chemical_formula_sum              "Bi12 F4 O28 P4 Zn2"
_cell_length_a       5.51417
_cell_length_b       8.73654
_cell_length_c       15.8471
_cell_angle_alpha    96.2196
_cell_angle_beta     100.019
_cell_angle_gamma    108.397

_space_group_name_H-M_alt    "P 1"
_space_group_IT_number       1

loop_
  _space_group_symop_operation_xyz
  'x, y, z'

loop_
  _atom_site_type_symbol
  _atom_site_label
  _atom_site_symmetry_multiplicity
  _atom_site_fract_x
  _atom_site_fract_y
  _atom_site_fract_z
  _atom_site_occupancy
  Bi  Bi1       1.0  0.31700  0.37800  0.16900  1.0000
  Bi  Bi2       1.0  0.99500  0.76200  0.16900  1.0000
  Bi  Bi3       1.0  0.67000  0.04420  0.16900  1.0000
  Bi  Bi4       1.0  0.95600  0.45600  0.33100  1.0000
  Bi  Bi5       1.0  0.56500  0.73800  0.33100  1.0000
  Bi  Bi6       1.0  0.27000  0.12200  0.33100  1.0000
  Bi  Bi7       1.0  0.73000  0.87800  0.66900  1.0000
  Bi  Bi8       1.0  0.43500  0.26200  0.66900  1.0000
  Bi  Bi9       1.0  0.04390  0.54400  0.66900  1.0000
  Bi  Bi10      1.0  0.33000  0.95600  0.83100  1.0000
  Bi  Bi11      1.0  0.00457  0.23800  0.83100  1.0000
  Bi  Bi12      1.0  0.68300  0.62200  0.83100  1.0000
  F   F1        1.0  0.74100  0.48000  0.03280  1.0000
  F   F2        1.0  0.72800  0.01960  0.46700  1.0000
  F   F3        1.0  0.27200  0.98000  0.53300  1.0000
  F   F4        1.0  0.25900  0.52000  0.96700  1.0000
  O   O1        1.0  0.88800  0.24000  0.03590  1.0000
  O   O2        1.0  0.41900  0.21200  0.04050  1.0000
  O   O3        1.0  0.41800  0.73300  0.09920  1.0000
  O   O4        1.0  0.02380  0.00029  0.11900  1.0000
  O   O5        1.0  0.18200  0.57700  0.23800  1.0000
  O   O6        1.0  0.69300  0.58300  0.24200  1.0000
  O   O7        1.0  0.02840  0.25000  0.25000  1.0000
  O   O8        1.0  0.53400  0.25000  0.25000  1.0000
  O   O9        1.0  0.36800  0.91700  0.25800  1.0000
  O   O10       1.0  0.86600  0.92300  0.26200  1.0000
  O   O11       1.0  0.40500  0.50000  0.38100  1.0000
  O   O12       1.0  0.08520  0.76700  0.40100  1.0000
  O   O13       1.0  0.66600  0.28800  0.46000  1.0000
  O   O14       1.0  0.11200  0.26000  0.46400  1.0000
  O   O15       1.0  0.88800  0.74000  0.53600  1.0000
  O   O16       1.0  0.33400  0.71200  0.54000  1.0000
  O   O17       1.0  0.91500  0.23300  0.59900  1.0000
  O   O18       1.0  0.59500  0.50000  0.61900  1.0000
  O   O19       1.0  0.13400  0.07740  0.73800  1.0000
  O   O20       1.0  0.63200  0.08310  0.74200  1.0000
  O   O21       1.0  0.46600  0.75000  0.75000  1.0000
  O   O22       1.0  0.97200  0.75000  0.75000  1.0000
  O   O23       1.0  0.30700  0.41700  0.75800  1.0000
  O   O24       1.0  0.81800  0.42300  0.76200  1.0000
  O   O25       1.0  0.97600  0.00000  0.88100  1.0000
  O   O26       1.0  0.58200  0.26700  0.90100  1.0000
  O   O27       1.0  0.58100  0.78800  0.96000  1.0000
  O   O28       1.0  0.11200  0.76000  0.96400  1.0000
  P   P1        1.0  0.34900  0.71500  0.00011  1.0000
  P   P2        1.0  0.13400  0.78500  0.50000  1.0000
  P   P3        1.0  0.86600  0.21500  0.50000  1.0000
  P   P4        1.0  0.65100  0.28500  0.00000  1.0000
  Zn  Zn1       1.0  0.00000  0.00000  0.00000  1.0000
  Zn  Zn2       1.0  0.50000  0.50000  0.50000  1.0000
