data_image0
_chemical_formula_structural       P10Rb6S36Zr4
_chemical_formula_sum              "P10 Rb6 S36 Zr4"
_cell_length_a       6.85189
_cell_length_b       6.85189
_cell_length_c       33.8961
_cell_angle_alpha    93.5038
_cell_angle_beta     93.5038
_cell_angle_gamma    93.3401

_space_group_name_H-M_alt    "P 1"
_space_group_IT_number       1

loop_
  _space_group_symop_operation_xyz
  'x, y, z'

loop_
  _atom_site_type_symbol
  _atom_site_label
  _atom_site_symmetry_multiplicity
  _atom_site_fract_x
  _atom_site_fract_y
  _atom_site_fract_z
  _atom_site_occupancy
  P   P1        1.0  0.27900  0.55900  0.05840  1.0000
  P   P2        1.0  0.82700  0.41200  0.17400  1.0000
  P   P3        1.0  0.18100  0.63600  0.24000  1.0000
  P   P4        1.0  0.74500  0.17700  0.37700  1.0000
  P   P5        1.0  0.07250  0.99800  0.44400  1.0000
  P   P6        1.0  0.55900  0.27900  0.55800  1.0000
  P   P7        1.0  0.41200  0.82700  0.67400  1.0000
  P   P8        1.0  0.63600  0.18100  0.74000  1.0000
  P   P9        1.0  0.17700  0.74500  0.87700  1.0000
  P   P10       1.0  0.99800  0.07250  0.94400  1.0000
  Rb  Rb1       1.0  0.79400  0.98500  0.06930  1.0000
  Rb  Rb2       1.0  0.67700  0.91500  0.25400  1.0000
  Rb  Rb3       1.0  0.27900  0.45900  0.36500  1.0000
  Rb  Rb4       1.0  0.98500  0.79400  0.56900  1.0000
  Rb  Rb5       1.0  0.91500  0.67700  0.75400  1.0000
  Rb  Rb6       1.0  0.45900  0.27900  0.86500  1.0000
  S   S1        1.0  0.42800  0.64900  0.01160  1.0000
  S   S2        1.0  0.99900  0.48800  0.03480  1.0000
  S   S3        1.0  0.40200  0.33100  0.08530  1.0000
  S   S4        1.0  0.28600  0.77600  0.10300  1.0000
  S   S5        1.0  0.04420  0.30100  0.14300  1.0000
  S   S6        1.0  0.72800  0.66900  0.15500  1.0000
  S   S7        1.0  0.59900  0.20600  0.16900  1.0000
  S   S8        1.0  0.19600  0.79900  0.19200  1.0000
  S   S9        1.0  0.38800  0.43800  0.23000  1.0000
  S   S10       1.0  0.90300  0.46100  0.23600  1.0000
  S   S11       1.0  0.18400  0.78300  0.29200  1.0000
  S   S12       1.0  0.75900  0.28900  0.32500  1.0000
  S   S13       1.0  0.00011  0.00492  0.38200  1.0000
  S   S14       1.0  0.51200  0.99300  0.38800  1.0000
  S   S15       1.0  0.75000  0.37700  0.42500  1.0000
  S   S16       1.0  0.28000  0.80100  0.45000  1.0000
  S   S17       1.0  0.19800  0.26900  0.46400  1.0000
  S   S18       1.0  0.83900  0.90800  0.47500  1.0000
  S   S19       1.0  0.64900  0.42800  0.51200  1.0000
  S   S20       1.0  0.48800  0.99900  0.53500  1.0000
  S   S21       1.0  0.33100  0.40200  0.58500  1.0000
  S   S22       1.0  0.77600  0.28600  0.60300  1.0000
  S   S23       1.0  0.30100  0.04420  0.64300  1.0000
  S   S24       1.0  0.66900  0.72800  0.65500  1.0000
  S   S25       1.0  0.20600  0.59900  0.66900  1.0000
  S   S26       1.0  0.79900  0.19600  0.69200  1.0000
  S   S27       1.0  0.43800  0.38800  0.73000  1.0000
  S   S28       1.0  0.46100  0.90300  0.73600  1.0000
  S   S29       1.0  0.78300  0.18400  0.79200  1.0000
  S   S30       1.0  0.28900  0.75900  0.82500  1.0000
  S   S31       1.0  0.00492  0.00011  0.88200  1.0000
  S   S32       1.0  0.99300  0.51200  0.88800  1.0000
  S   S33       1.0  0.37700  0.75000  0.92500  1.0000
  S   S34       1.0  0.80100  0.28000  0.95000  1.0000
  S   S35       1.0  0.26900  0.19800  0.96400  1.0000
  S   S36       1.0  0.90800  0.83900  0.97500  1.0000
  Zr  Zr1       1.0  0.37100  0.51400  0.15500  1.0000
  Zr  Zr2       1.0  0.54000  0.12300  0.46300  1.0000
  Zr  Zr3       1.0  0.51400  0.37100  0.65500  1.0000
  Zr  Zr4       1.0  0.12300  0.54000  0.96300  1.0000
