data_image0
_chemical_formula_structural       H20K4N4O28Te2
_chemical_formula_sum              "H20 K4 N4 O28 Te2"
_cell_length_a       12.8057
_cell_length_b       6.98415
_cell_length_c       6.69608
_cell_angle_alpha    90
_cell_angle_beta     101.728
_cell_angle_gamma    90

_space_group_name_H-M_alt    "P 1"
_space_group_IT_number       1

loop_
  _space_group_symop_operation_xyz
  'x, y, z'

loop_
  _atom_site_type_symbol
  _atom_site_label
  _atom_site_symmetry_multiplicity
  _atom_site_fract_x
  _atom_site_fract_y
  _atom_site_fract_z
  _atom_site_occupancy
  H   H1        1.0  0.30800  0.56400  0.01740  1.0000
  H   H2        1.0  0.80800  0.93600  0.01740  1.0000
  H   H3        1.0  0.17900  0.36900  0.08890  1.0000
  H   H4        1.0  0.67900  0.13100  0.08890  1.0000
  H   H5        1.0  0.16100  0.59400  0.11700  1.0000
  H   H6        1.0  0.66100  0.90600  0.11700  1.0000
  H   H7        1.0  0.01390  0.68100  0.18400  1.0000
  H   H8        1.0  0.51400  0.81900  0.18400  1.0000
  H   H9        1.0  0.47100  0.25600  0.24900  1.0000
  H   H10       1.0  0.97100  0.24400  0.24900  1.0000
  H   H11       1.0  0.02900  0.75600  0.75100  1.0000
  H   H12       1.0  0.52900  0.74400  0.75100  1.0000
  H   H13       1.0  0.48600  0.18100  0.81600  1.0000
  H   H14       1.0  0.98600  0.31900  0.81600  1.0000
  H   H15       1.0  0.33900  0.09430  0.88300  1.0000
  H   H16       1.0  0.83900  0.40600  0.88300  1.0000
  H   H17       1.0  0.32100  0.86900  0.91100  1.0000
  H   H18       1.0  0.82100  0.63100  0.91100  1.0000
  H   H19       1.0  0.69200  0.43600  0.98300  1.0000
  H   H20       1.0  0.19200  0.06380  0.98300  1.0000
  K   K1        1.0  0.16200  0.98100  0.49300  1.0000
  K   K2        1.0  0.66200  0.51900  0.49300  1.0000
  K   K3        1.0  0.33800  0.48100  0.50700  1.0000
  K   K4        1.0  0.83800  0.01890  0.50700  1.0000
  N   N1        1.0  0.38300  0.98500  0.34100  1.0000
  N   N2        1.0  0.88300  0.51500  0.34100  1.0000
  N   N3        1.0  0.11700  0.48500  0.65900  1.0000
  N   N4        1.0  0.61700  0.01460  0.65900  1.0000
  O   O1        1.0  0.13900  0.12400  0.05990  1.0000
  O   O2        1.0  0.63900  0.37600  0.05990  1.0000
  O   O3        1.0  0.21600  0.49400  0.12500  1.0000
  O   O4        1.0  0.71600  0.00647  0.12500  1.0000
  O   O5        1.0  0.56700  0.72500  0.14600  1.0000
  O   O6        1.0  0.06670  0.77500  0.14600  1.0000
  O   O7        1.0  0.47500  0.40000  0.25500  1.0000
  O   O8        1.0  0.97500  0.10000  0.25500  1.0000
  O   O9        1.0  0.46400  0.01730  0.25700  1.0000
  O   O10       1.0  0.96400  0.48300  0.25700  1.0000
  O   O11       1.0  0.84900  0.68100  0.34900  1.0000
  O   O12       1.0  0.34900  0.81900  0.34900  1.0000
  O   O13       1.0  0.34100  0.12500  0.41200  1.0000
  O   O14       1.0  0.84100  0.37500  0.41200  1.0000
  O   O15       1.0  0.15900  0.62500  0.58800  1.0000
  O   O16       1.0  0.65900  0.87500  0.58800  1.0000
  O   O17       1.0  0.65100  0.18100  0.65100  1.0000
  O   O18       1.0  0.15100  0.31900  0.65100  1.0000
  O   O19       1.0  0.03640  0.51700  0.74300  1.0000
  O   O20       1.0  0.53600  0.98300  0.74300  1.0000
  O   O21       1.0  0.02520  0.90000  0.74500  1.0000
  O   O22       1.0  0.52500  0.60000  0.74500  1.0000
  O   O23       1.0  0.43300  0.27500  0.85400  1.0000
  O   O24       1.0  0.93300  0.22500  0.85400  1.0000
  O   O25       1.0  0.28400  0.99400  0.87500  1.0000
  O   O26       1.0  0.78400  0.50600  0.87500  1.0000
  O   O27       1.0  0.36100  0.62400  0.94000  1.0000
  O   O28       1.0  0.86100  0.87600  0.94000  1.0000
  Te  Te1       1.0  0.00000  0.00000  0.00000  1.0000
  Te  Te2       1.0  0.50000  0.50000  0.00000  1.0000
