data_image0
_chemical_formula_structural       Fe16O32Sr8
_chemical_formula_sum              "Fe16 O32 Sr8"
_cell_length_a       8.05881
_cell_length_b       9.17125
_cell_length_c       10.8668
_cell_angle_alpha    90
_cell_angle_beta     90
_cell_angle_gamma    91.3997

_space_group_name_H-M_alt    "P 1"
_space_group_IT_number       1

loop_
  _space_group_symop_operation_xyz
  'x, y, z'

loop_
  _atom_site_type_symbol
  _atom_site_label
  _atom_site_symmetry_multiplicity
  _atom_site_fract_x
  _atom_site_fract_y
  _atom_site_fract_z
  _atom_site_occupancy
  Fe  Fe1       1.0  0.82900  0.07230  0.11200  1.0000
  Fe  Fe2       1.0  0.74200  0.40700  0.11500  1.0000
  Fe  Fe3       1.0  0.30400  0.40900  0.13800  1.0000
  Fe  Fe4       1.0  0.22500  0.07040  0.13800  1.0000
  Fe  Fe5       1.0  0.72500  0.57000  0.36200  1.0000
  Fe  Fe6       1.0  0.80400  0.90900  0.36200  1.0000
  Fe  Fe7       1.0  0.24200  0.90700  0.38500  1.0000
  Fe  Fe8       1.0  0.32900  0.57200  0.38800  1.0000
  Fe  Fe9       1.0  0.67100  0.42800  0.61200  1.0000
  Fe  Fe10      1.0  0.75800  0.09300  0.61500  1.0000
  Fe  Fe11      1.0  0.19600  0.09120  0.63800  1.0000
  Fe  Fe12      1.0  0.27500  0.43000  0.63800  1.0000
  Fe  Fe13      1.0  0.77500  0.93000  0.86200  1.0000
  Fe  Fe14      1.0  0.69600  0.59100  0.86200  1.0000
  Fe  Fe15      1.0  0.25800  0.59300  0.88500  1.0000
  Fe  Fe16      1.0  0.17100  0.92800  0.88800  1.0000
  O   O1        1.0  0.68500  0.94800  0.02090  1.0000
  O   O2        1.0  0.76900  0.58400  0.02670  1.0000
  O   O3        1.0  0.83700  0.25300  0.02930  1.0000
  O   O4        1.0  0.52100  0.33500  0.11800  1.0000
  O   O5        1.0  0.02350  0.96800  0.13400  1.0000
  O   O6        1.0  0.27200  0.59300  0.21500  1.0000
  O   O7        1.0  0.20600  0.25000  0.22500  1.0000
  O   O8        1.0  0.36500  0.95800  0.24100  1.0000
  O   O9        1.0  0.86500  0.45800  0.25900  1.0000
  O   O10       1.0  0.70600  0.75000  0.27500  1.0000
  O   O11       1.0  0.77200  0.09290  0.28500  1.0000
  O   O12       1.0  0.52400  0.46800  0.36600  1.0000
  O   O13       1.0  0.02100  0.83500  0.38200  1.0000
  O   O14       1.0  0.33700  0.75300  0.47100  1.0000
  O   O15       1.0  0.26900  0.08390  0.47300  1.0000
  O   O16       1.0  0.18500  0.44800  0.47900  1.0000
  O   O17       1.0  0.81500  0.55200  0.52100  1.0000
  O   O18       1.0  0.73100  0.91600  0.52700  1.0000
  O   O19       1.0  0.66300  0.24700  0.52900  1.0000
  O   O20       1.0  0.97900  0.16500  0.61800  1.0000
  O   O21       1.0  0.47600  0.53200  0.63400  1.0000
  O   O22       1.0  0.22800  0.90700  0.71500  1.0000
  O   O23       1.0  0.29400  0.25000  0.72500  1.0000
  O   O24       1.0  0.13500  0.54200  0.74100  1.0000
  O   O25       1.0  0.63500  0.04160  0.75900  1.0000
  O   O26       1.0  0.79400  0.75000  0.77500  1.0000
  O   O27       1.0  0.72800  0.40700  0.78500  1.0000
  O   O28       1.0  0.97600  0.03220  0.86600  1.0000
  O   O29       1.0  0.47900  0.66500  0.88200  1.0000
  O   O30       1.0  0.16300  0.74700  0.97100  1.0000
  O   O31       1.0  0.23100  0.41600  0.97300  1.0000
  O   O32       1.0  0.31500  0.05150  0.97900  1.0000
  Sr  Sr1       1.0  0.49100  0.77200  0.10600  1.0000
  Sr  Sr2       1.0  0.99600  0.70000  0.15600  1.0000
  Sr  Sr3       1.0  0.49600  0.20000  0.34400  1.0000
  Sr  Sr4       1.0  0.99100  0.27200  0.39400  1.0000
  Sr  Sr5       1.0  0.00860  0.72800  0.60600  1.0000
  Sr  Sr6       1.0  0.50400  0.80000  0.65600  1.0000
  Sr  Sr7       1.0  0.00357  0.30000  0.84400  1.0000
  Sr  Sr8       1.0  0.50900  0.22800  0.89400  1.0000
