data_image0
_chemical_formula_structural       Gd2Mn2O2Te2
_chemical_formula_sum              "Gd2 Mn2 O2 Te2"
_cell_length_a       5.20784
_cell_length_b       5.20784
_cell_length_c       9.78966
_cell_angle_alpha    105.426
_cell_angle_beta     105.426
_cell_angle_gamma    60

_space_group_name_H-M_alt    "P 1"
_space_group_IT_number       1

loop_
  _space_group_symop_operation_xyz
  'x, y, z'

loop_
  _atom_site_type_symbol
  _atom_site_label
  _atom_site_symmetry_multiplicity
  _atom_site_fract_x
  _atom_site_fract_y
  _atom_site_fract_z
  _atom_site_occupancy
  Gd  Gd1       1.0  0.77000  0.77000  0.31000  1.0000
  Gd  Gd2       1.0  0.23000  0.23000  0.69000  1.0000
  Mn  Mn1       1.0  0.37300  0.37300  0.11800  1.0000
  Mn  Mn2       1.0  0.62700  0.62700  0.88200  1.0000
  O   O1        1.0  0.69700  0.69700  0.08960  1.0000
  O   O2        1.0  0.30300  0.30300  0.91000  1.0000
  Te  Te1       1.0  0.11200  0.11200  0.33500  1.0000
  Te  Te2       1.0  0.88800  0.88800  0.66500  1.0000
