data_image0
_chemical_formula_structural       Cl20N16O4P12S4
_chemical_formula_sum              "Cl20 N16 O4 P12 S4"
_cell_length_a       16.8853
_cell_length_b       8.85492
_cell_length_c       7.80873
_cell_angle_alpha    90
_cell_angle_beta     90
_cell_angle_gamma    90

_space_group_name_H-M_alt    "P 1"
_space_group_IT_number       1

loop_
  _space_group_symop_operation_xyz
  'x, y, z'

loop_
  _atom_site_type_symbol
  _atom_site_label
  _atom_site_symmetry_multiplicity
  _atom_site_fract_x
  _atom_site_fract_y
  _atom_site_fract_z
  _atom_site_occupancy
  Cl  Cl1       1.0  0.09040  0.03640  0.10800  1.0000
  Cl  Cl2       1.0  0.09040  0.46400  0.10800  1.0000
  Cl  Cl3       1.0  0.74600  0.02550  0.18100  1.0000
  Cl  Cl4       1.0  0.74600  0.47500  0.18100  1.0000
  Cl  Cl5       1.0  0.91100  0.25000  0.21500  1.0000
  Cl  Cl6       1.0  0.41100  0.25000  0.28500  1.0000
  Cl  Cl7       1.0  0.24600  0.02550  0.31900  1.0000
  Cl  Cl8       1.0  0.24600  0.47500  0.31900  1.0000
  Cl  Cl9       1.0  0.59000  0.03640  0.39200  1.0000
  Cl  Cl10      1.0  0.59000  0.46400  0.39200  1.0000
  Cl  Cl11      1.0  0.41000  0.53600  0.60800  1.0000
  Cl  Cl12      1.0  0.41000  0.96400  0.60800  1.0000
  Cl  Cl13      1.0  0.75400  0.52500  0.68100  1.0000
  Cl  Cl14      1.0  0.75400  0.97500  0.68100  1.0000
  Cl  Cl15      1.0  0.58900  0.75000  0.71500  1.0000
  Cl  Cl16      1.0  0.08920  0.75000  0.78500  1.0000
  Cl  Cl17      1.0  0.25400  0.52500  0.81900  1.0000
  Cl  Cl18      1.0  0.25400  0.97500  0.81900  1.0000
  Cl  Cl19      1.0  0.91000  0.53600  0.89200  1.0000
  Cl  Cl20      1.0  0.91000  0.96400  0.89200  1.0000
  N   N1        1.0  0.53400  0.25000  0.03870  1.0000
  N   N2        1.0  0.59700  0.59500  0.04450  1.0000
  N   N3        1.0  0.59700  0.90500  0.04450  1.0000
  N   N4        1.0  0.16800  0.75000  0.19200  1.0000
  N   N5        1.0  0.66800  0.75000  0.30800  1.0000
  N   N6        1.0  0.09740  0.59500  0.45500  1.0000
  N   N7        1.0  0.09740  0.90500  0.45500  1.0000
  N   N8        1.0  0.03410  0.25000  0.46100  1.0000
  N   N9        1.0  0.96600  0.75000  0.53900  1.0000
  N   N10       1.0  0.90300  0.09490  0.54500  1.0000
  N   N11       1.0  0.90300  0.40500  0.54500  1.0000
  N   N12       1.0  0.33200  0.25000  0.69200  1.0000
  N   N13       1.0  0.83200  0.25000  0.80800  1.0000
  N   N14       1.0  0.40300  0.09490  0.95500  1.0000
  N   N15       1.0  0.40300  0.40500  0.95500  1.0000
  N   N16       1.0  0.46600  0.75000  0.96100  1.0000
  O   O1        1.0  0.94100  0.75000  0.21400  1.0000
  O   O2        1.0  0.44100  0.75000  0.28600  1.0000
  O   O3        1.0  0.55900  0.25000  0.71400  1.0000
  O   O4        1.0  0.05910  0.25000  0.78600  1.0000
  P   P1        1.0  0.43500  0.25000  0.03400  1.0000
  P   P2        1.0  0.64600  0.59300  0.21900  1.0000
  P   P3        1.0  0.64600  0.90700  0.21900  1.0000
  P   P4        1.0  0.14600  0.59300  0.28100  1.0000
  P   P5        1.0  0.14600  0.90700  0.28100  1.0000
  P   P6        1.0  0.93500  0.25000  0.46600  1.0000
  P   P7        1.0  0.06520  0.75000  0.53400  1.0000
  P   P8        1.0  0.85400  0.09320  0.71900  1.0000
  P   P9        1.0  0.85400  0.40700  0.71900  1.0000
  P   P10       1.0  0.35400  0.09320  0.78100  1.0000
  P   P11       1.0  0.35400  0.40700  0.78100  1.0000
  P   P12       1.0  0.56500  0.75000  0.96600  1.0000
  S   S1        1.0  0.40800  0.75000  0.11100  1.0000
  S   S2        1.0  0.90800  0.75000  0.38900  1.0000
  S   S3        1.0  0.09150  0.25000  0.61100  1.0000
  S   S4        1.0  0.59200  0.25000  0.88900  1.0000
