data_image0
_chemical_formula_structural       Ba2Gd2O2Te2
_chemical_formula_sum              "Ba2 Gd2 O2 Te2"
_cell_length_a       5.2549
_cell_length_b       5.2549
_cell_length_c       10.6252
_cell_angle_alpha    104.317
_cell_angle_beta     75.683
_cell_angle_gamma    120

_space_group_name_H-M_alt    "P 1"
_space_group_IT_number       1

loop_
  _space_group_symop_operation_xyz
  'x, y, z'

loop_
  _atom_site_type_symbol
  _atom_site_label
  _atom_site_symmetry_multiplicity
  _atom_site_fract_x
  _atom_site_fract_y
  _atom_site_fract_z
  _atom_site_occupancy
  Ba  Ba1       1.0  0.62600  0.37400  0.12100  1.0000
  Ba  Ba2       1.0  0.37400  0.62600  0.87900  1.0000
  Gd  Gd1       1.0  0.22000  0.78000  0.34100  1.0000
  Gd  Gd2       1.0  0.78000  0.22000  0.65900  1.0000
  O   O1        1.0  0.28900  0.71100  0.13400  1.0000
  O   O2        1.0  0.71100  0.28900  0.86600  1.0000
  Te  Te1       1.0  0.88700  0.11300  0.33900  1.0000
  Te  Te2       1.0  0.11300  0.88700  0.66100  1.0000
