data_image0
_chemical_formula_structural       C12Cl4H32Hg2N8
_chemical_formula_sum              "C12 Cl4 H32 Hg2 N8"
_cell_length_a       6.23381
_cell_length_b       6.23381
_cell_length_c       16.1473
_cell_angle_alpha    93.1923
_cell_angle_beta     93.1923
_cell_angle_gamma    93.7489

_space_group_name_H-M_alt    "P 1"
_space_group_IT_number       1

loop_
  _space_group_symop_operation_xyz
  'x, y, z'

loop_
  _atom_site_type_symbol
  _atom_site_label
  _atom_site_symmetry_multiplicity
  _atom_site_fract_x
  _atom_site_fract_y
  _atom_site_fract_z
  _atom_site_occupancy
  C   C1        1.0  0.44700  0.27500  0.06160  1.0000
  C   C2        1.0  0.63900  0.36100  0.11800  1.0000
  C   C3        1.0  0.12000  0.78600  0.12300  1.0000
  C   C4        1.0  0.21400  0.88000  0.37700  1.0000
  C   C5        1.0  0.63900  0.36100  0.38200  1.0000
  C   C6        1.0  0.72500  0.55300  0.43800  1.0000
  C   C7        1.0  0.27500  0.44700  0.56200  1.0000
  C   C8        1.0  0.36100  0.63900  0.61800  1.0000
  C   C9        1.0  0.78600  0.12000  0.62300  1.0000
  C   C10       1.0  0.88000  0.21400  0.87700  1.0000
  C   C11       1.0  0.36100  0.63900  0.88200  1.0000
  C   C12       1.0  0.55300  0.72500  0.93800  1.0000
  Cl  Cl1       1.0  0.64800  0.84900  0.23600  1.0000
  Cl  Cl2       1.0  0.15100  0.35200  0.26400  1.0000
  Cl  Cl3       1.0  0.84900  0.64800  0.73600  1.0000
  Cl  Cl4       1.0  0.35200  0.15100  0.76400  1.0000
  H   H1        1.0  0.51000  0.75300  0.00292  1.0000
  H   H2        1.0  0.87300  0.19200  0.05870  1.0000
  H   H3        1.0  0.32200  0.39100  0.06260  1.0000
  H   H4        1.0  0.37700  0.12300  0.08320  1.0000
  H   H5        1.0  0.71100  0.51400  0.09800  1.0000
  H   H6        1.0  0.75300  0.05780  0.13700  1.0000
  H   H7        1.0  0.93800  0.26000  0.16200  1.0000
  H   H8        1.0  0.59500  0.38800  0.18200  1.0000
  H   H9        1.0  0.61200  0.40500  0.31800  1.0000
  H   H10       1.0  0.74000  0.06210  0.33800  1.0000
  H   H11       1.0  0.94200  0.24700  0.36300  1.0000
  H   H12       1.0  0.48600  0.28900  0.40200  1.0000
  H   H13       1.0  0.87700  0.62300  0.41700  1.0000
  H   H14       1.0  0.60900  0.67800  0.43700  1.0000
  H   H15       1.0  0.80800  0.12700  0.44100  1.0000
  H   H16       1.0  0.24700  0.49000  0.49700  1.0000
  H   H17       1.0  0.75300  0.51000  0.50300  1.0000
  H   H18       1.0  0.19200  0.87300  0.55900  1.0000
  H   H19       1.0  0.39100  0.32200  0.56300  1.0000
  H   H20       1.0  0.12300  0.37700  0.58300  1.0000
  H   H21       1.0  0.51400  0.71100  0.59800  1.0000
  H   H22       1.0  0.05780  0.75300  0.63700  1.0000
  H   H23       1.0  0.26000  0.93800  0.66200  1.0000
  H   H24       1.0  0.38800  0.59500  0.68200  1.0000
  H   H25       1.0  0.40500  0.61200  0.81800  1.0000
  H   H26       1.0  0.06210  0.74000  0.83800  1.0000
  H   H27       1.0  0.24700  0.94200  0.86300  1.0000
  H   H28       1.0  0.28900  0.48600  0.90200  1.0000
  H   H29       1.0  0.62300  0.87700  0.91700  1.0000
  H   H30       1.0  0.67800  0.60900  0.93700  1.0000
  H   H31       1.0  0.12700  0.80800  0.94100  1.0000
  H   H32       1.0  0.49000  0.24700  0.99700  1.0000
  Hg  Hg1       1.0  0.19100  0.80900  0.25000  1.0000
  Hg  Hg2       1.0  0.80900  0.19100  0.75000  1.0000
  N   N1        1.0  0.07930  0.77300  0.05180  1.0000
  N   N2        1.0  0.81200  0.20600  0.11800  1.0000
  N   N3        1.0  0.79400  0.18800  0.38200  1.0000
  N   N4        1.0  0.22700  0.92100  0.44800  1.0000
  N   N5        1.0  0.77300  0.07930  0.55200  1.0000
  N   N6        1.0  0.20600  0.81200  0.61800  1.0000
  N   N7        1.0  0.18800  0.79400  0.88200  1.0000
  N   N8        1.0  0.92100  0.22700  0.94800  1.0000
