data_image0
_chemical_formula_structural       As4F20H24N8
_chemical_formula_sum              "As4 F20 H24 N8"
_cell_length_a       8.54367
_cell_length_b       14.7808
_cell_length_c       3.81473
_cell_angle_alpha    90
_cell_angle_beta     90
_cell_angle_gamma    90

_space_group_name_H-M_alt    "P 1"
_space_group_IT_number       1

loop_
  _space_group_symop_operation_xyz
  'x, y, z'

loop_
  _atom_site_type_symbol
  _atom_site_label
  _atom_site_symmetry_multiplicity
  _atom_site_fract_x
  _atom_site_fract_y
  _atom_site_fract_z
  _atom_site_occupancy
  As  As1       1.0  0.69000  0.28000  0.18800  1.0000
  As  As2       1.0  0.31000  0.72000  0.18800  1.0000
  As  As3       1.0  0.19000  0.22000  0.68800  1.0000
  As  As4       1.0  0.81000  0.78000  0.68800  1.0000
  F   F1        1.0  0.04520  0.10200  0.25400  1.0000
  F   F2        1.0  0.95500  0.89800  0.25400  1.0000
  F   F3        1.0  0.45500  0.08170  0.26200  1.0000
  F   F4        1.0  0.54500  0.91800  0.26200  1.0000
  F   F5        1.0  0.14600  0.39900  0.28100  1.0000
  F   F6        1.0  0.85400  0.60100  0.28100  1.0000
  F   F7        1.0  0.76500  0.04850  0.28300  1.0000
  F   F8        1.0  0.23500  0.95100  0.28300  1.0000
  F   F9        1.0  0.74400  0.41200  0.31600  1.0000
  F   F10       1.0  0.25600  0.58800  0.31600  1.0000
  F   F11       1.0  0.54500  0.39800  0.75400  1.0000
  F   F12       1.0  0.45500  0.60200  0.75400  1.0000
  F   F13       1.0  0.95500  0.41800  0.76200  1.0000
  F   F14       1.0  0.04540  0.58200  0.76200  1.0000
  F   F15       1.0  0.64600  0.10100  0.78100  1.0000
  F   F16       1.0  0.35400  0.89900  0.78100  1.0000
  F   F17       1.0  0.26500  0.45100  0.78300  1.0000
  F   F18       1.0  0.73500  0.54900  0.78300  1.0000
  F   F19       1.0  0.24400  0.08830  0.81600  1.0000
  F   F20       1.0  0.75600  0.91200  0.81600  1.0000
  H   H1        1.0  0.19900  0.42600  0.04860  1.0000
  H   H2        1.0  0.80100  0.57400  0.04860  1.0000
  H   H3        1.0  0.70700  0.07150  0.05430  1.0000
  H   H4        1.0  0.29300  0.92800  0.05430  1.0000
  H   H5        1.0  0.38200  0.08090  0.06610  1.0000
  H   H6        1.0  0.61800  0.91900  0.06610  1.0000
  H   H7        1.0  0.12200  0.08120  0.08100  1.0000
  H   H8        1.0  0.87800  0.91900  0.08100  1.0000
  H   H9        1.0  0.42800  0.19400  0.40900  1.0000
  H   H10       1.0  0.57200  0.80600  0.40900  1.0000
  H   H11       1.0  0.90200  0.19000  0.41800  1.0000
  H   H12       1.0  0.09810  0.81000  0.41800  1.0000
  H   H13       1.0  0.69900  0.07380  0.54900  1.0000
  H   H14       1.0  0.30100  0.92600  0.54900  1.0000
  H   H15       1.0  0.20700  0.42800  0.55400  1.0000
  H   H16       1.0  0.79300  0.57200  0.55400  1.0000
  H   H17       1.0  0.88200  0.41900  0.56600  1.0000
  H   H18       1.0  0.11800  0.58100  0.56600  1.0000
  H   H19       1.0  0.62200  0.41900  0.58100  1.0000
  H   H20       1.0  0.37800  0.58100  0.58100  1.0000
  H   H21       1.0  0.92800  0.30600  0.90900  1.0000
  H   H22       1.0  0.07200  0.69400  0.90900  1.0000
  H   H23       1.0  0.40200  0.31000  0.91800  1.0000
  H   H24       1.0  0.59800  0.69000  0.91800  1.0000
  N   N1        1.0  0.33000  0.26000  0.01320  1.0000
  N   N2        1.0  0.67000  0.74000  0.01320  1.0000
  N   N3        1.0  0.34700  0.24500  0.37000  1.0000
  N   N4        1.0  0.65300  0.75500  0.37000  1.0000
  N   N5        1.0  0.83000  0.24000  0.51300  1.0000
  N   N6        1.0  0.17000  0.76000  0.51300  1.0000
  N   N7        1.0  0.84700  0.25500  0.87000  1.0000
  N   N8        1.0  0.15300  0.74500  0.87000  1.0000
