data_image0
_chemical_formula_structural       K8S40Ta8
_chemical_formula_sum              "K8 S40 Ta8"
_cell_length_a       15.2643
_cell_length_b       6.47119
_cell_length_c       15.3653
_cell_angle_alpha    90
_cell_angle_beta     118.113
_cell_angle_gamma    90

_space_group_name_H-M_alt    "P 1"
_space_group_IT_number       1

loop_
  _space_group_symop_operation_xyz
  'x, y, z'

loop_
  _atom_site_type_symbol
  _atom_site_label
  _atom_site_symmetry_multiplicity
  _atom_site_fract_x
  _atom_site_fract_y
  _atom_site_fract_z
  _atom_site_occupancy
  K   K1        1.0  0.91500  0.14200  0.06710  1.0000
  K   K2        1.0  0.43700  0.35400  0.08640  1.0000
  K   K3        1.0  0.06340  0.85400  0.41400  1.0000
  K   K4        1.0  0.58500  0.64200  0.43300  1.0000
  K   K5        1.0  0.41500  0.35800  0.56700  1.0000
  K   K6        1.0  0.93700  0.14600  0.58600  1.0000
  K   K7        1.0  0.56300  0.64600  0.91400  1.0000
  K   K8        1.0  0.08470  0.85800  0.93300  1.0000
  S   S1        1.0  0.10800  0.41700  0.05590  1.0000
  S   S2        1.0  0.31000  0.73900  0.10500  1.0000
  S   S3        1.0  0.55500  0.89100  0.10700  1.0000
  S   S4        1.0  0.66600  0.33500  0.12200  1.0000
  S   S5        1.0  0.23800  0.24500  0.12600  1.0000
  S   S6        1.0  0.75300  0.82400  0.12600  1.0000
  S   S7        1.0  0.12100  0.86600  0.16400  1.0000
  S   S8        1.0  0.89700  0.70100  0.19000  1.0000
  S   S9        1.0  0.62400  0.71400  0.23400  1.0000
  S   S10       1.0  0.37500  0.85400  0.24900  1.0000
  S   S11       1.0  0.12500  0.35400  0.25100  1.0000
  S   S12       1.0  0.87600  0.21400  0.26600  1.0000
  S   S13       1.0  0.60300  0.20100  0.31000  1.0000
  S   S14       1.0  0.37900  0.36600  0.33600  1.0000
  S   S15       1.0  0.74700  0.32400  0.37400  1.0000
  S   S16       1.0  0.26200  0.74500  0.37400  1.0000
  S   S17       1.0  0.83400  0.83500  0.37800  1.0000
  S   S18       1.0  0.94500  0.39100  0.39300  1.0000
  S   S19       1.0  0.19000  0.23900  0.39500  1.0000
  S   S20       1.0  0.39200  0.91700  0.44400  1.0000
  S   S21       1.0  0.60800  0.08350  0.55600  1.0000
  S   S22       1.0  0.81000  0.76100  0.60500  1.0000
  S   S23       1.0  0.05480  0.60900  0.60700  1.0000
  S   S24       1.0  0.16600  0.16500  0.62200  1.0000
  S   S25       1.0  0.73800  0.25500  0.62600  1.0000
  S   S26       1.0  0.25300  0.67600  0.62600  1.0000
  S   S27       1.0  0.62100  0.63400  0.66400  1.0000
  S   S28       1.0  0.39700  0.79900  0.69000  1.0000
  S   S29       1.0  0.12400  0.78600  0.73400  1.0000
  S   S30       1.0  0.87500  0.64600  0.74900  1.0000
  S   S31       1.0  0.62500  0.14600  0.75100  1.0000
  S   S32       1.0  0.37600  0.28600  0.76600  1.0000
  S   S33       1.0  0.10300  0.29900  0.81000  1.0000
  S   S34       1.0  0.87900  0.13400  0.83600  1.0000
  S   S35       1.0  0.24700  0.17600  0.87400  1.0000
  S   S36       1.0  0.76200  0.75500  0.87400  1.0000
  S   S37       1.0  0.33400  0.66500  0.87800  1.0000
  S   S38       1.0  0.44500  0.10900  0.89300  1.0000
  S   S39       1.0  0.69000  0.26100  0.89500  1.0000
  S   S40       1.0  0.89200  0.58300  0.94400  1.0000
  Ta  Ta1       1.0  0.24400  0.58200  0.20900  1.0000
  Ta  Ta2       1.0  0.70800  0.05150  0.24400  1.0000
  Ta  Ta3       1.0  0.79200  0.55100  0.25600  1.0000
  Ta  Ta4       1.0  0.25600  0.08160  0.29100  1.0000
  Ta  Ta5       1.0  0.74400  0.91800  0.70900  1.0000
  Ta  Ta6       1.0  0.20800  0.44900  0.74400  1.0000
  Ta  Ta7       1.0  0.29200  0.94900  0.75600  1.0000
  Ta  Ta8       1.0  0.75600  0.41800  0.79100  1.0000
