data_image0
_chemical_formula_structural       Fe4O36Se12Sr6
_chemical_formula_sum              "Fe4 O36 Se12 Sr6"
_cell_length_a       8.79409
_cell_length_b       8.79409
_cell_length_c       13.7898
_cell_angle_alpha    90
_cell_angle_beta     108.594
_cell_angle_gamma    120

_space_group_name_H-M_alt    "P 1"
_space_group_IT_number       1

loop_
  _space_group_symop_operation_xyz
  'x, y, z'

loop_
  _atom_site_type_symbol
  _atom_site_label
  _atom_site_symmetry_multiplicity
  _atom_site_fract_x
  _atom_site_fract_y
  _atom_site_fract_z
  _atom_site_occupancy
  Fe  Fe1       1.0  0.00000  0.00000  0.00000  1.0000
  Fe  Fe2       1.0  0.50000  0.75000  0.25000  1.0000
  Fe  Fe3       1.0  0.00000  0.50000  0.50000  1.0000
  Fe  Fe4       1.0  0.50000  0.25000  0.75000  1.0000
  O   O1        1.0  0.90600  0.07590  0.09330  1.0000
  O   O2        1.0  0.26300  0.18700  0.09330  1.0000
  O   O3        1.0  0.01740  0.83000  0.09330  1.0000
  O   O4        1.0  0.65000  0.81200  0.15500  1.0000
  O   O5        1.0  0.31700  0.50500  0.15500  1.0000
  O   O6        1.0  0.34300  0.83800  0.15500  1.0000
  O   O7        1.0  0.71000  0.15300  0.16300  1.0000
  O   O8        1.0  0.60600  0.45300  0.16300  1.0000
  O   O9        1.0  0.00949  0.55700  0.16300  1.0000
  O   O10       1.0  0.99100  0.04720  0.33700  1.0000
  O   O11       1.0  0.39400  0.34700  0.33700  1.0000
  O   O12       1.0  0.29000  0.94300  0.33700  1.0000
  O   O13       1.0  0.68300  0.68800  0.34500  1.0000
  O   O14       1.0  0.35000  0.66200  0.34500  1.0000
  O   O15       1.0  0.65700  0.99500  0.34500  1.0000
  O   O16       1.0  0.98300  0.31300  0.40700  1.0000
  O   O17       1.0  0.73700  0.42400  0.40700  1.0000
  O   O18       1.0  0.09370  0.67000  0.40700  1.0000
  O   O19       1.0  0.90600  0.33000  0.59300  1.0000
  O   O20       1.0  0.26300  0.57600  0.59300  1.0000
  O   O21       1.0  0.01740  0.68700  0.59300  1.0000
  O   O22       1.0  0.34300  0.00536  0.65500  1.0000
  O   O23       1.0  0.65000  0.33800  0.65500  1.0000
  O   O24       1.0  0.31700  0.31200  0.65500  1.0000
  O   O25       1.0  0.71000  0.05670  0.66300  1.0000
  O   O26       1.0  0.60600  0.65300  0.66300  1.0000
  O   O27       1.0  0.00949  0.95300  0.66300  1.0000
  O   O28       1.0  0.99100  0.44300  0.83700  1.0000
  O   O29       1.0  0.39400  0.54700  0.83700  1.0000
  O   O30       1.0  0.29000  0.84700  0.83700  1.0000
  O   O31       1.0  0.65700  0.16200  0.84500  1.0000
  O   O32       1.0  0.68300  0.49500  0.84500  1.0000
  O   O33       1.0  0.35000  0.18800  0.84500  1.0000
  O   O34       1.0  0.98300  0.17000  0.90700  1.0000
  O   O35       1.0  0.73700  0.81300  0.90700  1.0000
  O   O36       1.0  0.09370  0.92400  0.90700  1.0000
  Se  Se1       1.0  0.39300  0.41100  0.08290  1.0000
  Se  Se2       1.0  0.67200  0.98200  0.08290  1.0000
  Se  Se3       1.0  0.10100  0.69000  0.08290  1.0000
  Se  Se4       1.0  0.89900  0.08860  0.41700  1.0000
  Se  Se5       1.0  0.60700  0.51800  0.41700  1.0000
  Se  Se6       1.0  0.32800  0.81000  0.41700  1.0000
  Se  Se7       1.0  0.67200  0.19000  0.58300  1.0000
  Se  Se8       1.0  0.39300  0.48200  0.58300  1.0000
  Se  Se9       1.0  0.10100  0.91100  0.58300  1.0000
  Se  Se10      1.0  0.89900  0.31000  0.91700  1.0000
  Se  Se11      1.0  0.32800  0.01830  0.91700  1.0000
  Se  Se12      1.0  0.60700  0.58900  0.91700  1.0000
  Sr  Sr1       1.0  0.50000  0.16300  0.25000  1.0000
  Sr  Sr2       1.0  0.91300  0.75000  0.25000  1.0000
  Sr  Sr3       1.0  0.08720  0.33700  0.25000  1.0000
  Sr  Sr4       1.0  0.91300  0.66300  0.75000  1.0000
  Sr  Sr5       1.0  0.08720  0.25000  0.75000  1.0000
  Sr  Sr6       1.0  0.50000  0.83700  0.75000  1.0000
