data_image0
_chemical_formula_structural       Ag16F8O24V8
_chemical_formula_sum              "Ag16 F8 O24 V8"
_cell_length_a       5.57766
_cell_length_b       10.4745
_cell_length_c       12.3916
_cell_angle_alpha    90
_cell_angle_beta     90.4755
_cell_angle_gamma    90

_space_group_name_H-M_alt    "P 1"
_space_group_IT_number       1

loop_
  _space_group_symop_operation_xyz
  'x, y, z'

loop_
  _atom_site_type_symbol
  _atom_site_label
  _atom_site_symmetry_multiplicity
  _atom_site_fract_x
  _atom_site_fract_y
  _atom_site_fract_z
  _atom_site_occupancy
  Ag  Ag1       1.0  0.72800  0.94400  0.06460  1.0000
  Ag  Ag2       1.0  0.30400  0.29800  0.08430  1.0000
  Ag  Ag3       1.0  0.74500  0.52700  0.09340  1.0000
  Ag  Ag4       1.0  0.80400  0.24600  0.22400  1.0000
  Ag  Ag5       1.0  0.69600  0.74600  0.27600  1.0000
  Ag  Ag6       1.0  0.75500  0.02720  0.40700  1.0000
  Ag  Ag7       1.0  0.19600  0.79800  0.41600  1.0000
  Ag  Ag8       1.0  0.77200  0.44400  0.43500  1.0000
  Ag  Ag9       1.0  0.22800  0.55600  0.56500  1.0000
  Ag  Ag10      1.0  0.80400  0.20200  0.58400  1.0000
  Ag  Ag11      1.0  0.24500  0.97300  0.59300  1.0000
  Ag  Ag12      1.0  0.30400  0.25400  0.72400  1.0000
  Ag  Ag13      1.0  0.19600  0.75400  0.77600  1.0000
  Ag  Ag14      1.0  0.25500  0.47300  0.90700  1.0000
  Ag  Ag15      1.0  0.69600  0.70200  0.91600  1.0000
  Ag  Ag16      1.0  0.27200  0.05600  0.93500  1.0000
  F   F1        1.0  0.04470  0.10300  0.10100  1.0000
  F   F2        1.0  0.96000  0.93000  0.24300  1.0000
  F   F3        1.0  0.54000  0.43000  0.25700  1.0000
  F   F4        1.0  0.45500  0.60300  0.39900  1.0000
  F   F5        1.0  0.54500  0.39700  0.60100  1.0000
  F   F6        1.0  0.46000  0.57000  0.74300  1.0000
  F   F7        1.0  0.03980  0.06970  0.75700  1.0000
  F   F8        1.0  0.95500  0.89700  0.89900  1.0000
  O   O1        1.0  0.69300  0.33200  0.03510  1.0000
  O   O2        1.0  0.30900  0.89300  0.09390  1.0000
  O   O3        1.0  0.90100  0.72100  0.09530  1.0000
  O   O4        1.0  0.50000  0.10900  0.16600  1.0000
  O   O5        1.0  0.35200  0.64700  0.19000  1.0000
  O   O6        1.0  0.08060  0.42500  0.19100  1.0000
  O   O7        1.0  0.41900  0.92500  0.30900  1.0000
  O   O8        1.0  0.14800  0.14700  0.31000  1.0000
  O   O9        1.0  0.00027  0.60900  0.33400  1.0000
  O   O10       1.0  0.59900  0.22100  0.40500  1.0000
  O   O11       1.0  0.19100  0.39300  0.40600  1.0000
  O   O12       1.0  0.80700  0.83200  0.46500  1.0000
  O   O13       1.0  0.19300  0.16800  0.53500  1.0000
  O   O14       1.0  0.80900  0.60700  0.59400  1.0000
  O   O15       1.0  0.40100  0.77900  0.59500  1.0000
  O   O16       1.0  0.00000  0.39100  0.66600  1.0000
  O   O17       1.0  0.85200  0.85300  0.69000  1.0000
  O   O18       1.0  0.58100  0.07480  0.69100  1.0000
  O   O19       1.0  0.91900  0.57500  0.80900  1.0000
  O   O20       1.0  0.64800  0.35300  0.81000  1.0000
  O   O21       1.0  0.50000  0.89100  0.83400  1.0000
  O   O22       1.0  0.09870  0.27900  0.90500  1.0000
  O   O23       1.0  0.69100  0.10700  0.90600  1.0000
  O   O24       1.0  0.30700  0.66800  0.96500  1.0000
  V   V1        1.0  0.21000  0.73300  0.08470  1.0000
  V   V2        1.0  0.27500  0.01630  0.21400  1.0000
  V   V3        1.0  0.22500  0.51600  0.28600  1.0000
  V   V4        1.0  0.29000  0.23300  0.41500  1.0000
  V   V5        1.0  0.71000  0.76700  0.58500  1.0000
  V   V6        1.0  0.77500  0.48400  0.71400  1.0000
  V   V7        1.0  0.72500  0.98400  0.78600  1.0000
  V   V8        1.0  0.79000  0.26700  0.91500  1.0000
