data_image0
_chemical_formula_structural       H12Mg14O28Si4
_chemical_formula_sum              "H12 Mg14 O28 Si4"
_cell_length_a       7.798
_cell_length_b       7.798
_cell_length_c       9.52705
_cell_angle_alpha    90
_cell_angle_beta     90
_cell_angle_gamma    120

_space_group_name_H-M_alt    "P 1"
_space_group_IT_number       1

loop_
  _space_group_symop_operation_xyz
  'x, y, z'

loop_
  _atom_site_type_symbol
  _atom_site_label
  _atom_site_symmetry_multiplicity
  _atom_site_fract_x
  _atom_site_fract_y
  _atom_site_fract_z
  _atom_site_occupancy
  H   H1        1.0  0.02220  0.34600  0.23800  1.0000
  H   H2        1.0  0.65400  0.67600  0.23800  1.0000
  H   H3        1.0  0.32400  0.97800  0.23800  1.0000
  H   H4        1.0  0.83200  0.28800  0.40400  1.0000
  H   H5        1.0  0.45500  0.16800  0.40400  1.0000
  H   H6        1.0  0.71200  0.54500  0.40400  1.0000
  H   H7        1.0  0.34600  0.32400  0.73800  1.0000
  H   H8        1.0  0.97800  0.65400  0.73800  1.0000
  H   H9        1.0  0.67600  0.02220  0.73800  1.0000
  H   H10       1.0  0.16800  0.71200  0.90400  1.0000
  H   H11       1.0  0.54500  0.83200  0.90400  1.0000
  H   H12       1.0  0.28800  0.45500  0.90400  1.0000
  Mg  Mg1       1.0  0.33300  0.66700  0.10100  1.0000
  Mg  Mg2       1.0  0.75500  0.97700  0.11200  1.0000
  Mg  Mg3       1.0  0.22200  0.24500  0.11200  1.0000
  Mg  Mg4       1.0  0.02260  0.77800  0.11200  1.0000
  Mg  Mg5       1.0  0.08470  0.62800  0.38600  1.0000
  Mg  Mg6       1.0  0.37200  0.45700  0.38600  1.0000
  Mg  Mg7       1.0  0.54300  0.91500  0.38600  1.0000
  Mg  Mg8       1.0  0.66700  0.33300  0.60100  1.0000
  Mg  Mg9       1.0  0.24500  0.02260  0.61200  1.0000
  Mg  Mg10      1.0  0.97700  0.22200  0.61200  1.0000
  Mg  Mg11      1.0  0.77800  0.75500  0.61200  1.0000
  Mg  Mg12      1.0  0.91500  0.37200  0.88600  1.0000
  Mg  Mg13      1.0  0.62800  0.54300  0.88600  1.0000
  Mg  Mg14      1.0  0.45700  0.08470  0.88600  1.0000
  O   O1        1.0  0.00000  0.00000  0.23100  1.0000
  O   O2        1.0  0.44800  0.28600  0.23500  1.0000
  O   O3        1.0  0.71400  0.16200  0.23500  1.0000
  O   O4        1.0  0.83800  0.55200  0.23500  1.0000
  O   O5        1.0  0.27200  0.83400  0.24000  1.0000
  O   O6        1.0  0.16600  0.43800  0.24000  1.0000
  O   O7        1.0  0.56200  0.72800  0.24000  1.0000
  O   O8        1.0  0.17500  0.20300  0.47800  1.0000
  O   O9        1.0  0.02840  0.82500  0.47800  1.0000
  O   O10       1.0  0.79700  0.97200  0.47800  1.0000
  O   O11       1.0  0.47600  0.09840  0.48300  1.0000
  O   O12       1.0  0.62300  0.52400  0.48300  1.0000
  O   O13       1.0  0.90200  0.37700  0.48300  1.0000
  O   O14       1.0  0.33300  0.66700  0.50000  1.0000
  O   O15       1.0  0.00000  0.00000  0.73100  1.0000
  O   O16       1.0  0.55200  0.71400  0.73500  1.0000
  O   O17       1.0  0.28600  0.83800  0.73500  1.0000
  O   O18       1.0  0.16200  0.44800  0.73500  1.0000
  O   O19       1.0  0.72800  0.16600  0.74000  1.0000
  O   O20       1.0  0.83400  0.56200  0.74000  1.0000
  O   O21       1.0  0.43800  0.27200  0.74000  1.0000
  O   O22       1.0  0.20300  0.02840  0.97800  1.0000
  O   O23       1.0  0.97200  0.17500  0.97800  1.0000
  O   O24       1.0  0.82500  0.79700  0.97800  1.0000
  O   O25       1.0  0.37700  0.47600  0.98300  1.0000
  O   O26       1.0  0.52400  0.90200  0.98300  1.0000
  O   O27       1.0  0.09840  0.62300  0.98300  1.0000
  O   O28       1.0  0.66700  0.33300  0.00000  1.0000
  Si  Si1       1.0  0.66700  0.33300  0.17400  1.0000
  Si  Si2       1.0  0.00000  0.00000  0.40200  1.0000
  Si  Si3       1.0  0.33300  0.66700  0.67400  1.0000
  Si  Si4       1.0  0.00000  0.00000  0.90200  1.0000
