data_image0
_chemical_formula_structural       Cl12Re12Te32
_chemical_formula_sum              "Cl12 Re12 Te32"
_cell_length_a       18.5973
_cell_length_b       8.63496
_cell_length_c       10.8334
_cell_angle_alpha    90
_cell_angle_beta     90
_cell_angle_gamma    90

_space_group_name_H-M_alt    "P 1"
_space_group_IT_number       1

loop_
  _space_group_symop_operation_xyz
  'x, y, z'

loop_
  _atom_site_type_symbol
  _atom_site_label
  _atom_site_symmetry_multiplicity
  _atom_site_fract_x
  _atom_site_fract_y
  _atom_site_fract_z
  _atom_site_occupancy
  Cl  Cl1       1.0  0.77900  0.10500  0.00176  1.0000
  Cl  Cl2       1.0  0.22100  0.89500  0.00176  1.0000
  Cl  Cl3       1.0  0.79600  0.05900  0.32600  1.0000
  Cl  Cl4       1.0  0.20400  0.94100  0.32600  1.0000
  Cl  Cl5       1.0  0.24700  0.32700  0.33900  1.0000
  Cl  Cl6       1.0  0.75300  0.67300  0.33900  1.0000
  Cl  Cl7       1.0  0.74700  0.17300  0.66100  1.0000
  Cl  Cl8       1.0  0.25300  0.82700  0.66100  1.0000
  Cl  Cl9       1.0  0.29600  0.44100  0.67400  1.0000
  Cl  Cl10      1.0  0.70400  0.55900  0.67400  1.0000
  Cl  Cl11      1.0  0.27900  0.39500  0.99800  1.0000
  Cl  Cl12      1.0  0.72100  0.60500  0.99800  1.0000
  Re  Re1       1.0  0.51600  0.15300  0.06890  1.0000
  Re  Re2       1.0  0.48400  0.84700  0.06890  1.0000
  Re  Re3       1.0  0.40000  0.04790  0.19300  1.0000
  Re  Re4       1.0  0.60000  0.95200  0.19300  1.0000
  Re  Re5       1.0  0.51600  0.15300  0.31800  1.0000
  Re  Re6       1.0  0.48400  0.84700  0.31800  1.0000
  Re  Re7       1.0  0.01570  0.34700  0.68200  1.0000
  Re  Re8       1.0  0.98400  0.65300  0.68200  1.0000
  Re  Re9       1.0  0.90000  0.45200  0.80700  1.0000
  Re  Re10      1.0  0.10000  0.54800  0.80700  1.0000
  Re  Re11      1.0  0.01610  0.34700  0.93100  1.0000
  Re  Re12      1.0  0.98400  0.65300  0.93100  1.0000
  Te  Te1       1.0  0.89800  0.45100  0.05750  1.0000
  Te  Te2       1.0  0.10200  0.54900  0.05750  1.0000
  Te  Te3       1.0  0.05440  0.12800  0.10100  1.0000
  Te  Te4       1.0  0.94600  0.87200  0.10100  1.0000
  Te  Te5       1.0  0.25600  0.12200  0.17900  1.0000
  Te  Te6       1.0  0.74400  0.87800  0.17900  1.0000
  Te  Te7       1.0  0.43000  0.35200  0.19300  1.0000
  Te  Te8       1.0  0.57000  0.64800  0.19300  1.0000
  Te  Te9       1.0  0.63600  0.25300  0.19400  1.0000
  Te  Te10      1.0  0.36400  0.74700  0.19400  1.0000
  Te  Te11      1.0  0.99400  0.27300  0.30800  1.0000
  Te  Te12      1.0  0.00615  0.72700  0.30800  1.0000
  Te  Te13      1.0  0.39700  0.04780  0.44300  1.0000
  Te  Te14      1.0  0.60300  0.95200  0.44300  1.0000
  Te  Te15      1.0  0.55500  0.37300  0.48500  1.0000
  Te  Te16      1.0  0.44500  0.62700  0.48500  1.0000
  Te  Te17      1.0  0.05460  0.12700  0.51500  1.0000
  Te  Te18      1.0  0.94500  0.87300  0.51500  1.0000
  Te  Te19      1.0  0.89700  0.45200  0.55700  1.0000
  Te  Te20      1.0  0.10300  0.54800  0.55700  1.0000
  Te  Te21      1.0  0.49400  0.22700  0.69200  1.0000
  Te  Te22      1.0  0.50600  0.77300  0.69200  1.0000
  Te  Te23      1.0  0.13600  0.24700  0.80600  1.0000
  Te  Te24      1.0  0.86400  0.75300  0.80600  1.0000
  Te  Te25      1.0  0.93000  0.14800  0.80700  1.0000
  Te  Te26      1.0  0.07030  0.85200  0.80700  1.0000
  Te  Te27      1.0  0.75600  0.37800  0.82100  1.0000
  Te  Te28      1.0  0.24400  0.62200  0.82100  1.0000
  Te  Te29      1.0  0.55400  0.37200  0.89900  1.0000
  Te  Te30      1.0  0.44600  0.62800  0.89900  1.0000
  Te  Te31      1.0  0.39800  0.04930  0.94200  1.0000
  Te  Te32      1.0  0.60200  0.95100  0.94200  1.0000
