data_image0
_chemical_formula_structural       C8Cl12H32N4Sn2
_chemical_formula_sum              "C8 Cl12 H32 N4 Sn2"
_cell_length_a       7.15276
_cell_length_b       7.34356
_cell_length_c       14.3488
_cell_angle_alpha    90
_cell_angle_beta     90
_cell_angle_gamma    90

_space_group_name_H-M_alt    "P 1"
_space_group_IT_number       1

loop_
  _space_group_symop_operation_xyz
  'x, y, z'

loop_
  _atom_site_type_symbol
  _atom_site_label
  _atom_site_symmetry_multiplicity
  _atom_site_fract_x
  _atom_site_fract_y
  _atom_site_fract_z
  _atom_site_occupancy
  C   C1        1.0  0.50000  0.39300  0.13600  1.0000
  C   C2        1.0  0.50000  0.10600  0.22700  1.0000
  C   C3        1.0  0.00000  0.60600  0.27300  1.0000
  C   C4        1.0  0.00000  0.89300  0.36400  1.0000
  C   C5        1.0  0.00000  0.10700  0.63600  1.0000
  C   C6        1.0  0.00000  0.39400  0.72700  1.0000
  C   C7        1.0  0.50000  0.89400  0.77300  1.0000
  C   C8        1.0  0.50000  0.60700  0.86400  1.0000
  Cl  Cl1       1.0  0.24800  0.80300  0.06510  1.0000
  Cl  Cl2       1.0  0.75200  0.80300  0.06510  1.0000
  Cl  Cl3       1.0  0.00000  0.18200  0.14500  1.0000
  Cl  Cl4       1.0  0.50000  0.68200  0.35500  1.0000
  Cl  Cl5       1.0  0.25200  0.30300  0.43500  1.0000
  Cl  Cl6       1.0  0.74800  0.30300  0.43500  1.0000
  Cl  Cl7       1.0  0.25200  0.69700  0.56500  1.0000
  Cl  Cl8       1.0  0.74800  0.69700  0.56500  1.0000
  Cl  Cl9       1.0  0.50000  0.31800  0.64500  1.0000
  Cl  Cl10      1.0  0.00000  0.81800  0.85500  1.0000
  Cl  Cl11      1.0  0.24800  0.19700  0.93500  1.0000
  Cl  Cl12      1.0  0.75200  0.19700  0.93500  1.0000
  H   H1        1.0  0.50000  0.44500  0.06410  1.0000
  H   H2        1.0  0.38500  0.14700  0.09480  1.0000
  H   H3        1.0  0.61500  0.14700  0.09480  1.0000
  H   H4        1.0  0.37400  0.43900  0.17200  1.0000
  H   H5        1.0  0.62600  0.43900  0.17200  1.0000
  H   H6        1.0  0.50000  0.95800  0.21800  1.0000
  H   H7        1.0  0.12500  0.65200  0.23600  1.0000
  H   H8        1.0  0.87500  0.65200  0.23600  1.0000
  H   H9        1.0  0.37500  0.15200  0.26400  1.0000
  H   H10       1.0  0.62500  0.15200  0.26400  1.0000
  H   H11       1.0  0.00000  0.45800  0.28200  1.0000
  H   H12       1.0  0.12600  0.93900  0.32800  1.0000
  H   H13       1.0  0.87400  0.93900  0.32800  1.0000
  H   H14       1.0  0.11500  0.64700  0.40500  1.0000
  H   H15       1.0  0.88500  0.64700  0.40500  1.0000
  H   H16       1.0  0.00000  0.94500  0.43600  1.0000
  H   H17       1.0  0.00000  0.05540  0.56400  1.0000
  H   H18       1.0  0.11500  0.35300  0.59500  1.0000
  H   H19       1.0  0.88500  0.35300  0.59500  1.0000
  H   H20       1.0  0.12600  0.06130  0.67200  1.0000
  H   H21       1.0  0.87400  0.06130  0.67200  1.0000
  H   H22       1.0  0.00000  0.54200  0.71800  1.0000
  H   H23       1.0  0.37500  0.84800  0.73600  1.0000
  H   H24       1.0  0.62500  0.84800  0.73600  1.0000
  H   H25       1.0  0.12500  0.34800  0.76400  1.0000
  H   H26       1.0  0.87500  0.34800  0.76400  1.0000
  H   H27       1.0  0.50000  0.04210  0.78200  1.0000
  H   H28       1.0  0.37400  0.56100  0.82800  1.0000
  H   H29       1.0  0.62600  0.56100  0.82800  1.0000
  H   H30       1.0  0.38500  0.85300  0.90500  1.0000
  H   H31       1.0  0.61500  0.85300  0.90500  1.0000
  H   H32       1.0  0.50000  0.55500  0.93600  1.0000
  N   N1        1.0  0.50000  0.19100  0.13300  1.0000
  N   N2        1.0  0.00000  0.69100  0.36700  1.0000
  N   N3        1.0  0.00000  0.30900  0.63300  1.0000
  N   N4        1.0  0.50000  0.80900  0.86700  1.0000
  Sn  Sn1       1.0  0.00000  0.00000  0.00000  1.0000
  Sn  Sn2       1.0  0.50000  0.50000  0.50000  1.0000
