data_image0
_chemical_formula_structural       Al14Ca12O32
_chemical_formula_sum              "Al14 Ca12 O32"
_cell_length_a       10.3644
_cell_length_b       10.3644
_cell_length_c       10.3644
_cell_angle_alpha    109.471
_cell_angle_beta     109.471
_cell_angle_gamma    109.471

_space_group_name_H-M_alt    "P 1"
_space_group_IT_number       1

loop_
  _space_group_symop_operation_xyz
  'x, y, z'

loop_
  _atom_site_type_symbol
  _atom_site_label
  _atom_site_symmetry_multiplicity
  _atom_site_fract_x
  _atom_site_fract_y
  _atom_site_fract_z
  _atom_site_occupancy
  Al  Al1       1.0  0.50000  0.46600  0.00000  1.0000
  Al  Al2       1.0  0.50000  0.96600  0.00000  1.0000
  Al  Al3       1.0  0.03430  0.53400  0.03430  1.0000
  Al  Al4       1.0  0.25000  0.37500  0.12500  1.0000
  Al  Al5       1.0  0.87500  0.62500  0.25000  1.0000
  Al  Al6       1.0  0.75000  0.12500  0.37500  1.0000
  Al  Al7       1.0  0.00000  0.00000  0.46600  1.0000
  Al  Al8       1.0  0.46600  0.50000  0.50000  1.0000
  Al  Al9       1.0  0.96600  0.50000  0.50000  1.0000
  Al  Al10      1.0  0.53400  0.03430  0.53400  1.0000
  Al  Al11      1.0  0.37500  0.25000  0.62500  1.0000
  Al  Al12      1.0  0.62500  0.87500  0.75000  1.0000
  Al  Al13      1.0  0.12500  0.75000  0.87500  1.0000
  Al  Al14      1.0  0.00000  0.00000  0.96600  1.0000
  Ca  Ca1       1.0  0.75000  0.86100  0.11100  1.0000
  Ca  Ca2       1.0  0.38900  0.75000  0.13900  1.0000
  Ca  Ca3       1.0  0.13900  0.88900  0.25000  1.0000
  Ca  Ca4       1.0  0.61100  0.36100  0.25000  1.0000
  Ca  Ca5       1.0  0.11100  0.25000  0.36100  1.0000
  Ca  Ca6       1.0  0.25000  0.63900  0.38900  1.0000
  Ca  Ca7       1.0  0.86100  0.75000  0.61100  1.0000
  Ca  Ca8       1.0  0.75000  0.38900  0.63900  1.0000
  Ca  Ca9       1.0  0.88900  0.13900  0.75000  1.0000
  Ca  Ca10      1.0  0.36100  0.61100  0.75000  1.0000
  Ca  Ca11      1.0  0.25000  0.11100  0.86100  1.0000
  Ca  Ca12      1.0  0.63900  0.25000  0.88900  1.0000
  O   O1        1.0  0.50000  0.13300  0.00000  1.0000
  O   O2        1.0  0.50000  0.63300  0.00000  1.0000
  O   O3        1.0  0.11500  0.70800  0.02240  1.0000
  O   O4        1.0  0.68600  0.47800  0.09240  1.0000
  O   O5        1.0  0.40800  0.38500  0.09350  1.0000
  O   O6        1.0  0.20800  0.52200  0.11500  1.0000
  O   O7        1.0  0.00000  0.00000  0.13300  1.0000
  O   O8        1.0  0.59200  0.97800  0.18600  1.0000
  O   O9        1.0  0.02240  0.61500  0.20800  1.0000
  O   O10       1.0  0.90700  0.81400  0.29200  1.0000
  O   O11       1.0  0.29200  0.40700  0.31400  1.0000
  O   O12       1.0  0.36700  0.86700  0.36700  1.0000
  O   O13       1.0  0.90800  0.09350  0.38500  1.0000
  O   O14       1.0  0.79200  0.31400  0.40700  1.0000
  O   O15       1.0  0.88500  0.59300  0.40800  1.0000
  O   O16       1.0  0.18600  0.09240  0.47800  1.0000
  O   O17       1.0  0.13300  0.50000  0.50000  1.0000
  O   O18       1.0  0.63300  0.50000  0.50000  1.0000
  O   O19       1.0  0.70800  0.11500  0.52200  1.0000
  O   O20       1.0  0.47800  0.68600  0.59200  1.0000
  O   O21       1.0  0.38500  0.40800  0.59300  1.0000
  O   O22       1.0  0.52200  0.20800  0.61500  1.0000
  O   O23       1.0  0.00000  0.00000  0.63300  1.0000
  O   O24       1.0  0.97800  0.59200  0.68600  1.0000
  O   O25       1.0  0.61500  0.02240  0.70800  1.0000
  O   O26       1.0  0.81400  0.90700  0.79200  1.0000
  O   O27       1.0  0.40700  0.29200  0.81400  1.0000
  O   O28       1.0  0.86700  0.36700  0.86700  1.0000
  O   O29       1.0  0.09350  0.90800  0.88500  1.0000
  O   O30       1.0  0.31400  0.79200  0.90700  1.0000
  O   O31       1.0  0.59300  0.88500  0.90800  1.0000
  O   O32       1.0  0.09240  0.18600  0.97800  1.0000
