data_image0
_chemical_formula_structural       Ba12O2S30Ti10
_chemical_formula_sum              "Ba12 O2 S30 Ti10"
_cell_length_a       8.59681
_cell_length_b       6.76335
_cell_length_c       23.9849
_cell_angle_alpha    90
_cell_angle_beta     90
_cell_angle_gamma    113.164

_space_group_name_H-M_alt    "P 1"
_space_group_IT_number       1

loop_
  _space_group_symop_operation_xyz
  'x, y, z'

loop_
  _atom_site_type_symbol
  _atom_site_label
  _atom_site_symmetry_multiplicity
  _atom_site_fract_x
  _atom_site_fract_y
  _atom_site_fract_z
  _atom_site_occupancy
  Ba  Ba1       1.0  0.29000  0.44500  0.01720  1.0000
  Ba  Ba2       1.0  0.21800  0.90100  0.16400  1.0000
  Ba  Ba3       1.0  0.80100  0.18000  0.17800  1.0000
  Ba  Ba4       1.0  0.80100  0.62100  0.32200  1.0000
  Ba  Ba5       1.0  0.21800  0.31600  0.33600  1.0000
  Ba  Ba6       1.0  0.29000  0.84500  0.48300  1.0000
  Ba  Ba7       1.0  0.71000  0.55500  0.51700  1.0000
  Ba  Ba8       1.0  0.78200  0.09860  0.66400  1.0000
  Ba  Ba9       1.0  0.19900  0.82000  0.67800  1.0000
  Ba  Ba10      1.0  0.19900  0.37900  0.82200  1.0000
  Ba  Ba11      1.0  0.78200  0.68400  0.83600  1.0000
  Ba  Ba12      1.0  0.71000  0.15500  0.98300  1.0000
  O   O1        1.0  0.51300  0.75700  0.25000  1.0000
  O   O2        1.0  0.48700  0.24300  0.75000  1.0000
  S   S1        1.0  0.30500  0.94900  0.00644  1.0000
  S   S2        1.0  0.97200  0.53200  0.07250  1.0000
  S   S3        1.0  0.96500  0.02940  0.07380  1.0000
  S   S4        1.0  0.52500  0.30700  0.11000  1.0000
  S   S5        1.0  0.52400  0.78400  0.11500  1.0000
  S   S6        1.0  0.82400  0.69700  0.19100  1.0000
  S   S7        1.0  0.19800  0.39100  0.19600  1.0000
  S   S8        1.0  0.51100  0.25600  0.25000  1.0000
  S   S9        1.0  0.19800  0.80800  0.30400  1.0000
  S   S10       1.0  0.82400  0.12700  0.30900  1.0000
  S   S11       1.0  0.52400  0.74000  0.38500  1.0000
  S   S12       1.0  0.52500  0.21800  0.39000  1.0000
  S   S13       1.0  0.96500  0.93600  0.42600  1.0000
  S   S14       1.0  0.97200  0.44000  0.42800  1.0000
  S   S15       1.0  0.30500  0.35600  0.49400  1.0000
  S   S16       1.0  0.69500  0.05100  0.50600  1.0000
  S   S17       1.0  0.02800  0.46800  0.57200  1.0000
  S   S18       1.0  0.03480  0.97100  0.57400  1.0000
  S   S19       1.0  0.47500  0.69300  0.61000  1.0000
  S   S20       1.0  0.47600  0.21600  0.61500  1.0000
  S   S21       1.0  0.17600  0.30300  0.69100  1.0000
  S   S22       1.0  0.80200  0.60900  0.69600  1.0000
  S   S23       1.0  0.48900  0.74400  0.75000  1.0000
  S   S24       1.0  0.80200  0.19200  0.80400  1.0000
  S   S25       1.0  0.17600  0.87300  0.80900  1.0000
  S   S26       1.0  0.47600  0.26000  0.88500  1.0000
  S   S27       1.0  0.47500  0.78200  0.89000  1.0000
  S   S28       1.0  0.03480  0.06420  0.92600  1.0000
  S   S29       1.0  0.02800  0.56000  0.92800  1.0000
  S   S30       1.0  0.69500  0.64400  0.99400  1.0000
  Ti  Ti1       1.0  0.00000  0.82700  0.00000  1.0000
  Ti  Ti2       1.0  0.74400  0.63200  0.09450  1.0000
  Ti  Ti3       1.0  0.48600  0.55000  0.19500  1.0000
  Ti  Ti4       1.0  0.48600  0.93700  0.30500  1.0000
  Ti  Ti5       1.0  0.74400  0.11200  0.40500  1.0000
  Ti  Ti6       1.0  0.00000  0.17300  0.50000  1.0000
  Ti  Ti7       1.0  0.25600  0.36800  0.59500  1.0000
  Ti  Ti8       1.0  0.51400  0.45000  0.69500  1.0000
  Ti  Ti9       1.0  0.51400  0.06350  0.80500  1.0000
  Ti  Ti10      1.0  0.25600  0.88800  0.90500  1.0000
