data_image0
_chemical_formula_structural       B8Cd4F40Xe4
_chemical_formula_sum              "B8 Cd4 F40 Xe4"
_cell_length_a       8.37785
_cell_length_b       8.83023
_cell_length_c       10.1291
_cell_angle_alpha    90
_cell_angle_beta     110.643
_cell_angle_gamma    90

_space_group_name_H-M_alt    "P 1"
_space_group_IT_number       1

loop_
  _space_group_symop_operation_xyz
  'x, y, z'

loop_
  _atom_site_type_symbol
  _atom_site_label
  _atom_site_symmetry_multiplicity
  _atom_site_fract_x
  _atom_site_fract_y
  _atom_site_fract_z
  _atom_site_occupancy
  B   B1        1.0  0.69900  0.90500  0.28000  1.0000
  B   B2        1.0  0.19900  0.59500  0.28000  1.0000
  B   B3        1.0  0.47700  0.21800  0.41700  1.0000
  B   B4        1.0  0.97700  0.28200  0.41700  1.0000
  B   B5        1.0  0.02260  0.71800  0.58300  1.0000
  B   B6        1.0  0.52300  0.78200  0.58300  1.0000
  B   B7        1.0  0.80100  0.40500  0.72000  1.0000
  B   B8        1.0  0.30100  0.09540  0.72000  1.0000
  Cd  Cd1       1.0  0.65100  0.53800  0.36000  1.0000
  Cd  Cd2       1.0  0.15100  0.96200  0.36000  1.0000
  Cd  Cd3       1.0  0.84900  0.03810  0.64000  1.0000
  Cd  Cd4       1.0  0.34900  0.46200  0.64000  1.0000
  F   F1        1.0  0.77400  0.60900  0.04920  1.0000
  F   F2        1.0  0.27400  0.89100  0.04920  1.0000
  F   F3        1.0  0.06130  0.03460  0.13400  1.0000
  F   F4        1.0  0.56100  0.46500  0.13400  1.0000
  F   F5        1.0  0.59400  0.01320  0.19800  1.0000
  F   F6        1.0  0.09380  0.48700  0.19800  1.0000
  F   F7        1.0  0.13200  0.74300  0.23500  1.0000
  F   F8        1.0  0.63200  0.75700  0.23500  1.0000
  F   F9        1.0  0.86300  0.91200  0.26700  1.0000
  F   F10       1.0  0.36300  0.58800  0.26700  1.0000
  F   F11       1.0  0.86800  0.39200  0.33400  1.0000
  F   F12       1.0  0.36800  0.10800  0.33400  1.0000
  F   F13       1.0  0.56500  0.28400  0.33600  1.0000
  F   F14       1.0  0.06450  0.21600  0.33600  1.0000
  F   F15       1.0  0.71700  0.91700  0.42400  1.0000
  F   F16       1.0  0.21700  0.58300  0.42400  1.0000
  F   F17       1.0  0.88400  0.16400  0.45300  1.0000
  F   F18       1.0  0.38400  0.33600  0.45300  1.0000
  F   F19       1.0  0.91100  0.65600  0.45700  1.0000
  F   F20       1.0  0.41100  0.84400  0.45700  1.0000
  F   F21       1.0  0.08880  0.34400  0.54300  1.0000
  F   F22       1.0  0.58900  0.15600  0.54300  1.0000
  F   F23       1.0  0.61600  0.66400  0.54700  1.0000
  F   F24       1.0  0.11600  0.83600  0.54700  1.0000
  F   F25       1.0  0.78300  0.41700  0.57600  1.0000
  F   F26       1.0  0.28300  0.08330  0.57600  1.0000
  F   F27       1.0  0.93500  0.78400  0.66400  1.0000
  F   F28       1.0  0.43500  0.71600  0.66400  1.0000
  F   F29       1.0  0.63200  0.89200  0.66600  1.0000
  F   F30       1.0  0.13200  0.60800  0.66600  1.0000
  F   F31       1.0  0.13700  0.08810  0.73300  1.0000
  F   F32       1.0  0.63700  0.41200  0.73300  1.0000
  F   F33       1.0  0.86800  0.25700  0.76500  1.0000
  F   F34       1.0  0.36800  0.24300  0.76500  1.0000
  F   F35       1.0  0.90600  0.51300  0.80200  1.0000
  F   F36       1.0  0.40600  0.98700  0.80200  1.0000
  F   F37       1.0  0.43900  0.53500  0.86600  1.0000
  F   F38       1.0  0.93900  0.96500  0.86600  1.0000
  F   F39       1.0  0.72600  0.10900  0.95100  1.0000
  F   F40       1.0  0.22600  0.39100  0.95100  1.0000
  Xe  Xe1       1.0  0.65100  0.28500  0.04280  1.0000
  Xe  Xe2       1.0  0.15100  0.21500  0.04280  1.0000
  Xe  Xe3       1.0  0.84900  0.78500  0.95700  1.0000
  Xe  Xe4       1.0  0.34900  0.71500  0.95700  1.0000
