data_image0
_chemical_formula_structural       Pb12S34Sb12
_chemical_formula_sum              "Pb12 S34 Sb12"
_cell_length_a       15.6412
_cell_length_b       4.02411
_cell_length_c       23.2554
_cell_angle_alpha    90
_cell_angle_beta     90
_cell_angle_gamma    90

_space_group_name_H-M_alt    "P 1"
_space_group_IT_number       1

loop_
  _space_group_symop_operation_xyz
  'x, y, z'

loop_
  _atom_site_type_symbol
  _atom_site_label
  _atom_site_symmetry_multiplicity
  _atom_site_fract_x
  _atom_site_fract_y
  _atom_site_fract_z
  _atom_site_occupancy
  Pb  Pb1       1.0  0.80000  0.00765  0.03700  1.0000
  Pb  Pb2       1.0  0.07640  0.00425  0.12700  1.0000
  Pb  Pb3       1.0  0.68500  0.00000  0.20600  1.0000
  Pb  Pb4       1.0  0.18500  0.00000  0.29400  1.0000
  Pb  Pb5       1.0  0.57600  0.99600  0.37300  1.0000
  Pb  Pb6       1.0  0.30000  0.99200  0.46300  1.0000
  Pb  Pb7       1.0  0.70000  0.99200  0.53700  1.0000
  Pb  Pb8       1.0  0.42400  0.99600  0.62700  1.0000
  Pb  Pb9       1.0  0.81500  0.00000  0.70600  1.0000
  Pb  Pb10      1.0  0.31500  0.00000  0.79400  1.0000
  Pb  Pb11      1.0  0.92400  0.00425  0.87300  1.0000
  Pb  Pb12      1.0  0.20000  0.00765  0.96300  1.0000
  S   S1        1.0  0.00000  0.22500  0.00000  1.0000
  S   S2        1.0  0.37700  0.02340  0.00327  1.0000
  S   S3        1.0  0.18600  0.51200  0.05300  1.0000
  S   S4        1.0  0.95500  0.50400  0.06940  1.0000
  S   S5        1.0  0.71200  0.50700  0.11500  1.0000
  S   S6        1.0  0.52300  0.02580  0.15200  1.0000
  S   S7        1.0  0.27700  0.01010  0.16400  1.0000
  S   S8        1.0  0.90600  0.99000  0.19400  1.0000
  S   S9        1.0  0.09560  0.50000  0.22200  1.0000
  S   S10       1.0  0.59600  0.50000  0.27800  1.0000
  S   S11       1.0  0.40600  0.00983  0.30600  1.0000
  S   S12       1.0  0.77700  0.99000  0.33600  1.0000
  S   S13       1.0  0.02270  0.97400  0.34800  1.0000
  S   S14       1.0  0.21200  0.49300  0.38500  1.0000
  S   S15       1.0  0.45500  0.49600  0.43100  1.0000
  S   S16       1.0  0.68600  0.48800  0.44700  1.0000
  S   S17       1.0  0.87700  0.97700  0.49700  1.0000
  S   S18       1.0  0.50000  0.77500  0.50000  1.0000
  S   S19       1.0  0.12300  0.97700  0.50300  1.0000
  S   S20       1.0  0.31400  0.48800  0.55300  1.0000
  S   S21       1.0  0.54500  0.49600  0.56900  1.0000
  S   S22       1.0  0.78800  0.49300  0.61500  1.0000
  S   S23       1.0  0.97700  0.97400  0.65200  1.0000
  S   S24       1.0  0.22300  0.99000  0.66400  1.0000
  S   S25       1.0  0.59400  0.00983  0.69400  1.0000
  S   S26       1.0  0.40400  0.50000  0.72200  1.0000
  S   S27       1.0  0.90400  0.50000  0.77800  1.0000
  S   S28       1.0  0.09380  0.99000  0.80600  1.0000
  S   S29       1.0  0.72300  0.01010  0.83600  1.0000
  S   S30       1.0  0.47700  0.02580  0.84800  1.0000
  S   S31       1.0  0.28800  0.50700  0.88500  1.0000
  S   S32       1.0  0.04510  0.50400  0.93100  1.0000
  S   S33       1.0  0.81400  0.51200  0.94700  1.0000
  S   S34       1.0  0.62300  0.02340  0.99700  1.0000
  Sb  Sb1       1.0  0.56800  0.45200  0.07120  1.0000
  Sb  Sb2       1.0  0.32500  0.48800  0.10000  1.0000
  Sb  Sb3       1.0  0.44800  0.46700  0.23900  1.0000
  Sb  Sb4       1.0  0.94800  0.53300  0.26100  1.0000
  Sb  Sb5       1.0  0.82500  0.51200  0.40000  1.0000
  Sb  Sb6       1.0  0.06830  0.54800  0.42900  1.0000
  Sb  Sb7       1.0  0.93200  0.54800  0.57100  1.0000
  Sb  Sb8       1.0  0.17500  0.51200  0.60000  1.0000
  Sb  Sb9       1.0  0.05170  0.53300  0.73900  1.0000
  Sb  Sb10      1.0  0.55200  0.46700  0.76100  1.0000
  Sb  Sb11      1.0  0.67500  0.48800  0.90000  1.0000
  Sb  Sb12      1.0  0.43200  0.45200  0.92900  1.0000
