data_image0
_chemical_formula_structural       Ba4Cd2H12O32P8
_chemical_formula_sum              "Ba4 Cd2 H12 O32 P8"
_cell_length_a       5.40168
_cell_length_b       10.0558
_cell_length_c       12.2532
_cell_angle_alpha    90
_cell_angle_beta     100.414
_cell_angle_gamma    90

_space_group_name_H-M_alt    "P 1"
_space_group_IT_number       1

loop_
  _space_group_symop_operation_xyz
  'x, y, z'

loop_
  _atom_site_type_symbol
  _atom_site_label
  _atom_site_symmetry_multiplicity
  _atom_site_fract_x
  _atom_site_fract_y
  _atom_site_fract_z
  _atom_site_occupancy
  Ba  Ba1       1.0  0.85900  0.34400  0.17500  1.0000
  Ba  Ba2       1.0  0.14100  0.84400  0.32500  1.0000
  Ba  Ba3       1.0  0.85900  0.15600  0.67500  1.0000
  Ba  Ba4       1.0  0.14100  0.65600  0.82500  1.0000
  Cd  Cd1       1.0  0.00000  0.00000  0.00000  1.0000
  Cd  Cd2       1.0  0.00000  0.50000  0.50000  1.0000
  H   H1        1.0  0.43000  0.82000  0.06400  1.0000
  H   H2        1.0  0.29600  0.46900  0.06870  1.0000
  H   H3        1.0  0.63200  0.67600  0.24200  1.0000
  H   H4        1.0  0.36800  0.17600  0.25800  1.0000
  H   H5        1.0  0.70400  0.96900  0.43100  1.0000
  H   H6        1.0  0.57000  0.32000  0.43600  1.0000
  H   H7        1.0  0.43000  0.68000  0.56400  1.0000
  H   H8        1.0  0.29600  0.03140  0.56900  1.0000
  H   H9        1.0  0.63200  0.82400  0.74200  1.0000
  H   H10       1.0  0.36800  0.32400  0.75800  1.0000
  H   H11       1.0  0.70400  0.53100  0.93100  1.0000
  H   H12       1.0  0.57000  0.18000  0.93600  1.0000
  O   O1        1.0  0.06920  0.22600  0.00877  1.0000
  O   O2        1.0  0.76000  0.54400  0.01680  1.0000
  O   O3        1.0  0.47600  0.73800  0.02040  1.0000
  O   O4        1.0  0.36600  0.94000  0.12400  1.0000
  O   O5        1.0  0.83300  0.01510  0.15500  1.0000
  O   O6        1.0  0.83900  0.69300  0.17900  1.0000
  O   O7        1.0  0.37300  0.44300  0.18600  1.0000
  O   O8        1.0  0.51300  0.16200  0.21400  1.0000
  O   O9        1.0  0.48700  0.66200  0.28600  1.0000
  O   O10       1.0  0.62700  0.94300  0.31400  1.0000
  O   O11       1.0  0.16100  0.19300  0.32100  1.0000
  O   O12       1.0  0.16700  0.51500  0.34500  1.0000
  O   O13       1.0  0.63400  0.44000  0.37600  1.0000
  O   O14       1.0  0.52400  0.23800  0.48000  1.0000
  O   O15       1.0  0.24000  0.04360  0.48300  1.0000
  O   O16       1.0  0.93100  0.72600  0.49100  1.0000
  O   O17       1.0  0.06920  0.27400  0.50900  1.0000
  O   O18       1.0  0.76000  0.95600  0.51700  1.0000
  O   O19       1.0  0.47600  0.76200  0.52000  1.0000
  O   O20       1.0  0.36600  0.56000  0.62400  1.0000
  O   O21       1.0  0.83300  0.48500  0.65500  1.0000
  O   O22       1.0  0.83900  0.80700  0.67900  1.0000
  O   O23       1.0  0.37300  0.05690  0.68600  1.0000
  O   O24       1.0  0.51300  0.33800  0.71400  1.0000
  O   O25       1.0  0.48700  0.83800  0.78600  1.0000
  O   O26       1.0  0.62700  0.55700  0.81400  1.0000
  O   O27       1.0  0.16100  0.30700  0.82100  1.0000
  O   O28       1.0  0.16700  0.98500  0.84500  1.0000
  O   O29       1.0  0.63400  0.06000  0.87600  1.0000
  O   O30       1.0  0.52400  0.26200  0.98000  1.0000
  O   O31       1.0  0.24000  0.45600  0.98300  1.0000
  O   O32       1.0  0.93100  0.77400  0.99100  1.0000
  P   P1        1.0  0.76200  0.69400  0.05360  1.0000
  P   P2        1.0  0.58700  0.01180  0.20000  1.0000
  P   P3        1.0  0.41300  0.51200  0.30000  1.0000
  P   P4        1.0  0.23800  0.19400  0.44600  1.0000
  P   P5        1.0  0.76200  0.80600  0.55400  1.0000
  P   P6        1.0  0.58700  0.48800  0.70000  1.0000
  P   P7        1.0  0.41300  0.98800  0.80000  1.0000
  P   P8        1.0  0.23800  0.30600  0.94600  1.0000
