data_image0
_chemical_formula_structural       I12Li8O36Rb4
_chemical_formula_sum              "I12 Li8 O36 Rb4"
_cell_length_a       8.089
_cell_length_b       10.6632
_cell_length_c       10.6018
_cell_angle_alpha    90
_cell_angle_beta     90
_cell_angle_gamma    111.577

_space_group_name_H-M_alt    "P 1"
_space_group_IT_number       1

loop_
  _space_group_symop_operation_xyz
  'x, y, z'

loop_
  _atom_site_type_symbol
  _atom_site_label
  _atom_site_symmetry_multiplicity
  _atom_site_fract_x
  _atom_site_fract_y
  _atom_site_fract_z
  _atom_site_occupancy
  I   I1        1.0  0.40800  0.55000  0.17000  1.0000
  I   I2        1.0  0.59200  0.95000  0.67000  1.0000
  I   I3        1.0  0.59200  0.45000  0.83000  1.0000
  I   I4        1.0  0.40800  0.04970  0.33000  1.0000
  I   I5        1.0  0.90900  0.56500  0.12600  1.0000
  I   I6        1.0  0.09130  0.93500  0.62600  1.0000
  I   I7        1.0  0.09130  0.43500  0.87400  1.0000
  I   I8        1.0  0.90900  0.06470  0.37400  1.0000
  I   I9        1.0  0.21600  0.66700  0.43600  1.0000
  I   I10       1.0  0.78400  0.83300  0.93600  1.0000
  I   I11       1.0  0.78400  0.33300  0.56400  1.0000
  I   I12       1.0  0.21600  0.16700  0.06350  1.0000
  Li  Li1       1.0  0.01800  0.85000  0.21800  1.0000
  Li  Li2       1.0  0.98200  0.65000  0.71800  1.0000
  Li  Li3       1.0  0.98200  0.15000  0.78200  1.0000
  Li  Li4       1.0  0.01800  0.35000  0.28200  1.0000
  Li  Li5       1.0  0.62400  0.86600  0.21700  1.0000
  Li  Li6       1.0  0.37600  0.63400  0.71700  1.0000
  Li  Li7       1.0  0.37600  0.13400  0.78300  1.0000
  Li  Li8       1.0  0.62400  0.36600  0.28300  1.0000
  O   O1        1.0  0.73500  0.56100  0.71200  1.0000
  O   O2        1.0  0.73500  0.06140  0.78800  1.0000
  O   O3        1.0  0.26500  0.43900  0.28800  1.0000
  O   O4        1.0  0.44900  0.70400  0.26500  1.0000
  O   O5        1.0  0.55100  0.79600  0.76500  1.0000
  O   O6        1.0  0.55100  0.29600  0.73500  1.0000
  O   O7        1.0  0.44900  0.20400  0.23500  1.0000
  O   O8        1.0  0.61500  0.52900  0.21700  1.0000
  O   O9        1.0  0.38500  0.97100  0.71700  1.0000
  O   O10       1.0  0.38500  0.47100  0.78300  1.0000
  O   O11       1.0  0.61500  0.02870  0.28300  1.0000
  O   O12       1.0  0.97500  0.66900  0.26900  1.0000
  O   O13       1.0  0.02490  0.83100  0.76900  1.0000
  O   O14       1.0  0.02490  0.33100  0.73100  1.0000
  O   O15       1.0  0.97500  0.16900  0.23100  1.0000
  O   O16       1.0  0.96600  0.83700  0.04310  1.0000
  O   O17       1.0  0.03430  0.66300  0.54300  1.0000
  O   O18       1.0  0.03430  0.16300  0.95700  1.0000
  O   O19       1.0  0.96600  0.33700  0.45700  1.0000
  O   O20       1.0  0.64900  0.88900  0.04280  1.0000
  O   O21       1.0  0.35100  0.61100  0.54300  1.0000
  O   O22       1.0  0.35100  0.11100  0.95700  1.0000
  O   O23       1.0  0.64900  0.38900  0.45700  1.0000
  O   O24       1.0  0.65500  0.65100  0.95700  1.0000
  O   O25       1.0  0.34500  0.84900  0.45700  1.0000
  O   O26       1.0  0.34500  0.34900  0.04300  1.0000
  O   O27       1.0  0.65500  0.15100  0.54300  1.0000
  O   O28       1.0  0.26500  0.93900  0.21200  1.0000
  O   O29       1.0  0.15400  0.60200  0.80300  1.0000
  O   O30       1.0  0.84600  0.89800  0.30300  1.0000
  O   O31       1.0  0.84600  0.39800  0.19700  1.0000
  O   O32       1.0  0.15400  0.10200  0.69700  1.0000
  O   O33       1.0  0.13900  0.58000  0.08000  1.0000
  O   O34       1.0  0.86100  0.92000  0.58000  1.0000
  O   O35       1.0  0.86100  0.42000  0.92000  1.0000
  O   O36       1.0  0.13900  0.07960  0.42000  1.0000
  Rb  Rb1       1.0  0.70000  0.66300  0.46100  1.0000
  Rb  Rb2       1.0  0.30000  0.83700  0.96100  1.0000
  Rb  Rb3       1.0  0.30000  0.33700  0.53900  1.0000
  Rb  Rb4       1.0  0.70000  0.16300  0.03910  1.0000
