data_image0
_chemical_formula_structural       Ba12O34Ti8Y4
_chemical_formula_sum              "Ba12 O34 Ti8 Y4"
_cell_length_a       5.93157
_cell_length_b       5.93157
_cell_length_c       29.7733
_cell_angle_alpha    90
_cell_angle_beta     90
_cell_angle_gamma    120

_space_group_name_H-M_alt    "P 1"
_space_group_IT_number       1

loop_
  _space_group_symop_operation_xyz
  'x, y, z'

loop_
  _atom_site_type_symbol
  _atom_site_label
  _atom_site_symmetry_multiplicity
  _atom_site_fract_x
  _atom_site_fract_y
  _atom_site_fract_z
  _atom_site_occupancy
  Ba  Ba1       1.0  0.00000  0.00000  0.00000  1.0000
  Ba  Ba2       1.0  0.66700  0.33300  0.09050  1.0000
  Ba  Ba3       1.0  0.33300  0.66700  0.18400  1.0000
  Ba  Ba4       1.0  0.00000  0.00000  0.25000  1.0000
  Ba  Ba5       1.0  0.33300  0.66700  0.31600  1.0000
  Ba  Ba6       1.0  0.66700  0.33300  0.40900  1.0000
  Ba  Ba7       1.0  0.00000  0.00000  0.50000  1.0000
  Ba  Ba8       1.0  0.33300  0.66700  0.59100  1.0000
  Ba  Ba9       1.0  0.66700  0.33300  0.68400  1.0000
  Ba  Ba10      1.0  0.00000  0.00000  0.75000  1.0000
  Ba  Ba11      1.0  0.66700  0.33300  0.81600  1.0000
  Ba  Ba12      1.0  0.33300  0.66700  0.90900  1.0000
  O   O1        1.0  0.66700  0.33300  0.00613  1.0000
  O   O2        1.0  0.16700  0.83300  0.07730  1.0000
  O   O3        1.0  0.66600  0.83300  0.07730  1.0000
  O   O4        1.0  0.16700  0.33400  0.07730  1.0000
  O   O5        1.0  0.35000  0.17500  0.17000  1.0000
  O   O6        1.0  0.82500  0.17500  0.17000  1.0000
  O   O7        1.0  0.82500  0.65000  0.17000  1.0000
  O   O8        1.0  0.51600  0.03290  0.25000  1.0000
  O   O9        1.0  0.51600  0.48400  0.25000  1.0000
  O   O10       1.0  0.96700  0.48400  0.25000  1.0000
  O   O11       1.0  0.82500  0.65000  0.33000  1.0000
  O   O12       1.0  0.35000  0.17500  0.33000  1.0000
  O   O13       1.0  0.82500  0.17500  0.33000  1.0000
  O   O14       1.0  0.16700  0.33400  0.42300  1.0000
  O   O15       1.0  0.16700  0.83300  0.42300  1.0000
  O   O16       1.0  0.66600  0.83300  0.42300  1.0000
  O   O17       1.0  0.66700  0.33300  0.49400  1.0000
  O   O18       1.0  0.33300  0.66700  0.50600  1.0000
  O   O19       1.0  0.33400  0.16700  0.57700  1.0000
  O   O20       1.0  0.83300  0.16700  0.57700  1.0000
  O   O21       1.0  0.83300  0.66600  0.57700  1.0000
  O   O22       1.0  0.17500  0.82500  0.67000  1.0000
  O   O23       1.0  0.65000  0.82500  0.67000  1.0000
  O   O24       1.0  0.17500  0.35000  0.67000  1.0000
  O   O25       1.0  0.03290  0.51600  0.75000  1.0000
  O   O26       1.0  0.48400  0.51600  0.75000  1.0000
  O   O27       1.0  0.48400  0.96700  0.75000  1.0000
  O   O28       1.0  0.17500  0.35000  0.83000  1.0000
  O   O29       1.0  0.17500  0.82500  0.83000  1.0000
  O   O30       1.0  0.65000  0.82500  0.83000  1.0000
  O   O31       1.0  0.83300  0.66600  0.92300  1.0000
  O   O32       1.0  0.33400  0.16700  0.92300  1.0000
  O   O33       1.0  0.83300  0.16700  0.92300  1.0000
  O   O34       1.0  0.33300  0.66700  0.99400  1.0000
  Ti  Ti1       1.0  0.33300  0.66700  0.05400  1.0000
  Ti  Ti2       1.0  0.66700  0.33300  0.20400  1.0000
  Ti  Ti3       1.0  0.66700  0.33300  0.29600  1.0000
  Ti  Ti4       1.0  0.33300  0.66700  0.44600  1.0000
  Ti  Ti5       1.0  0.66700  0.33300  0.55400  1.0000
  Ti  Ti6       1.0  0.33300  0.66700  0.70400  1.0000
  Ti  Ti7       1.0  0.33300  0.66700  0.79600  1.0000
  Ti  Ti8       1.0  0.66700  0.33300  0.94600  1.0000
  Y   Y1        1.0  0.00000  0.00000  0.12700  1.0000
  Y   Y2        1.0  0.00000  0.00000  0.37300  1.0000
  Y   Y3        1.0  0.00000  0.00000  0.62700  1.0000
  Y   Y4        1.0  0.00000  0.00000  0.87300  1.0000
