data_image0
_chemical_formula_structural       In8S32Si8Tl8
_chemical_formula_sum              "In8 S32 Si8 Tl8"
_cell_length_a       16.7744
_cell_length_b       7.65414
_cell_length_c       12.3827
_cell_angle_alpha    90
_cell_angle_beta     90
_cell_angle_gamma    90

_space_group_name_H-M_alt    "P 1"
_space_group_IT_number       1

loop_
  _space_group_symop_operation_xyz
  'x, y, z'

loop_
  _atom_site_type_symbol
  _atom_site_label
  _atom_site_symmetry_multiplicity
  _atom_site_fract_x
  _atom_site_fract_y
  _atom_site_fract_z
  _atom_site_occupancy
  In  In1       1.0  0.34800  0.50700  0.22100  1.0000
  In  In2       1.0  0.34800  0.99300  0.22100  1.0000
  In  In3       1.0  0.84800  0.50700  0.27900  1.0000
  In  In4       1.0  0.84800  0.99300  0.27900  1.0000
  In  In5       1.0  0.15200  0.00748  0.72100  1.0000
  In  In6       1.0  0.15200  0.49300  0.72100  1.0000
  In  In7       1.0  0.65200  0.00748  0.77900  1.0000
  In  In8       1.0  0.65200  0.49300  0.77900  1.0000
  S   S1        1.0  0.34200  0.75000  0.09280  1.0000
  S   S2        1.0  0.35300  0.25000  0.10600  1.0000
  S   S3        1.0  0.13800  0.75000  0.12500  1.0000
  S   S4        1.0  0.55100  0.75000  0.13800  1.0000
  S   S5        1.0  0.96000  0.51600  0.14500  1.0000
  S   S6        1.0  0.96000  0.98400  0.14500  1.0000
  S   S7        1.0  0.72900  0.51900  0.15300  1.0000
  S   S8        1.0  0.72900  0.98100  0.15300  1.0000
  S   S9        1.0  0.22900  0.51900  0.34700  1.0000
  S   S10       1.0  0.22900  0.98100  0.34700  1.0000
  S   S11       1.0  0.46000  0.51600  0.35500  1.0000
  S   S12       1.0  0.46000  0.98400  0.35500  1.0000
  S   S13       1.0  0.05100  0.75000  0.36200  1.0000
  S   S14       1.0  0.63800  0.75000  0.37500  1.0000
  S   S15       1.0  0.85300  0.25000  0.39400  1.0000
  S   S16       1.0  0.84200  0.75000  0.40700  1.0000
  S   S17       1.0  0.15800  0.25000  0.59300  1.0000
  S   S18       1.0  0.14700  0.75000  0.60600  1.0000
  S   S19       1.0  0.36200  0.25000  0.62500  1.0000
  S   S20       1.0  0.94900  0.25000  0.63800  1.0000
  S   S21       1.0  0.54000  0.01570  0.64500  1.0000
  S   S22       1.0  0.54000  0.48400  0.64500  1.0000
  S   S23       1.0  0.77100  0.01850  0.65300  1.0000
  S   S24       1.0  0.77100  0.48100  0.65300  1.0000
  S   S25       1.0  0.27100  0.01850  0.84700  1.0000
  S   S26       1.0  0.27100  0.48100  0.84700  1.0000
  S   S27       1.0  0.03970  0.01570  0.85500  1.0000
  S   S28       1.0  0.03970  0.48400  0.85500  1.0000
  S   S29       1.0  0.44900  0.25000  0.86200  1.0000
  S   S30       1.0  0.86200  0.25000  0.87500  1.0000
  S   S31       1.0  0.64700  0.75000  0.89400  1.0000
  S   S32       1.0  0.65800  0.25000  0.90700  1.0000
  Si  Si1       1.0  0.01840  0.75000  0.19200  1.0000
  Si  Si2       1.0  0.67000  0.75000  0.20600  1.0000
  Si  Si3       1.0  0.17000  0.75000  0.29400  1.0000
  Si  Si4       1.0  0.51800  0.75000  0.30800  1.0000
  Si  Si5       1.0  0.48200  0.25000  0.69200  1.0000
  Si  Si6       1.0  0.83000  0.25000  0.70600  1.0000
  Si  Si7       1.0  0.33000  0.25000  0.79400  1.0000
  Si  Si8       1.0  0.98200  0.25000  0.80800  1.0000
  Tl  Tl1       1.0  0.16800  0.25000  0.02170  1.0000
  Tl  Tl2       1.0  0.56700  0.25000  0.12900  1.0000
  Tl  Tl3       1.0  0.06730  0.25000  0.37100  1.0000
  Tl  Tl4       1.0  0.66800  0.25000  0.47800  1.0000
  Tl  Tl5       1.0  0.33200  0.75000  0.52200  1.0000
  Tl  Tl6       1.0  0.93300  0.75000  0.62900  1.0000
  Tl  Tl7       1.0  0.43300  0.75000  0.87100  1.0000
  Tl  Tl8       1.0  0.83200  0.75000  0.97800  1.0000
