data_image0
_chemical_formula_structural       Ge4O4Pt4Te4
_chemical_formula_sum              "Ge4 O4 Pt4 Te4"
_cell_length_a       5.65028
_cell_length_b       7.59841
_cell_length_c       7.3028
_cell_angle_alpha    90
_cell_angle_beta     90
_cell_angle_gamma    90

_space_group_name_H-M_alt    "P 1"
_space_group_IT_number       1

loop_
  _space_group_symop_operation_xyz
  'x, y, z'

loop_
  _atom_site_type_symbol
  _atom_site_label
  _atom_site_symmetry_multiplicity
  _atom_site_fract_x
  _atom_site_fract_y
  _atom_site_fract_z
  _atom_site_occupancy
  Ge  Ge1       1.0  0.34300  0.70700  0.07730  1.0000
  Ge  Ge2       1.0  0.65700  0.20700  0.42300  1.0000
  Ge  Ge3       1.0  0.15700  0.29300  0.57700  1.0000
  Ge  Ge4       1.0  0.84300  0.79300  0.92300  1.0000
  O   O1        1.0  0.51400  0.17800  0.19000  1.0000
  O   O2        1.0  0.48600  0.67800  0.31000  1.0000
  O   O3        1.0  0.98600  0.82200  0.69000  1.0000
  O   O4        1.0  0.01350  0.32200  0.81000  1.0000
  Pt  Pt1       1.0  0.25400  0.26200  0.01290  1.0000
  Pt  Pt2       1.0  0.74600  0.76200  0.48700  1.0000
  Pt  Pt3       1.0  0.24600  0.73800  0.51300  1.0000
  Pt  Pt4       1.0  0.75400  0.23800  0.98700  1.0000
  Te  Te1       1.0  0.97700  0.47300  0.21700  1.0000
  Te  Te2       1.0  0.02300  0.97300  0.28300  1.0000
  Te  Te3       1.0  0.52300  0.52700  0.71700  1.0000
  Te  Te4       1.0  0.47700  0.02730  0.78300  1.0000
