data_image0
_chemical_formula_structural       H20In2N6O28
_chemical_formula_sum              "H20 In2 N6 O28"
_cell_length_a       6.68951
_cell_length_b       6.68951
_cell_length_c       11.0255
_cell_angle_alpha    89.7694
_cell_angle_beta     89.7694
_cell_angle_gamma    83.7434

_space_group_name_H-M_alt    "P 1"
_space_group_IT_number       1

loop_
  _space_group_symop_operation_xyz
  'x, y, z'

loop_
  _atom_site_type_symbol
  _atom_site_label
  _atom_site_symmetry_multiplicity
  _atom_site_fract_x
  _atom_site_fract_y
  _atom_site_fract_z
  _atom_site_occupancy
  H   H1        1.0  0.90700  0.24800  0.00582  1.0000
  H   H2        1.0  0.65900  0.24700  0.01330  1.0000
  H   H3        1.0  0.56800  0.91400  0.16400  1.0000
  H   H4        1.0  0.07930  0.43700  0.19100  1.0000
  H   H5        1.0  0.45600  0.44300  0.19200  1.0000
  H   H6        1.0  0.55700  0.54400  0.30800  1.0000
  H   H7        1.0  0.56300  0.92100  0.30900  1.0000
  H   H8        1.0  0.08590  0.43200  0.33600  1.0000
  H   H9        1.0  0.75300  0.34100  0.48700  1.0000
  H   H10       1.0  0.75200  0.09250  0.49400  1.0000
  H   H11       1.0  0.24800  0.90700  0.50600  1.0000
  H   H12       1.0  0.24700  0.65900  0.51300  1.0000
  H   H13       1.0  0.91400  0.56800  0.66400  1.0000
  H   H14       1.0  0.43700  0.07930  0.69100  1.0000
  H   H15       1.0  0.44300  0.45600  0.69200  1.0000
  H   H16       1.0  0.54400  0.55700  0.80800  1.0000
  H   H17       1.0  0.92100  0.56300  0.80900  1.0000
  H   H18       1.0  0.43200  0.08590  0.83600  1.0000
  H   H19       1.0  0.34100  0.75300  0.98700  1.0000
  H   H20       1.0  0.09250  0.75200  0.99400  1.0000
  In  In1       1.0  0.81400  0.18600  0.25000  1.0000
  In  In2       1.0  0.18600  0.81400  0.75000  1.0000
  N   N1        1.0  0.72400  0.70200  0.00776  1.0000
  N   N2        1.0  0.12200  0.87800  0.25000  1.0000
  N   N3        1.0  0.29800  0.27600  0.49200  1.0000
  N   N4        1.0  0.70200  0.72400  0.50800  1.0000
  N   N5        1.0  0.87800  0.12200  0.75000  1.0000
  N   N6        1.0  0.27600  0.29800  0.99200  1.0000
  O   O1        1.0  0.55200  0.77400  0.04860  1.0000
  O   O2        1.0  0.78800  0.23900  0.05890  1.0000
  O   O3        1.0  0.87800  0.73700  0.06480  1.0000
  O   O4        1.0  0.26700  0.40300  0.08720  1.0000
  O   O5        1.0  0.11400  0.02160  0.17200  1.0000
  O   O6        1.0  0.56700  0.00697  0.23600  1.0000
  O   O7        1.0  0.56800  0.43200  0.25000  1.0000
  O   O8        1.0  0.26000  0.74000  0.25000  1.0000
  O   O9        1.0  0.99300  0.43300  0.26400  1.0000
  O   O10       1.0  0.97800  0.88600  0.32800  1.0000
  O   O11       1.0  0.59700  0.73300  0.41300  1.0000
  O   O12       1.0  0.26300  0.12200  0.43500  1.0000
  O   O13       1.0  0.76100  0.21200  0.44100  1.0000
  O   O14       1.0  0.22600  0.44800  0.45100  1.0000
  O   O15       1.0  0.77400  0.55200  0.54900  1.0000
  O   O16       1.0  0.23900  0.78800  0.55900  1.0000
  O   O17       1.0  0.73700  0.87800  0.56500  1.0000
  O   O18       1.0  0.40300  0.26700  0.58700  1.0000
  O   O19       1.0  0.02160  0.11400  0.67200  1.0000
  O   O20       1.0  0.00697  0.56700  0.73600  1.0000
  O   O21       1.0  0.74000  0.26000  0.75000  1.0000
  O   O22       1.0  0.43200  0.56800  0.75000  1.0000
  O   O23       1.0  0.43300  0.99300  0.76400  1.0000
  O   O24       1.0  0.88600  0.97800  0.82800  1.0000
  O   O25       1.0  0.73300  0.59700  0.91300  1.0000
  O   O26       1.0  0.12200  0.26300  0.93500  1.0000
  O   O27       1.0  0.21200  0.76100  0.94100  1.0000
  O   O28       1.0  0.44800  0.22600  0.95100  1.0000
