data_image0
_chemical_formula_structural       Br12C12Cu2H24N8
_chemical_formula_sum              "Br12 C12 Cu2 H24 N8"
_cell_length_a       7.44105
_cell_length_b       8.12093
_cell_length_c       14.1527
_cell_angle_alpha    98.3214
_cell_angle_beta     100.666
_cell_angle_gamma    102.309

_space_group_name_H-M_alt    "P 1"
_space_group_IT_number       1

loop_
  _space_group_symop_operation_xyz
  'x, y, z'

loop_
  _atom_site_type_symbol
  _atom_site_label
  _atom_site_symmetry_multiplicity
  _atom_site_fract_x
  _atom_site_fract_y
  _atom_site_fract_z
  _atom_site_occupancy
  Br  Br1       1.0  0.81800  0.65800  0.08530  1.0000
  Br  Br2       1.0  0.47600  0.29400  0.18000  1.0000
  Br  Br3       1.0  0.89700  0.03110  0.20100  1.0000
  Br  Br4       1.0  0.13400  0.48300  0.28100  1.0000
  Br  Br5       1.0  0.34000  0.03600  0.35600  1.0000
  Br  Br6       1.0  0.77900  0.19300  0.44700  1.0000
  Br  Br7       1.0  0.22100  0.80700  0.55300  1.0000
  Br  Br8       1.0  0.66000  0.96400  0.64400  1.0000
  Br  Br9       1.0  0.86600  0.51700  0.71900  1.0000
  Br  Br10      1.0  0.10300  0.96900  0.79900  1.0000
  Br  Br11      1.0  0.52400  0.70600  0.82000  1.0000
  Br  Br12      1.0  0.18200  0.34200  0.91500  1.0000
  C   C1        1.0  0.76500  0.43400  0.01180  1.0000
  C   C2        1.0  0.25000  0.85300  0.02800  1.0000
  C   C3        1.0  0.34400  0.79100  0.11900  1.0000
  C   C4        1.0  0.72600  0.71900  0.35000  1.0000
  C   C5        1.0  0.65600  0.62500  0.42800  1.0000
  C   C6        1.0  0.97500  0.74300  0.47800  1.0000
  C   C7        1.0  0.02550  0.25700  0.52200  1.0000
  C   C8        1.0  0.34400  0.37500  0.57200  1.0000
  C   C9        1.0  0.27400  0.28100  0.65000  1.0000
  C   C10       1.0  0.65600  0.20900  0.88100  1.0000
  C   C11       1.0  0.75000  0.14700  0.97200  1.0000
  C   C12       1.0  0.23500  0.56600  0.98800  1.0000
  Cu  Cu1       1.0  0.21400  0.21000  0.25100  1.0000
  Cu  Cu2       1.0  0.78600  0.79000  0.74900  1.0000
  H   H1        1.0  0.35100  0.94400  0.00083  1.0000
  H   H2        1.0  0.13600  0.91300  0.04210  1.0000
  H   H3        1.0  0.88500  0.31300  0.11700  1.0000
  H   H4        1.0  0.37700  0.52300  0.12000  1.0000
  H   H5        1.0  0.49100  0.86400  0.14900  1.0000
  H   H6        1.0  0.26700  0.79600  0.17800  1.0000
  H   H7        1.0  0.72200  0.62900  0.28300  1.0000
  H   H8        1.0  0.64700  0.81400  0.33000  1.0000
  H   H9        1.0  0.01940  0.87400  0.36600  1.0000
  H   H10       1.0  0.57900  0.49100  0.39700  1.0000
  H   H11       1.0  0.15800  0.40700  0.43600  1.0000
  H   H12       1.0  0.56800  0.69100  0.46600  1.0000
  H   H13       1.0  0.43200  0.30900  0.53400  1.0000
  H   H14       1.0  0.84200  0.59300  0.56400  1.0000
  H   H15       1.0  0.42100  0.50900  0.60300  1.0000
  H   H16       1.0  0.98100  0.12600  0.63400  1.0000
  H   H17       1.0  0.35300  0.18600  0.67000  1.0000
  H   H18       1.0  0.27800  0.37100  0.71700  1.0000
  H   H19       1.0  0.73300  0.20400  0.82200  1.0000
  H   H20       1.0  0.50900  0.13600  0.85100  1.0000
  H   H21       1.0  0.62300  0.47700  0.88000  1.0000
  H   H22       1.0  0.11500  0.68700  0.88300  1.0000
  H   H23       1.0  0.86400  0.08700  0.95800  1.0000
  H   H24       1.0  0.64900  0.05640  0.99900  1.0000
  N   N1        1.0  0.82500  0.30700  0.04520  1.0000
  N   N2        1.0  0.33500  0.61000  0.07930  1.0000
  N   N3        1.0  0.92400  0.80500  0.39800  1.0000
  N   N4        1.0  0.83400  0.63400  0.49700  1.0000
  N   N5        1.0  0.16600  0.36600  0.50300  1.0000
  N   N6        1.0  0.07640  0.19500  0.60200  1.0000
  N   N7        1.0  0.66500  0.39000  0.92100  1.0000
  N   N8        1.0  0.17500  0.69300  0.95500  1.0000
