data_image0
_chemical_formula_structural       B12H8Na12O28
_chemical_formula_sum              "B12 H8 Na12 O28"
_cell_length_a       8.84828
_cell_length_b       7.03396
_cell_length_c       9.4733
_cell_angle_alpha    90
_cell_angle_beta     90
_cell_angle_gamma    90

_space_group_name_H-M_alt    "P 1"
_space_group_IT_number       1

loop_
  _space_group_symop_operation_xyz
  'x, y, z'

loop_
  _atom_site_type_symbol
  _atom_site_label
  _atom_site_symmetry_multiplicity
  _atom_site_fract_x
  _atom_site_fract_y
  _atom_site_fract_z
  _atom_site_occupancy
  B   B1        1.0  0.32200  0.25000  0.02050  1.0000
  B   B2        1.0  0.40500  0.75000  0.04300  1.0000
  B   B3        1.0  0.51500  0.25000  0.21800  1.0000
  B   B4        1.0  0.01470  0.25000  0.28200  1.0000
  B   B5        1.0  0.90500  0.75000  0.45700  1.0000
  B   B6        1.0  0.82200  0.25000  0.48000  1.0000
  B   B7        1.0  0.17800  0.75000  0.52000  1.0000
  B   B8        1.0  0.09530  0.25000  0.54300  1.0000
  B   B9        1.0  0.98500  0.75000  0.71800  1.0000
  B   B10       1.0  0.48500  0.75000  0.78200  1.0000
  B   B11       1.0  0.59500  0.25000  0.95700  1.0000
  B   B12       1.0  0.67800  0.75000  0.98000  1.0000
  H   H1        1.0  0.08550  0.12100  0.10300  1.0000
  H   H2        1.0  0.08550  0.37900  0.10300  1.0000
  H   H3        1.0  0.58500  0.12100  0.39700  1.0000
  H   H4        1.0  0.58500  0.37900  0.39700  1.0000
  H   H5        1.0  0.41500  0.62100  0.60300  1.0000
  H   H6        1.0  0.41500  0.87900  0.60300  1.0000
  H   H7        1.0  0.91500  0.62100  0.89700  1.0000
  H   H8        1.0  0.91500  0.87900  0.89700  1.0000
  Na  Na1       1.0  0.03900  0.75000  0.16700  1.0000
  Na  Na2       1.0  0.77200  0.50200  0.19500  1.0000
  Na  Na3       1.0  0.77200  0.99800  0.19500  1.0000
  Na  Na4       1.0  0.27200  0.50200  0.30500  1.0000
  Na  Na5       1.0  0.27200  0.99800  0.30500  1.0000
  Na  Na6       1.0  0.53900  0.75000  0.33300  1.0000
  Na  Na7       1.0  0.46100  0.25000  0.66700  1.0000
  Na  Na8       1.0  0.72800  0.00243  0.69500  1.0000
  Na  Na9       1.0  0.72800  0.49800  0.69500  1.0000
  Na  Na10      1.0  0.22800  0.00243  0.80500  1.0000
  Na  Na11      1.0  0.22800  0.49800  0.80500  1.0000
  Na  Na12      1.0  0.96100  0.25000  0.83300  1.0000
  O   O1        1.0  0.82300  0.75000  0.02350  1.0000
  O   O2        1.0  0.56200  0.75000  0.08080  1.0000
  O   O3        1.0  0.62800  0.25000  0.10100  1.0000
  O   O4        1.0  0.30000  0.75000  0.14300  1.0000
  O   O5        1.0  0.36000  0.25000  0.16100  1.0000
  O   O6        1.0  0.03370  0.07860  0.19200  1.0000
  O   O7        1.0  0.03370  0.42100  0.19200  1.0000
  O   O8        1.0  0.53400  0.07860  0.30800  1.0000
  O   O9        1.0  0.53400  0.42100  0.30800  1.0000
  O   O10       1.0  0.86000  0.25000  0.33900  1.0000
  O   O11       1.0  0.80000  0.75000  0.35700  1.0000
  O   O12       1.0  0.12800  0.25000  0.39900  1.0000
  O   O13       1.0  0.06200  0.75000  0.41900  1.0000
  O   O14       1.0  0.32300  0.75000  0.47600  1.0000
  O   O15       1.0  0.67700  0.25000  0.52400  1.0000
  O   O16       1.0  0.93800  0.25000  0.58100  1.0000
  O   O17       1.0  0.87200  0.75000  0.60100  1.0000
  O   O18       1.0  0.20000  0.25000  0.64300  1.0000
  O   O19       1.0  0.14000  0.75000  0.66100  1.0000
  O   O20       1.0  0.46600  0.57900  0.69200  1.0000
  O   O21       1.0  0.46600  0.92100  0.69200  1.0000
  O   O22       1.0  0.96600  0.57900  0.80800  1.0000
  O   O23       1.0  0.96600  0.92100  0.80800  1.0000
  O   O24       1.0  0.64000  0.75000  0.83900  1.0000
  O   O25       1.0  0.70000  0.25000  0.85700  1.0000
  O   O26       1.0  0.37200  0.75000  0.89900  1.0000
  O   O27       1.0  0.43800  0.25000  0.91900  1.0000
  O   O28       1.0  0.17700  0.25000  0.97600  1.0000
