data_image0
_chemical_formula_structural       As2BaCu4
_chemical_formula_sum              "As2 Ba1 Cu4"
_cell_length_a       4.2225
_cell_length_b       4.2225
_cell_length_c       8.56968
_cell_angle_alpha    75.7376
_cell_angle_beta     104.262
_cell_angle_gamma    120

_space_group_name_H-M_alt    "P 1"
_space_group_IT_number       1

loop_
  _space_group_symop_operation_xyz
  'x, y, z'

loop_
  _atom_site_type_symbol
  _atom_site_label
  _atom_site_symmetry_multiplicity
  _atom_site_fract_x
  _atom_site_fract_y
  _atom_site_fract_z
  _atom_site_occupancy
  As  As1       1.0  0.75600  0.24400  0.26900  1.0000
  As  As2       1.0  0.24400  0.75600  0.73100  1.0000
  Ba  Ba1       1.0  0.00000  0.00000  0.00000  1.0000
  Cu  Cu1       1.0  0.44200  0.55800  0.32700  1.0000
  Cu  Cu2       1.0  0.14400  0.85600  0.43100  1.0000
  Cu  Cu3       1.0  0.85600  0.14400  0.56900  1.0000
  Cu  Cu4       1.0  0.55800  0.44200  0.67300  1.0000
