data_image0
_chemical_formula_structural       Bi8I36Rb12
_chemical_formula_sum              "Bi8 I36 Rb12"
_cell_length_a       14.9818
_cell_length_b       8.39288
_cell_length_c       26.3534
_cell_angle_alpha    90
_cell_angle_beta     125.961
_cell_angle_gamma    90

_space_group_name_H-M_alt    "P 1"
_space_group_IT_number       1

loop_
  _space_group_symop_operation_xyz
  'x, y, z'

loop_
  _atom_site_type_symbol
  _atom_site_label
  _atom_site_symmetry_multiplicity
  _atom_site_fract_x
  _atom_site_fract_y
  _atom_site_fract_z
  _atom_site_occupancy
  Bi  Bi1       1.0  0.48600  0.24100  0.31100  1.0000
  Bi  Bi2       1.0  0.98800  0.74100  0.31100  1.0000
  Bi  Bi3       1.0  0.50400  0.74400  0.49400  1.0000
  Bi  Bi4       1.0  0.00128  0.24200  0.49600  1.0000
  Bi  Bi5       1.0  0.48600  0.75900  0.81100  1.0000
  Bi  Bi6       1.0  0.98800  0.25900  0.81100  1.0000
  Bi  Bi7       1.0  0.50400  0.25600  0.99400  1.0000
  Bi  Bi8       1.0  0.00128  0.75800  0.99600  1.0000
  I   I1        1.0  0.95300  0.05240  0.03860  1.0000
  I   I2        1.0  0.53600  0.95900  0.06490  1.0000
  I   I3        1.0  0.24400  0.81900  0.07150  1.0000
  I   I4        1.0  0.46100  0.45100  0.07220  1.0000
  I   I5        1.0  0.74500  0.33100  0.07270  1.0000
  I   I6        1.0  0.02520  0.55500  0.09610  1.0000
  I   I7        1.0  0.96200  0.94800  0.21100  1.0000
  I   I8        1.0  0.24600  0.16300  0.23200  1.0000
  I   I9        1.0  0.53400  0.04660  0.23400  1.0000
  I   I10       1.0  0.74600  0.67700  0.23600  1.0000
  I   I11       1.0  0.45200  0.53700  0.23900  1.0000
  I   I12       1.0  0.03690  0.44800  0.26800  1.0000
  I   I13       1.0  0.95400  0.06130  0.37100  1.0000
  I   I14       1.0  0.24600  0.84200  0.39800  1.0000
  I   I15       1.0  0.54200  0.92800  0.39800  1.0000
  I   I16       1.0  0.44600  0.43000  0.40600  1.0000
  I   I17       1.0  0.74300  0.34300  0.40900  1.0000
  I   I18       1.0  0.03770  0.56100  0.43600  1.0000
  I   I19       1.0  0.95300  0.94800  0.53900  1.0000
  I   I20       1.0  0.53600  0.04140  0.56500  1.0000
  I   I21       1.0  0.24400  0.18100  0.57200  1.0000
  I   I22       1.0  0.46100  0.54900  0.57200  1.0000
  I   I23       1.0  0.74500  0.66900  0.57300  1.0000
  I   I24       1.0  0.02520  0.44500  0.59600  1.0000
  I   I25       1.0  0.96200  0.05230  0.71100  1.0000
  I   I26       1.0  0.24600  0.83700  0.73200  1.0000
  I   I27       1.0  0.53400  0.95300  0.73400  1.0000
  I   I28       1.0  0.74600  0.32300  0.73600  1.0000
  I   I29       1.0  0.45200  0.46300  0.73900  1.0000
  I   I30       1.0  0.03690  0.55200  0.76800  1.0000
  I   I31       1.0  0.95400  0.93900  0.87100  1.0000
  I   I32       1.0  0.24600  0.15800  0.89800  1.0000
  I   I33       1.0  0.54200  0.07170  0.89800  1.0000
  I   I34       1.0  0.44600  0.57000  0.90600  1.0000
  I   I35       1.0  0.74300  0.65700  0.90900  1.0000
  I   I36       1.0  0.03770  0.43900  0.93600  1.0000
  Rb  Rb1       1.0  0.74700  0.77800  0.04800  1.0000
  Rb  Rb2       1.0  0.25000  0.26400  0.09380  1.0000
  Rb  Rb3       1.0  0.74400  0.23200  0.21200  1.0000
  Rb  Rb4       1.0  0.24600  0.71700  0.25900  1.0000
  Rb  Rb5       1.0  0.75100  0.77500  0.37600  1.0000
  Rb  Rb6       1.0  0.24200  0.27600  0.43200  1.0000
  Rb  Rb7       1.0  0.74700  0.22200  0.54800  1.0000
  Rb  Rb8       1.0  0.25000  0.73600  0.59400  1.0000
  Rb  Rb9       1.0  0.74400  0.76800  0.71200  1.0000
  Rb  Rb10      1.0  0.24600  0.28300  0.75900  1.0000
  Rb  Rb11      1.0  0.75100  0.22500  0.87600  1.0000
  Rb  Rb12      1.0  0.24200  0.72400  0.93200  1.0000
