data_image0
_chemical_formula_structural       Cl16Cu10H16K4O12
_chemical_formula_sum              "Cl16 Cu10 H16 K4 O12"
_cell_length_a       11.4651
_cell_length_b       6.55809
_cell_length_c       11.6549
_cell_angle_alpha    90
_cell_angle_beta     91.2031
_cell_angle_gamma    90

_space_group_name_H-M_alt    "P 1"
_space_group_IT_number       1

loop_
  _space_group_symop_operation_xyz
  'x, y, z'

loop_
  _atom_site_type_symbol
  _atom_site_label
  _atom_site_symmetry_multiplicity
  _atom_site_fract_x
  _atom_site_fract_y
  _atom_site_fract_z
  _atom_site_occupancy
  Cl  Cl1       1.0  0.36900  0.13000  0.07770  1.0000
  Cl  Cl2       1.0  0.14000  0.64200  0.09260  1.0000
  Cl  Cl3       1.0  0.63800  0.40500  0.13100  1.0000
  Cl  Cl4       1.0  0.84000  0.88000  0.16700  1.0000
  Cl  Cl5       1.0  0.16000  0.38000  0.33300  1.0000
  Cl  Cl6       1.0  0.36200  0.90500  0.36900  1.0000
  Cl  Cl7       1.0  0.86000  0.14200  0.40700  1.0000
  Cl  Cl8       1.0  0.63100  0.63000  0.42200  1.0000
  Cl  Cl9       1.0  0.36900  0.37000  0.57800  1.0000
  Cl  Cl10      1.0  0.14000  0.85800  0.59300  1.0000
  Cl  Cl11      1.0  0.63800  0.09510  0.63100  1.0000
  Cl  Cl12      1.0  0.84000  0.62000  0.66700  1.0000
  Cl  Cl13      1.0  0.16000  0.12000  0.83300  1.0000
  Cl  Cl14      1.0  0.36200  0.59500  0.86900  1.0000
  Cl  Cl15      1.0  0.86000  0.35800  0.90700  1.0000
  Cl  Cl16      1.0  0.63100  0.87000  0.92200  1.0000
  Cu  Cu1       1.0  0.50000  0.50000  0.00000  1.0000
  Cu  Cu2       1.0  0.27700  0.50100  0.20100  1.0000
  Cu  Cu3       1.0  0.48400  0.15600  0.23700  1.0000
  Cu  Cu4       1.0  0.51600  0.65600  0.26300  1.0000
  Cu  Cu5       1.0  0.72300  0.00135  0.29900  1.0000
  Cu  Cu6       1.0  0.50000  0.00000  0.50000  1.0000
  Cu  Cu7       1.0  0.27700  0.99900  0.70100  1.0000
  Cu  Cu8       1.0  0.48400  0.34400  0.73700  1.0000
  Cu  Cu9       1.0  0.51600  0.84400  0.76300  1.0000
  Cu  Cu10      1.0  0.72300  0.49900  0.79900  1.0000
  H   H1        1.0  0.13500  0.14100  0.04890  1.0000
  H   H2        1.0  0.03900  0.98500  0.07900  1.0000
  H   H3        1.0  0.38300  0.77400  0.09200  1.0000
  H   H4        1.0  0.60600  0.89800  0.12400  1.0000
  H   H5        1.0  0.39400  0.39800  0.37600  1.0000
  H   H6        1.0  0.61700  0.27400  0.40800  1.0000
  H   H7        1.0  0.96100  0.48500  0.42100  1.0000
  H   H8        1.0  0.86500  0.64100  0.45100  1.0000
  H   H9        1.0  0.13500  0.35900  0.54900  1.0000
  H   H10       1.0  0.03900  0.51500  0.57900  1.0000
  H   H11       1.0  0.38300  0.72600  0.59200  1.0000
  H   H12       1.0  0.60600  0.60200  0.62400  1.0000
  H   H13       1.0  0.39400  0.10200  0.87600  1.0000
  H   H14       1.0  0.61700  0.22600  0.90800  1.0000
  H   H15       1.0  0.96100  0.01460  0.92100  1.0000
  H   H16       1.0  0.86500  0.85900  0.95100  1.0000
  K   K1        1.0  0.91200  0.41100  0.17600  1.0000
  K   K2        1.0  0.08780  0.91100  0.32400  1.0000
  K   K3        1.0  0.91200  0.08900  0.67600  1.0000
  K   K4        1.0  0.08780  0.58900  0.82400  1.0000
  O   O1        1.0  0.06380  0.12600  0.09400  1.0000
  O   O2        1.0  0.40900  0.63900  0.12200  1.0000
  O   O3        1.0  0.58500  0.91400  0.20600  1.0000
  O   O4        1.0  0.41500  0.41400  0.29400  1.0000
  O   O5        1.0  0.59100  0.13900  0.37800  1.0000
  O   O6        1.0  0.93600  0.62600  0.40600  1.0000
  O   O7        1.0  0.06380  0.37400  0.59400  1.0000
  O   O8        1.0  0.40900  0.86100  0.62200  1.0000
  O   O9        1.0  0.58500  0.58600  0.70600  1.0000
  O   O10       1.0  0.41500  0.08640  0.79400  1.0000
  O   O11       1.0  0.59100  0.36100  0.87800  1.0000
  O   O12       1.0  0.93600  0.87400  0.90600  1.0000
