data_image0
_chemical_formula_structural       Al3B4GdO12
_chemical_formula_sum              "Al3 B4 Gd1 O12"
_cell_length_a       5.88668
_cell_length_b       5.88668
_cell_length_c       5.88669
_cell_angle_alpha    104.489
_cell_angle_beta     104.489
_cell_angle_gamma    104.489

_space_group_name_H-M_alt    "P 1"
_space_group_IT_number       1

loop_
  _space_group_symop_operation_xyz
  'x, y, z'

loop_
  _atom_site_type_symbol
  _atom_site_label
  _atom_site_symmetry_multiplicity
  _atom_site_fract_x
  _atom_site_fract_y
  _atom_site_fract_z
  _atom_site_occupancy
  Al  Al1       1.0  0.55600  0.44400  0.00000  1.0000
  Al  Al2       1.0  0.00000  0.55600  0.44400  1.0000
  Al  Al3       1.0  0.44400  0.00000  0.55600  1.0000
  B   B1        1.0  0.50000  0.94200  0.05770  1.0000
  B   B2        1.0  0.94200  0.05770  0.50000  1.0000
  B   B3        1.0  0.50000  0.50000  0.50000  1.0000
  B   B4        1.0  0.05770  0.50000  0.94200  1.0000
  Gd  Gd1       1.0  0.00000  0.00000  0.00000  1.0000
  O   O1        1.0  0.62700  0.77700  0.02880  1.0000
  O   O2        1.0  0.90900  0.50000  0.09090  1.0000
  O   O3        1.0  0.37300  0.97100  0.22300  1.0000
  O   O4        1.0  0.64900  0.50000  0.35100  1.0000
  O   O5        1.0  0.97100  0.22300  0.37300  1.0000
  O   O6        1.0  0.35100  0.64900  0.50000  1.0000
  O   O7        1.0  0.09090  0.90900  0.50000  1.0000
  O   O8        1.0  0.77700  0.02880  0.62700  1.0000
  O   O9        1.0  0.50000  0.35100  0.64900  1.0000
  O   O10       1.0  0.02880  0.62700  0.77700  1.0000
  O   O11       1.0  0.50000  0.09090  0.90900  1.0000
  O   O12       1.0  0.22300  0.37300  0.97100  1.0000
