data_image0
_chemical_formula_structural       B6H36Li12N6
_chemical_formula_sum              "B6 H36 Li12 N6"
_cell_length_a       8.59984
_cell_length_b       8.59984
_cell_length_c       8.59984
_cell_angle_alpha    109.893
_cell_angle_beta     109.893
_cell_angle_gamma    109.893

_space_group_name_H-M_alt    "P 1"
_space_group_IT_number       1

loop_
  _space_group_symop_operation_xyz
  'x, y, z'

loop_
  _atom_site_type_symbol
  _atom_site_label
  _atom_site_symmetry_multiplicity
  _atom_site_fract_x
  _atom_site_fract_y
  _atom_site_fract_z
  _atom_site_occupancy
  B   B1        1.0  0.09660  0.25600  0.67000  1.0000
  B   B2        1.0  0.25600  0.67000  0.09660  1.0000
  B   B3        1.0  0.67000  0.09660  0.25600  1.0000
  B   B4        1.0  0.90300  0.74400  0.33000  1.0000
  B   B5        1.0  0.74400  0.33000  0.90300  1.0000
  B   B6        1.0  0.33000  0.90300  0.74400  1.0000
  H   H1        1.0  0.24700  0.27200  0.77400  1.0000
  H   H2        1.0  0.27200  0.77400  0.24700  1.0000
  H   H3        1.0  0.77400  0.24700  0.27200  1.0000
  H   H4        1.0  0.75300  0.72800  0.22600  1.0000
  H   H5        1.0  0.72800  0.22600  0.75300  1.0000
  H   H6        1.0  0.22600  0.75300  0.72800  1.0000
  H   H7        1.0  0.13000  0.41500  0.69300  1.0000
  H   H8        1.0  0.41500  0.69300  0.13000  1.0000
  H   H9        1.0  0.69300  0.13000  0.41500  1.0000
  H   H10       1.0  0.87000  0.58500  0.30700  1.0000
  H   H11       1.0  0.58500  0.30700  0.87000  1.0000
  H   H12       1.0  0.30700  0.87000  0.58500  1.0000
  H   H13       1.0  0.03820  0.15300  0.49900  1.0000
  H   H14       1.0  0.15300  0.49900  0.03820  1.0000
  H   H15       1.0  0.49900  0.03820  0.15300  1.0000
  H   H16       1.0  0.96200  0.84700  0.50100  1.0000
  H   H17       1.0  0.84700  0.50100  0.96200  1.0000
  H   H18       1.0  0.50100  0.96200  0.84700  1.0000
  H   H19       1.0  0.68200  0.73400  0.89500  1.0000
  H   H20       1.0  0.73400  0.89500  0.68200  1.0000
  H   H21       1.0  0.89500  0.68200  0.73400  1.0000
  H   H22       1.0  0.31800  0.26600  0.10500  1.0000
  H   H23       1.0  0.26600  0.10500  0.31800  1.0000
  H   H24       1.0  0.10500  0.31800  0.26600  1.0000
  H   H25       1.0  0.97700  0.19000  0.71000  1.0000
  H   H26       1.0  0.19000  0.71000  0.97700  1.0000
  H   H27       1.0  0.71000  0.97700  0.19000  1.0000
  H   H28       1.0  0.02330  0.81000  0.29000  1.0000
  H   H29       1.0  0.81000  0.29000  0.02330  1.0000
  H   H30       1.0  0.29000  0.02330  0.81000  1.0000
  H   H31       1.0  0.42500  0.09080  0.46700  1.0000
  H   H32       1.0  0.09080  0.46700  0.42500  1.0000
  H   H33       1.0  0.46700  0.42500  0.09080  1.0000
  H   H34       1.0  0.57500  0.90900  0.53300  1.0000
  H   H35       1.0  0.90900  0.53300  0.57500  1.0000
  H   H36       1.0  0.53300  0.57500  0.90900  1.0000
  Li  Li1       1.0  0.29900  0.37800  0.56400  1.0000
  Li  Li2       1.0  0.37800  0.56400  0.29900  1.0000
  Li  Li3       1.0  0.56400  0.29900  0.37800  1.0000
  Li  Li4       1.0  0.70100  0.62200  0.43600  1.0000
  Li  Li5       1.0  0.62200  0.43600  0.70100  1.0000
  Li  Li6       1.0  0.43600  0.70100  0.62200  1.0000
  Li  Li7       1.0  0.78400  0.95300  0.43700  1.0000
  Li  Li8       1.0  0.95300  0.43700  0.78400  1.0000
  Li  Li9       1.0  0.43700  0.78400  0.95300  1.0000
  Li  Li10      1.0  0.21600  0.04740  0.56300  1.0000
  Li  Li11      1.0  0.04740  0.56300  0.21600  1.0000
  Li  Li12      1.0  0.56300  0.21600  0.04740  1.0000
  N   N1        1.0  0.53900  0.62600  0.81800  1.0000
  N   N2        1.0  0.62600  0.81800  0.53900  1.0000
  N   N3        1.0  0.81800  0.53900  0.62600  1.0000
  N   N4        1.0  0.46100  0.37400  0.18200  1.0000
  N   N5        1.0  0.37400  0.18200  0.46100  1.0000
  N   N6        1.0  0.18200  0.46100  0.37400  1.0000
