data_image0
_chemical_formula_structural       Cs12P8S32Sm4
_chemical_formula_sum              "Cs12 P8 S32 Sm4"
_cell_length_a       15.5344
_cell_length_b       6.97619
_cell_length_c       15.625
_cell_angle_alpha    90
_cell_angle_beta     99.6432
_cell_angle_gamma    90

_space_group_name_H-M_alt    "P 1"
_space_group_IT_number       1

loop_
  _space_group_symop_operation_xyz
  'x, y, z'

loop_
  _atom_site_type_symbol
  _atom_site_label
  _atom_site_symmetry_multiplicity
  _atom_site_fract_x
  _atom_site_fract_y
  _atom_site_fract_z
  _atom_site_occupancy
  Cs  Cs1       1.0  0.60700  0.75500  0.02460  1.0000
  Cs  Cs2       1.0  0.04790  0.24600  0.10900  1.0000
  Cs  Cs3       1.0  0.27700  0.74100  0.12200  1.0000
  Cs  Cs4       1.0  0.22300  0.24100  0.37800  1.0000
  Cs  Cs5       1.0  0.45200  0.74600  0.39100  1.0000
  Cs  Cs6       1.0  0.89300  0.25500  0.47500  1.0000
  Cs  Cs7       1.0  0.10700  0.74500  0.52500  1.0000
  Cs  Cs8       1.0  0.54800  0.25400  0.60900  1.0000
  Cs  Cs9       1.0  0.77700  0.75900  0.62200  1.0000
  Cs  Cs10      1.0  0.72300  0.25900  0.87800  1.0000
  Cs  Cs11      1.0  0.95200  0.75400  0.89100  1.0000
  Cs  Cs12      1.0  0.39300  0.24500  0.97500  1.0000
  P   P1        1.0  0.78200  0.22600  0.13000  1.0000
  P   P2        1.0  0.41700  0.24400  0.22500  1.0000
  P   P3        1.0  0.08280  0.74400  0.27500  1.0000
  P   P4        1.0  0.71800  0.72600  0.37000  1.0000
  P   P5        1.0  0.28200  0.27400  0.63000  1.0000
  P   P6        1.0  0.91700  0.25600  0.72500  1.0000
  P   P7        1.0  0.58300  0.75600  0.77500  1.0000
  P   P8        1.0  0.21800  0.77400  0.87000  1.0000
  S   S1        1.0  0.83100  0.99300  0.07190  1.0000
  S   S2        1.0  0.65000  0.25100  0.09300  1.0000
  S   S3        1.0  0.84300  0.46900  0.09610  1.0000
  S   S4        1.0  0.04960  0.74800  0.14200  1.0000
  S   S5        1.0  0.28900  0.23800  0.17400  1.0000
  S   S6        1.0  0.47700  0.48800  0.18500  1.0000
  S   S7        1.0  0.48400  0.01120  0.18700  1.0000
  S   S8        1.0  0.69800  0.66100  0.23900  1.0000
  S   S9        1.0  0.80200  0.16100  0.26100  1.0000
  S   S10       1.0  0.01630  0.51100  0.31300  1.0000
  S   S11       1.0  0.02300  0.98800  0.31500  1.0000
  S   S12       1.0  0.21100  0.73800  0.32600  1.0000
  S   S13       1.0  0.45000  0.24800  0.35800  1.0000
  S   S14       1.0  0.65700  0.96900  0.40400  1.0000
  S   S15       1.0  0.85000  0.75100  0.40700  1.0000
  S   S16       1.0  0.66900  0.49300  0.42800  1.0000
  S   S17       1.0  0.33100  0.50700  0.57200  1.0000
  S   S18       1.0  0.15000  0.24900  0.59300  1.0000
  S   S19       1.0  0.34300  0.03080  0.59600  1.0000
  S   S20       1.0  0.55000  0.75200  0.64200  1.0000
  S   S21       1.0  0.78900  0.26200  0.67400  1.0000
  S   S22       1.0  0.97700  0.01230  0.68500  1.0000
  S   S23       1.0  0.98400  0.48900  0.68700  1.0000
  S   S24       1.0  0.19800  0.83900  0.73900  1.0000
  S   S25       1.0  0.30200  0.33900  0.76100  1.0000
  S   S26       1.0  0.51600  0.98900  0.81300  1.0000
  S   S27       1.0  0.52300  0.51200  0.81500  1.0000
  S   S28       1.0  0.71100  0.76200  0.82600  1.0000
  S   S29       1.0  0.95000  0.25200  0.85800  1.0000
  S   S30       1.0  0.15700  0.53100  0.90400  1.0000
  S   S31       1.0  0.35000  0.74900  0.90700  1.0000
  S   S32       1.0  0.16900  0.00690  0.92800  1.0000
  Sm  Sm1       1.0  0.87700  0.76800  0.22900  1.0000
  Sm  Sm2       1.0  0.62300  0.26800  0.27100  1.0000
  Sm  Sm3       1.0  0.37700  0.73200  0.72900  1.0000
  Sm  Sm4       1.0  0.12300  0.23200  0.77100  1.0000
