data_image0
_chemical_formula_structural       H12K8O30P8
_chemical_formula_sum              "H12 K8 O30 P8"
_cell_length_a       6.80727
_cell_length_b       9.40933
_cell_length_c       12.5088
_cell_angle_alpha    90.9215
_cell_angle_beta     105.789
_cell_angle_gamma    111.206

_space_group_name_H-M_alt    "P 1"
_space_group_IT_number       1

loop_
  _space_group_symop_operation_xyz
  'x, y, z'

loop_
  _atom_site_type_symbol
  _atom_site_label
  _atom_site_symmetry_multiplicity
  _atom_site_fract_x
  _atom_site_fract_y
  _atom_site_fract_z
  _atom_site_occupancy
  H   H1        1.0  0.41400  0.32100  0.04050  1.0000
  H   H2        1.0  0.36400  0.97200  0.14500  1.0000
  H   H3        1.0  0.68000  0.31400  0.21100  1.0000
  H   H4        1.0  0.65400  0.18600  0.28900  1.0000
  H   H5        1.0  0.74700  0.52800  0.35500  1.0000
  H   H6        1.0  0.55200  0.17900  0.45900  1.0000
  H   H7        1.0  0.44800  0.82100  0.54100  1.0000
  H   H8        1.0  0.25300  0.47200  0.64500  1.0000
  H   H9        1.0  0.34600  0.81400  0.71100  1.0000
  H   H10       1.0  0.32000  0.68600  0.78900  1.0000
  H   H11       1.0  0.63600  0.02820  0.85500  1.0000
  H   H12       1.0  0.58600  0.67900  0.95900  1.0000
  K   K1        1.0  0.90500  0.13600  0.09880  1.0000
  K   K2        1.0  0.94000  0.58100  0.12500  1.0000
  K   K3        1.0  0.73500  0.91900  0.37500  1.0000
  K   K4        1.0  0.17000  0.36400  0.40100  1.0000
  K   K5        1.0  0.83000  0.63600  0.59900  1.0000
  K   K6        1.0  0.26500  0.08120  0.62500  1.0000
  K   K7        1.0  0.05950  0.41900  0.87500  1.0000
  K   K8        1.0  0.09480  0.86400  0.90100  1.0000
  O   O1        1.0  0.25200  0.67200  0.01970  1.0000
  O   O2        1.0  0.66400  0.75400  0.03570  1.0000
  O   O3        1.0  0.54000  0.92600  0.13500  1.0000
  O   O4        1.0  0.53800  0.42500  0.14100  1.0000
  O   O5        1.0  0.23200  0.99900  0.15600  1.0000
  O   O6        1.0  0.20400  0.42900  0.19800  1.0000
  O   O7        1.0  0.53400  0.68000  0.20600  1.0000
  O   O8        1.0  0.75700  0.25000  0.25000  1.0000
  O   O9        1.0  0.14700  0.82000  0.29400  1.0000
  O   O10       1.0  0.07690  0.07060  0.30200  1.0000
  O   O11       1.0  0.57700  0.50100  0.34400  1.0000
  O   O12       1.0  0.47200  0.07490  0.35900  1.0000
  O   O13       1.0  0.97900  0.57400  0.36500  1.0000
  O   O14       1.0  0.37400  0.74600  0.46400  1.0000
  O   O15       1.0  0.06060  0.82800  0.48000  1.0000
  O   O16       1.0  0.93900  0.17200  0.52000  1.0000
  O   O17       1.0  0.62600  0.25400  0.53600  1.0000
  O   O18       1.0  0.02080  0.42600  0.63500  1.0000
  O   O19       1.0  0.52800  0.92500  0.64100  1.0000
  O   O20       1.0  0.42300  0.49900  0.65600  1.0000
  O   O21       1.0  0.92300  0.92900  0.69800  1.0000
  O   O22       1.0  0.85300  0.18000  0.70600  1.0000
  O   O23       1.0  0.24300  0.75000  0.75000  1.0000
  O   O24       1.0  0.46600  0.32000  0.79400  1.0000
  O   O25       1.0  0.79600  0.57100  0.80200  1.0000
  O   O26       1.0  0.76800  0.00061  0.84400  1.0000
  O   O27       1.0  0.46200  0.57500  0.85900  1.0000
  O   O28       1.0  0.46000  0.07400  0.86500  1.0000
  O   O29       1.0  0.33600  0.24600  0.96400  1.0000
  O   O30       1.0  0.74800  0.32800  0.98000  1.0000
  P   P1        1.0  0.48400  0.76000  0.09160  1.0000
  P   P2        1.0  0.44800  0.49600  0.21700  1.0000
  P   P3        1.0  0.23400  0.00386  0.28300  1.0000
  P   P4        1.0  0.13200  0.74000  0.40800  1.0000
  P   P5        1.0  0.86800  0.26000  0.59200  1.0000
  P   P6        1.0  0.76600  0.99600  0.71700  1.0000
  P   P7        1.0  0.55200  0.50400  0.78300  1.0000
  P   P8        1.0  0.51600  0.24000  0.90800  1.0000
