data_image0
_chemical_formula_structural       As2H28Na6O20S2
_chemical_formula_sum              "As2 H28 Na6 O20 S2"
_cell_length_a       6.60923
_cell_length_b       6.8194
_cell_length_c       12.0599
_cell_angle_alpha    89.9975
_cell_angle_beta     89.9994
_cell_angle_gamma    91.0937

_space_group_name_H-M_alt    "P 1"
_space_group_IT_number       1

loop_
  _space_group_symop_operation_xyz
  'x, y, z'

loop_
  _atom_site_type_symbol
  _atom_site_label
  _atom_site_symmetry_multiplicity
  _atom_site_fract_x
  _atom_site_fract_y
  _atom_site_fract_z
  _atom_site_occupancy
  As  As1       1.0  0.19700  0.19100  0.34300  1.0000
  As  As2       1.0  0.80300  0.80900  0.84300  1.0000
  H   H1        1.0  0.00857  0.68800  0.03650  1.0000
  H   H2        1.0  0.64400  0.00240  0.04830  1.0000
  H   H3        1.0  0.47600  0.59900  0.09860  1.0000
  H   H4        1.0  0.48400  0.05970  0.14000  1.0000
  H   H5        1.0  0.14000  0.65700  0.14600  1.0000
  H   H6        1.0  0.32700  0.82600  0.23600  1.0000
  H   H7        1.0  0.35400  0.59500  0.27000  1.0000
  H   H8        1.0  0.59100  0.41800  0.32300  1.0000
  H   H9        1.0  0.82500  0.36900  0.34800  1.0000
  H   H10       1.0  0.56900  0.98000  0.40200  1.0000
  H   H11       1.0  0.17700  0.58800  0.40300  1.0000
  H   H12       1.0  0.80600  0.04330  0.41000  1.0000
  H   H13       1.0  0.18700  0.82000  0.42200  1.0000
  H   H14       1.0  0.42500  0.44600  0.47900  1.0000
  H   H15       1.0  0.99100  0.31200  0.53600  1.0000
  H   H16       1.0  0.35600  0.99800  0.54800  1.0000
  H   H17       1.0  0.52300  0.40100  0.59900  1.0000
  H   H18       1.0  0.51600  0.94000  0.64000  1.0000
  H   H19       1.0  0.86000  0.34300  0.64600  1.0000
  H   H20       1.0  0.67300  0.17400  0.73600  1.0000
  H   H21       1.0  0.64600  0.40500  0.77000  1.0000
  H   H22       1.0  0.40900  0.58200  0.82300  1.0000
  H   H23       1.0  0.17500  0.63100  0.84800  1.0000
  H   H24       1.0  0.43100  0.02000  0.90200  1.0000
  H   H25       1.0  0.82300  0.41200  0.90300  1.0000
  H   H26       1.0  0.19400  0.95700  0.91000  1.0000
  H   H27       1.0  0.81300  0.18000  0.92200  1.0000
  H   H28       1.0  0.57500  0.55400  0.97900  1.0000
  Na  Na1       1.0  0.80100  0.33700  0.12800  1.0000
  Na  Na2       1.0  0.77800  0.78500  0.23300  1.0000
  Na  Na3       1.0  0.78000  0.64700  0.49300  1.0000
  Na  Na4       1.0  0.19900  0.66300  0.62800  1.0000
  Na  Na5       1.0  0.22200  0.21500  0.73300  1.0000
  Na  Na6       1.0  0.22000  0.35300  0.99200  1.0000
  O   O1        1.0  0.52200  0.49300  0.04870  1.0000
  O   O2        1.0  0.00889  0.61900  0.11100  1.0000
  O   O3        1.0  0.63000  0.03620  0.12900  1.0000
  O   O4        1.0  0.38300  0.70000  0.21300  1.0000
  O   O5        1.0  0.73200  0.46400  0.30900  1.0000
  O   O6        1.0  0.33700  0.40900  0.35100  1.0000
  O   O7        1.0  0.71000  0.92900  0.40100  1.0000
  O   O8        1.0  0.97400  0.23100  0.41300  1.0000
  O   O9        1.0  0.32800  0.01720  0.41500  1.0000
  O   O10       1.0  0.09990  0.69900  0.43400  1.0000
  O   O11       1.0  0.47800  0.50700  0.54900  1.0000
  O   O12       1.0  0.99100  0.38100  0.61100  1.0000
  O   O13       1.0  0.37000  0.96400  0.62900  1.0000
  O   O14       1.0  0.61700  0.30000  0.71300  1.0000
  O   O15       1.0  0.26800  0.53600  0.80900  1.0000
  O   O16       1.0  0.66300  0.59100  0.85100  1.0000
  O   O17       1.0  0.29000  0.07070  0.90100  1.0000
  O   O18       1.0  0.02620  0.76900  0.91300  1.0000
  O   O19       1.0  0.67200  0.98300  0.91500  1.0000
  O   O20       1.0  0.90000  0.30100  0.93400  1.0000
  S   S1        1.0  0.14700  0.09380  0.17700  1.0000
  S   S2        1.0  0.85300  0.90600  0.67700  1.0000
