data_image0
_chemical_formula_structural       C12Cr4K12N12O16
_chemical_formula_sum              "C12 Cr4 K12 N12 O16"
_cell_length_a       11.3737
_cell_length_b       7.51417
_cell_length_c       11.8748
_cell_angle_alpha    90
_cell_angle_beta     110.886
_cell_angle_gamma    90.0001

_space_group_name_H-M_alt    "P 1"
_space_group_IT_number       1

loop_
  _space_group_symop_operation_xyz
  'x, y, z'

loop_
  _atom_site_type_symbol
  _atom_site_label
  _atom_site_symmetry_multiplicity
  _atom_site_fract_x
  _atom_site_fract_y
  _atom_site_fract_z
  _atom_site_occupancy
  C   C1        1.0  0.94500  0.47800  0.16200  1.0000
  C   C2        1.0  0.44500  0.52200  0.16200  1.0000
  C   C3        1.0  0.11700  0.99200  0.28800  1.0000
  C   C4        1.0  0.61700  0.00805  0.28800  1.0000
  C   C5        1.0  0.99700  0.27000  0.37700  1.0000
  C   C6        1.0  0.49700  0.73000  0.37700  1.0000
  C   C7        1.0  0.00322  0.73000  0.62300  1.0000
  C   C8        1.0  0.50300  0.27000  0.62300  1.0000
  C   C9        1.0  0.88300  0.00806  0.71200  1.0000
  C   C10       1.0  0.38300  0.99200  0.71200  1.0000
  C   C11       1.0  0.55500  0.47800  0.83800  1.0000
  C   C12       1.0  0.05500  0.52200  0.83800  1.0000
  Cr  Cr1       1.0  0.53000  0.76500  0.22100  1.0000
  Cr  Cr2       1.0  0.03030  0.23500  0.22100  1.0000
  Cr  Cr3       1.0  0.47000  0.23500  0.77900  1.0000
  Cr  Cr4       1.0  0.97000  0.76500  0.77900  1.0000
  K   K1        1.0  0.25000  0.12800  0.00000  1.0000
  K   K2        1.0  0.75000  0.87200  0.00000  1.0000
  K   K3        1.0  0.16900  0.64800  0.12600  1.0000
  K   K4        1.0  0.66900  0.35200  0.12600  1.0000
  K   K5        1.0  0.38300  0.14100  0.32400  1.0000
  K   K6        1.0  0.88300  0.85900  0.32400  1.0000
  K   K7        1.0  0.75000  0.41400  0.50000  1.0000
  K   K8        1.0  0.25000  0.58600  0.50000  1.0000
  K   K9        1.0  0.61700  0.85900  0.67600  1.0000
  K   K10       1.0  0.11700  0.14100  0.67600  1.0000
  K   K11       1.0  0.33100  0.64800  0.87400  1.0000
  K   K12       1.0  0.83100  0.35200  0.87400  1.0000
  N   N1        1.0  0.90300  0.61800  0.12600  1.0000
  N   N2        1.0  0.40300  0.38200  0.12600  1.0000
  N   N3        1.0  0.16600  0.85500  0.32600  1.0000
  N   N4        1.0  0.66600  0.14500  0.32600  1.0000
  N   N5        1.0  0.97100  0.28600  0.46300  1.0000
  N   N6        1.0  0.47100  0.71400  0.46300  1.0000
  N   N7        1.0  0.52900  0.28600  0.53700  1.0000
  N   N8        1.0  0.02880  0.71400  0.53700  1.0000
  N   N9        1.0  0.33400  0.85500  0.67400  1.0000
  N   N10       1.0  0.83400  0.14500  0.67400  1.0000
  N   N11       1.0  0.09730  0.38200  0.87400  1.0000
  N   N12       1.0  0.59700  0.61800  0.87400  1.0000
  O   O1        1.0  0.92900  0.12800  0.07140  1.0000
  O   O2        1.0  0.42900  0.87300  0.07140  1.0000
  O   O3        1.0  0.86600  0.12400  0.15900  1.0000
  O   O4        1.0  0.36600  0.87600  0.15900  1.0000
  O   O5        1.0  0.16600  0.29700  0.17000  1.0000
  O   O6        1.0  0.66600  0.70300  0.17000  1.0000
  O   O7        1.0  0.68900  0.64000  0.29200  1.0000
  O   O8        1.0  0.18900  0.36000  0.29200  1.0000
  O   O9        1.0  0.81100  0.64000  0.70800  1.0000
  O   O10       1.0  0.31100  0.36000  0.70800  1.0000
  O   O11       1.0  0.33400  0.29700  0.83000  1.0000
  O   O12       1.0  0.83400  0.70300  0.83000  1.0000
  O   O13       1.0  0.63400  0.12400  0.84100  1.0000
  O   O14       1.0  0.13400  0.87600  0.84100  1.0000
  O   O15       1.0  0.57100  0.12700  0.92900  1.0000
  O   O16       1.0  0.07150  0.87300  0.92900  1.0000
