data_image0
_chemical_formula_structural       C20Fe4O20Se2Te2W2
_chemical_formula_sum              "C20 Fe4 O20 Se2 Te2 W2"
_cell_length_a       6.59879
_cell_length_b       9.21221
_cell_length_c       13.2272
_cell_angle_alpha    81.1336
_cell_angle_beta     81.9316
_cell_angle_gamma    85.0285

_space_group_name_H-M_alt    "P 1"
_space_group_IT_number       1

loop_
  _space_group_symop_operation_xyz
  'x, y, z'

loop_
  _atom_site_type_symbol
  _atom_site_label
  _atom_site_symmetry_multiplicity
  _atom_site_fract_x
  _atom_site_fract_y
  _atom_site_fract_z
  _atom_site_occupancy
  C   C1        1.0  0.20900  0.24800  0.05910  1.0000
  C   C2        1.0  0.58100  0.15300  0.06700  1.0000
  C   C3        1.0  0.64600  0.39400  0.13300  1.0000
  C   C4        1.0  0.27200  0.48300  0.13300  1.0000
  C   C5        1.0  0.07930  0.94900  0.20900  1.0000
  C   C6        1.0  0.45200  0.85700  0.22000  1.0000
  C   C7        1.0  0.20100  0.50200  0.36300  1.0000
  C   C8        1.0  0.57600  0.42100  0.37600  1.0000
  C   C9        1.0  0.22000  0.90600  0.39500  1.0000
  C   C10       1.0  0.29500  0.25800  0.49600  1.0000
  C   C11       1.0  0.70500  0.74200  0.50400  1.0000
  C   C12       1.0  0.78000  0.09360  0.60500  1.0000
  C   C13       1.0  0.42400  0.57900  0.62400  1.0000
  C   C14       1.0  0.79900  0.49800  0.63700  1.0000
  C   C15       1.0  0.54800  0.14300  0.78000  1.0000
  C   C16       1.0  0.92100  0.05060  0.79100  1.0000
  C   C17       1.0  0.72800  0.51700  0.86700  1.0000
  C   C18       1.0  0.35400  0.60600  0.86700  1.0000
  C   C19       1.0  0.41900  0.84700  0.93300  1.0000
  C   C20       1.0  0.79100  0.75200  0.94100  1.0000
  Fe  Fe1       1.0  0.28200  0.99600  0.27100  1.0000
  Fe  Fe2       1.0  0.35300  0.33400  0.36700  1.0000
  Fe  Fe3       1.0  0.64700  0.66600  0.63300  1.0000
  Fe  Fe4       1.0  0.71800  0.00357  0.72900  1.0000
  O   O1        1.0  0.09990  0.23100  0.00129  1.0000
  O   O2        1.0  0.68500  0.08530  0.01020  1.0000
  O   O3        1.0  0.20700  0.60400  0.11500  1.0000
  O   O4        1.0  0.78900  0.46400  0.11800  1.0000
  O   O5        1.0  0.94600  0.91600  0.17000  1.0000
  O   O6        1.0  0.55700  0.76200  0.18900  1.0000
  O   O7        1.0  0.10800  0.61400  0.36000  1.0000
  O   O8        1.0  0.72200  0.47700  0.38500  1.0000
  O   O9        1.0  0.73900  0.79300  0.41800  1.0000
  O   O10       1.0  0.18100  0.84700  0.47900  1.0000
  O   O11       1.0  0.81900  0.15300  0.52100  1.0000
  O   O12       1.0  0.26100  0.20700  0.58200  1.0000
  O   O13       1.0  0.27800  0.52300  0.61500  1.0000
  O   O14       1.0  0.89200  0.38600  0.64000  1.0000
  O   O15       1.0  0.44300  0.23800  0.81100  1.0000
  O   O16       1.0  0.05370  0.08350  0.83000  1.0000
  O   O17       1.0  0.21100  0.53600  0.88200  1.0000
  O   O18       1.0  0.79300  0.39600  0.88500  1.0000
  O   O19       1.0  0.31500  0.91500  0.99000  1.0000
  O   O20       1.0  0.90000  0.76900  0.99900  1.0000
  Se  Se1       1.0  0.09570  0.22000  0.30400  1.0000
  Se  Se2       1.0  0.90400  0.78000  0.69600  1.0000
  Te  Te1       1.0  0.58000  0.11200  0.32200  1.0000
  Te  Te2       1.0  0.42000  0.88800  0.67800  1.0000
  W   W1        1.0  0.39700  0.27500  0.16200  1.0000
  W   W2        1.0  0.60300  0.72500  0.83800  1.0000
