data_image0
_chemical_formula_structural       Ba42O10Si4
_chemical_formula_sum              "Ba42 O10 Si4"
_cell_length_a       14.9036
_cell_length_b       14.9036
_cell_length_c       14.9036
_cell_angle_alpha    120
_cell_angle_beta     90
_cell_angle_gamma    120

_space_group_name_H-M_alt    "P 1"
_space_group_IT_number       1

loop_
  _space_group_symop_operation_xyz
  'x, y, z'

loop_
  _atom_site_type_symbol
  _atom_site_label
  _atom_site_symmetry_multiplicity
  _atom_site_fract_x
  _atom_site_fract_y
  _atom_site_fract_z
  _atom_site_occupancy
  Ba  Ba1       1.0  0.00000  0.50000  0.00000  1.0000
  Ba  Ba2       1.0  0.49800  0.75000  0.00191  1.0000
  Ba  Ba3       1.0  0.75200  0.00382  0.00191  1.0000
  Ba  Ba4       1.0  0.75200  0.75000  0.00191  1.0000
  Ba  Ba5       1.0  0.06790  0.34100  0.17100  1.0000
  Ba  Ba6       1.0  0.77300  0.34100  0.17100  1.0000
  Ba  Ba7       1.0  0.32900  0.60300  0.17100  1.0000
  Ba  Ba8       1.0  0.77300  0.60300  0.17100  1.0000
  Ba  Ba9       1.0  0.32900  0.89700  0.17100  1.0000
  Ba  Ba10      1.0  0.06790  0.89700  0.17100  1.0000
  Ba  Ba11      1.0  0.50200  0.25000  0.25200  1.0000
  Ba  Ba12      1.0  0.50200  0.50400  0.25200  1.0000
  Ba  Ba13      1.0  0.24800  0.25000  0.25200  1.0000
  Ba  Ba14      1.0  0.67100  0.10300  0.27300  1.0000
  Ba  Ba15      1.0  0.67100  0.84100  0.27300  1.0000
  Ba  Ba16      1.0  0.93200  0.10300  0.27300  1.0000
  Ba  Ba17      1.0  0.12500  0.75000  0.37500  1.0000
  Ba  Ba18      1.0  0.32900  0.15900  0.43200  1.0000
  Ba  Ba19      1.0  0.32900  0.60300  0.43200  1.0000
  Ba  Ba20      1.0  0.77300  0.60300  0.43200  1.0000
  Ba  Ba21      1.0  0.00000  0.00000  0.50000  1.0000
  Ba  Ba22      1.0  0.00000  0.50000  0.50000  1.0000
  Ba  Ba23      1.0  0.50000  0.00000  0.50000  1.0000
  Ba  Ba24      1.0  0.67100  0.39700  0.56800  1.0000
  Ba  Ba25      1.0  0.67100  0.84100  0.56800  1.0000
  Ba  Ba26      1.0  0.22700  0.39700  0.56800  1.0000
  Ba  Ba27      1.0  0.87500  0.25000  0.62500  1.0000
  Ba  Ba28      1.0  0.06790  0.89700  0.72700  1.0000
  Ba  Ba29      1.0  0.32900  0.89700  0.72700  1.0000
  Ba  Ba30      1.0  0.32900  0.15900  0.72700  1.0000
  Ba  Ba31      1.0  0.75200  0.75000  0.74800  1.0000
  Ba  Ba32      1.0  0.49800  0.75000  0.74800  1.0000
  Ba  Ba33      1.0  0.49800  0.49600  0.74800  1.0000
  Ba  Ba34      1.0  0.93200  0.65900  0.82900  1.0000
  Ba  Ba35      1.0  0.93200  0.10300  0.82900  1.0000
  Ba  Ba36      1.0  0.67100  0.39700  0.82900  1.0000
  Ba  Ba37      1.0  0.22700  0.39700  0.82900  1.0000
  Ba  Ba38      1.0  0.22700  0.65900  0.82900  1.0000
  Ba  Ba39      1.0  0.67100  0.10300  0.82900  1.0000
  Ba  Ba40      1.0  0.24800  0.25000  0.99800  1.0000
  Ba  Ba41      1.0  0.24800  0.99600  0.99800  1.0000
  Ba  Ba42      1.0  0.50200  0.25000  0.99800  1.0000
  O   O1        1.0  0.37500  0.25000  0.12500  1.0000
  O   O2        1.0  0.71600  0.93300  0.14900  1.0000
  O   O3        1.0  0.28400  0.06730  0.21600  1.0000
  O   O4        1.0  0.28400  0.43300  0.21600  1.0000
  O   O5        1.0  0.64900  0.43300  0.21600  1.0000
  O   O6        1.0  0.71600  0.56700  0.78400  1.0000
  O   O7        1.0  0.71600  0.93300  0.78400  1.0000
  O   O8        1.0  0.35100  0.56700  0.78400  1.0000
  O   O9        1.0  0.28400  0.06730  0.85100  1.0000
  O   O10       1.0  0.62500  0.75000  0.87500  1.0000
  Si  Si1       1.0  0.00000  0.00000  0.00000  1.0000
  Si  Si2       1.0  0.50000  0.00000  0.00000  1.0000
  Si  Si3       1.0  0.50000  0.50000  0.00000  1.0000
  Si  Si4       1.0  0.50000  0.50000  0.50000  1.0000
