data_image0
_chemical_formula_structural       Ca2H12O32S4Sb8
_chemical_formula_sum              "Ca2 H12 O32 S4 Sb8"
_cell_length_a       5.5063
_cell_length_b       10.1182
_cell_length_c       12.491
_cell_angle_alpha    95.7643
_cell_angle_beta     102.733
_cell_angle_gamma    90

_space_group_name_H-M_alt    "P 1"
_space_group_IT_number       1

loop_
  _space_group_symop_operation_xyz
  'x, y, z'

loop_
  _atom_site_type_symbol
  _atom_site_label
  _atom_site_symmetry_multiplicity
  _atom_site_fract_x
  _atom_site_fract_y
  _atom_site_fract_z
  _atom_site_occupancy
  Ca  Ca1       1.0  0.30700  0.25000  0.00000  1.0000
  Ca  Ca2       1.0  0.69300  0.75000  0.00000  1.0000
  H   H1        1.0  0.15300  0.60900  0.10600  1.0000
  H   H2        1.0  0.95300  0.10900  0.10600  1.0000
  H   H3        1.0  0.21600  0.76500  0.11000  1.0000
  H   H4        1.0  0.89300  0.26500  0.11000  1.0000
  H   H5        1.0  0.18900  0.21900  0.23800  1.0000
  H   H6        1.0  0.04960  0.71900  0.23800  1.0000
  H   H7        1.0  0.81100  0.78100  0.76200  1.0000
  H   H8        1.0  0.95000  0.28100  0.76200  1.0000
  H   H9        1.0  0.78400  0.23500  0.89000  1.0000
  H   H10       1.0  0.10700  0.73500  0.89000  1.0000
  H   H11       1.0  0.84700  0.39100  0.89400  1.0000
  H   H12       1.0  0.04690  0.89100  0.89400  1.0000
  O   O1        1.0  0.40800  0.88500  0.09140  1.0000
  O   O2        1.0  0.68400  0.38500  0.09140  1.0000
  O   O3        1.0  0.08310  0.70000  0.11300  1.0000
  O   O4        1.0  0.02950  0.20000  0.11300  1.0000
  O   O5        1.0  0.83400  0.95600  0.12000  1.0000
  O   O6        1.0  0.28600  0.45600  0.12000  1.0000
  O   O7        1.0  0.62300  0.62200  0.14400  1.0000
  O   O8        1.0  0.52100  0.12200  0.14400  1.0000
  O   O9        1.0  0.64200  0.46600  0.27900  1.0000
  O   O10       1.0  0.63700  0.96600  0.27900  1.0000
  O   O11       1.0  0.26100  0.23200  0.32100  1.0000
  O   O12       1.0  0.05940  0.73200  0.32100  1.0000
  O   O13       1.0  0.92400  0.88400  0.47800  1.0000
  O   O14       1.0  0.55300  0.38400  0.47800  1.0000
  O   O15       1.0  0.55200  0.11300  0.47900  1.0000
  O   O16       1.0  0.92700  0.61300  0.47900  1.0000
  O   O17       1.0  0.44800  0.88700  0.52100  1.0000
  O   O18       1.0  0.07310  0.38700  0.52100  1.0000
  O   O19       1.0  0.07550  0.11600  0.52200  1.0000
  O   O20       1.0  0.44700  0.61600  0.52200  1.0000
  O   O21       1.0  0.73900  0.76800  0.67900  1.0000
  O   O22       1.0  0.94100  0.26800  0.67900  1.0000
  O   O23       1.0  0.36300  0.03420  0.72100  1.0000
  O   O24       1.0  0.35800  0.53400  0.72100  1.0000
  O   O25       1.0  0.37700  0.37800  0.85600  1.0000
  O   O26       1.0  0.47900  0.87800  0.85600  1.0000
  O   O27       1.0  0.16600  0.04360  0.88000  1.0000
  O   O28       1.0  0.71400  0.54400  0.88000  1.0000
  O   O29       1.0  0.97100  0.80000  0.88700  1.0000
  O   O30       1.0  0.91700  0.30000  0.88700  1.0000
  O   O31       1.0  0.59200  0.11500  0.90900  1.0000
  O   O32       1.0  0.31600  0.61500  0.90900  1.0000
  S   S1        1.0  0.59700  0.98300  0.15800  1.0000
  S   S2        1.0  0.56100  0.48300  0.15800  1.0000
  S   S3        1.0  0.40300  0.01710  0.84200  1.0000
  S   S4        1.0  0.43900  0.51700  0.84200  1.0000
  Sb  Sb1       1.0  0.73400  0.73400  0.36800  1.0000
  Sb  Sb2       1.0  0.63500  0.23400  0.36800  1.0000
  Sb  Sb3       1.0  0.20400  0.98700  0.41000  1.0000
  Sb  Sb4       1.0  0.20600  0.48700  0.41000  1.0000
  Sb  Sb5       1.0  0.79600  0.01330  0.59000  1.0000
  Sb  Sb6       1.0  0.79400  0.51300  0.59000  1.0000
  Sb  Sb7       1.0  0.26600  0.26600  0.63200  1.0000
  Sb  Sb8       1.0  0.36500  0.76600  0.63200  1.0000
