data_image0
_chemical_formula_structural       H32N2Ni2O20P2
_chemical_formula_sum              "H32 N2 Ni2 O20 P2"
_cell_length_a       6.77826
_cell_length_b       5.96381
_cell_length_c       10.9362
_cell_angle_alpha    90
_cell_angle_beta     90
_cell_angle_gamma    90

_space_group_name_H-M_alt    "P 1"
_space_group_IT_number       1

loop_
  _space_group_symop_operation_xyz
  'x, y, z'

loop_
  _atom_site_type_symbol
  _atom_site_label
  _atom_site_symmetry_multiplicity
  _atom_site_fract_x
  _atom_site_fract_y
  _atom_site_fract_z
  _atom_site_occupancy
  H   H1        1.0  0.25700  0.36500  0.00215  1.0000
  H   H2        1.0  0.74300  0.36500  0.00215  1.0000
  H   H3        1.0  0.17900  0.61800  0.01660  1.0000
  H   H4        1.0  0.82100  0.61800  0.01660  1.0000
  H   H5        1.0  0.50000  0.65000  0.13700  1.0000
  H   H6        1.0  0.20000  0.21100  0.17800  1.0000
  H   H7        1.0  0.80000  0.21100  0.17800  1.0000
  H   H8        1.0  0.00000  0.72400  0.20400  1.0000
  H   H9        1.0  0.37600  0.53100  0.25000  1.0000
  H   H10       1.0  0.62400  0.53100  0.25000  1.0000
  H   H11       1.0  0.50000  0.78100  0.27900  1.0000
  H   H12       1.0  0.32300  0.17500  0.30200  1.0000
  H   H13       1.0  0.67700  0.17500  0.30200  1.0000
  H   H14       1.0  0.00000  0.83200  0.34100  1.0000
  H   H15       1.0  0.12000  0.99700  0.49200  1.0000
  H   H16       1.0  0.88000  0.99700  0.49200  1.0000
  H   H17       1.0  0.24300  0.63500  0.50200  1.0000
  H   H18       1.0  0.75700  0.63500  0.50200  1.0000
  H   H19       1.0  0.32100  0.38200  0.51700  1.0000
  H   H20       1.0  0.67900  0.38200  0.51700  1.0000
  H   H21       1.0  0.00000  0.35000  0.63700  1.0000
  H   H22       1.0  0.30000  0.78900  0.67800  1.0000
  H   H23       1.0  0.70000  0.78900  0.67800  1.0000
  H   H24       1.0  0.50000  0.27600  0.70400  1.0000
  H   H25       1.0  0.12400  0.46900  0.75000  1.0000
  H   H26       1.0  0.87600  0.46900  0.75000  1.0000
  H   H27       1.0  0.00000  0.21900  0.77900  1.0000
  H   H28       1.0  0.17700  0.82500  0.80200  1.0000
  H   H29       1.0  0.82300  0.82500  0.80200  1.0000
  H   H30       1.0  0.50000  0.16800  0.84100  1.0000
  H   H31       1.0  0.38000  0.00341  0.99200  1.0000
  H   H32       1.0  0.62000  0.00341  0.99200  1.0000
  N   N1        1.0  0.50000  0.62800  0.23000  1.0000
  N   N2        1.0  0.00000  0.37200  0.73000  1.0000
  Ni  Ni1       1.0  0.00000  0.37600  0.37200  1.0000
  Ni  Ni2       1.0  0.50000  0.62400  0.87200  1.0000
  O   O1        1.0  0.18800  0.11900  0.04420  1.0000
  O   O2        1.0  0.81200  0.11900  0.04420  1.0000
  O   O3        1.0  0.00000  0.75700  0.05840  1.0000
  O   O4        1.0  0.22600  0.27800  0.26200  1.0000
  O   O5        1.0  0.77400  0.27800  0.26200  1.0000
  O   O6        1.0  0.00000  0.68900  0.29400  1.0000
  O   O7        1.0  0.50000  0.02480  0.36000  1.0000
  O   O8        1.0  0.00000  0.05250  0.44600  1.0000
  O   O9        1.0  0.20100  0.47500  0.49500  1.0000
  O   O10       1.0  0.79900  0.47500  0.49500  1.0000
  O   O11       1.0  0.31200  0.88100  0.54400  1.0000
  O   O12       1.0  0.68800  0.88100  0.54400  1.0000
  O   O13       1.0  0.50000  0.24300  0.55800  1.0000
  O   O14       1.0  0.27400  0.72200  0.76200  1.0000
  O   O15       1.0  0.72600  0.72200  0.76200  1.0000
  O   O16       1.0  0.50000  0.31100  0.79400  1.0000
  O   O17       1.0  0.00000  0.97500  0.86000  1.0000
  O   O18       1.0  0.50000  0.94800  0.94600  1.0000
  O   O19       1.0  0.29900  0.52500  0.99500  1.0000
  O   O20       1.0  0.70100  0.52500  0.99500  1.0000
  P   P1        1.0  0.00000  0.99500  0.00084  1.0000
  P   P2        1.0  0.50000  0.00542  0.50100  1.0000
