data_image0
_chemical_formula_structural       Na2Nb20O36
_chemical_formula_sum              "Na2 Nb20 O36"
_cell_length_a       7.88511
_cell_length_b       9.36559
_cell_length_c       10.3473
_cell_angle_alpha    90
_cell_angle_beta     110.367
_cell_angle_gamma    90

_space_group_name_H-M_alt    "P 1"
_space_group_IT_number       1

loop_
  _space_group_symop_operation_xyz
  'x, y, z'

loop_
  _atom_site_type_symbol
  _atom_site_label
  _atom_site_symmetry_multiplicity
  _atom_site_fract_x
  _atom_site_fract_y
  _atom_site_fract_z
  _atom_site_occupancy
  Na  Na1       1.0  0.00000  0.00000  0.00000  1.0000
  Na  Na2       1.0  0.00000  0.50000  0.50000  1.0000
  Nb  Nb1       1.0  0.80300  0.62700  0.02000  1.0000
  Nb  Nb2       1.0  0.60200  0.12900  0.06210  1.0000
  Nb  Nb3       1.0  0.18200  0.63000  0.12300  1.0000
  Nb  Nb4       1.0  0.00387  0.38300  0.16800  1.0000
  Nb  Nb5       1.0  0.60300  0.61400  0.22900  1.0000
  Nb  Nb6       1.0  0.39700  0.11400  0.27100  1.0000
  Nb  Nb7       1.0  0.99600  0.88300  0.33200  1.0000
  Nb  Nb8       1.0  0.81800  0.13000  0.37700  1.0000
  Nb  Nb9       1.0  0.39800  0.62900  0.43800  1.0000
  Nb  Nb10      1.0  0.19700  0.12700  0.48000  1.0000
  Nb  Nb11      1.0  0.80300  0.87300  0.52000  1.0000
  Nb  Nb12      1.0  0.60200  0.37100  0.56200  1.0000
  Nb  Nb13      1.0  0.18200  0.87000  0.62300  1.0000
  Nb  Nb14      1.0  0.00387  0.11700  0.66800  1.0000
  Nb  Nb15      1.0  0.60300  0.88600  0.72900  1.0000
  Nb  Nb16      1.0  0.39700  0.38600  0.77100  1.0000
  Nb  Nb17      1.0  0.99600  0.61700  0.83200  1.0000
  Nb  Nb18      1.0  0.81800  0.37000  0.87700  1.0000
  Nb  Nb19      1.0  0.39800  0.87100  0.93800  1.0000
  Nb  Nb20      1.0  0.19700  0.37300  0.98000  1.0000
  O   O1        1.0  0.80400  0.24600  0.03930  1.0000
  O   O2        1.0  0.58600  0.74600  0.06870  1.0000
  O   O3        1.0  0.39300  0.00535  0.09920  1.0000
  O   O4        1.0  0.40100  0.50200  0.10500  1.0000
  O   O5        1.0  0.20100  0.24500  0.14400  1.0000
  O   O6        1.0  0.99200  0.76300  0.15100  1.0000
  O   O7        1.0  0.79900  0.00997  0.19600  1.0000
  O   O8        1.0  0.80300  0.50500  0.19900  1.0000
  O   O9        1.0  0.58800  0.24000  0.22700  1.0000
  O   O10       1.0  0.41200  0.74000  0.27300  1.0000
  O   O11       1.0  0.19700  0.00502  0.30100  1.0000
  O   O12       1.0  0.20100  0.51000  0.30400  1.0000
  O   O13       1.0  0.00829  0.26300  0.34900  1.0000
  O   O14       1.0  0.79900  0.74500  0.35600  1.0000
  O   O15       1.0  0.59900  0.00191  0.39500  1.0000
  O   O16       1.0  0.60700  0.50500  0.40100  1.0000
  O   O17       1.0  0.41400  0.24600  0.43100  1.0000
  O   O18       1.0  0.19600  0.74600  0.46100  1.0000
  O   O19       1.0  0.80400  0.25400  0.53900  1.0000
  O   O20       1.0  0.58600  0.75400  0.56900  1.0000
  O   O21       1.0  0.39300  0.49500  0.59900  1.0000
  O   O22       1.0  0.40100  0.99800  0.60500  1.0000
  O   O23       1.0  0.20100  0.25500  0.64400  1.0000
  O   O24       1.0  0.99200  0.73700  0.65100  1.0000
  O   O25       1.0  0.79900  0.49000  0.69600  1.0000
  O   O26       1.0  0.80300  0.99500  0.69900  1.0000
  O   O27       1.0  0.58800  0.26000  0.72700  1.0000
  O   O28       1.0  0.41200  0.76000  0.77300  1.0000
  O   O29       1.0  0.19700  0.49500  0.80100  1.0000
  O   O30       1.0  0.20100  0.99000  0.80400  1.0000
  O   O31       1.0  0.00829  0.23700  0.84900  1.0000
  O   O32       1.0  0.79900  0.75500  0.85600  1.0000
  O   O33       1.0  0.59900  0.49800  0.89500  1.0000
  O   O34       1.0  0.60700  0.99500  0.90100  1.0000
  O   O35       1.0  0.41400  0.25400  0.93100  1.0000
  O   O36       1.0  0.19600  0.75400  0.96100  1.0000
