data_image0
_chemical_formula_structural       Al4B2Ca4Fe2H2O32Si8
_chemical_formula_sum              "Al4 B2 Ca4 Fe2 H2 O32 Si8"
_cell_length_a       7.13141
_cell_length_b       9.17689
_cell_length_c       8.94682
_cell_angle_alpha    91.8029
_cell_angle_beta     98.2848
_cell_angle_gamma    77.2573

_space_group_name_H-M_alt    "P 1"
_space_group_IT_number       1

loop_
  _space_group_symop_operation_xyz
  'x, y, z'

loop_
  _atom_site_type_symbol
  _atom_site_label
  _atom_site_symmetry_multiplicity
  _atom_site_fract_x
  _atom_site_fract_y
  _atom_site_fract_z
  _atom_site_occupancy
  Al  Al1       1.0  0.05380  0.80100  0.25300  1.0000
  Al  Al2       1.0  0.35000  0.93600  0.42100  1.0000
  Al  Al3       1.0  0.65000  0.06400  0.57900  1.0000
  Al  Al4       1.0  0.94600  0.19900  0.74700  1.0000
  B   B1        1.0  0.46300  0.63200  0.28800  1.0000
  B   B2        1.0  0.53700  0.36800  0.71200  1.0000
  Ca  Ca1       1.0  0.18300  0.09990  0.08320  1.0000
  Ca  Ca2       1.0  0.74900  0.34800  0.39500  1.0000
  Ca  Ca3       1.0  0.25100  0.65200  0.60500  1.0000
  Ca  Ca4       1.0  0.81700  0.90000  0.91700  1.0000
  Fe  Fe1       1.0  0.76800  0.59200  0.11300  1.0000
  Fe  Fe2       1.0  0.23200  0.40800  0.88700  1.0000
  H   H1        1.0  0.98600  0.04230  0.37700  1.0000
  H   H2        1.0  0.01410  0.95800  0.62300  1.0000
  O   O1        1.0  0.12300  0.84600  0.06540  1.0000
  O   O2        1.0  0.59900  0.13500  0.08550  1.0000
  O   O3        1.0  0.23200  0.33500  0.09570  1.0000
  O   O4        1.0  0.46600  0.65300  0.12300  1.0000
  O   O5        1.0  0.77000  0.36700  0.14200  1.0000
  O   O6        1.0  0.79400  0.87200  0.17600  1.0000
  O   O7        1.0  0.05420  0.60400  0.18600  1.0000
  O   O8        1.0  0.43400  0.98000  0.24400  1.0000
  O   O9        1.0  0.42100  0.48400  0.31400  1.0000
  O   O10       1.0  0.09390  0.99700  0.32100  1.0000
  O   O11       1.0  0.32600  0.74500  0.35500  1.0000
  O   O12       1.0  0.67500  0.61800  0.35500  1.0000
  O   O13       1.0  0.12900  0.37400  0.37000  1.0000
  O   O14       1.0  0.72400  0.09960  0.38500  1.0000
  O   O15       1.0  0.98100  0.75800  0.43500  1.0000
  O   O16       1.0  0.38100  0.12800  0.49500  1.0000
  O   O17       1.0  0.61900  0.87200  0.50500  1.0000
  O   O18       1.0  0.01850  0.24200  0.56500  1.0000
  O   O19       1.0  0.27600  0.90000  0.61500  1.0000
  O   O20       1.0  0.87100  0.62600  0.63000  1.0000
  O   O21       1.0  0.32500  0.38200  0.64500  1.0000
  O   O22       1.0  0.67400  0.25500  0.64500  1.0000
  O   O23       1.0  0.90600  0.00322  0.67900  1.0000
  O   O24       1.0  0.57900  0.51600  0.68600  1.0000
  O   O25       1.0  0.56600  0.01980  0.75600  1.0000
  O   O26       1.0  0.94600  0.39600  0.81400  1.0000
  O   O27       1.0  0.20600  0.12800  0.82400  1.0000
  O   O28       1.0  0.23000  0.63300  0.85800  1.0000
  O   O29       1.0  0.53400  0.34700  0.87700  1.0000
  O   O30       1.0  0.76800  0.66500  0.90400  1.0000
  O   O31       1.0  0.40100  0.86500  0.91400  1.0000
  O   O32       1.0  0.87700  0.15400  0.93500  1.0000
  Si  Si1       1.0  0.69800  0.25700  0.01210  1.0000
  Si  Si2       1.0  0.64100  0.01840  0.23000  1.0000
  Si  Si3       1.0  0.21100  0.44900  0.23400  1.0000
  Si  Si4       1.0  0.78300  0.72500  0.47600  1.0000
  Si  Si5       1.0  0.21700  0.27500  0.52400  1.0000
  Si  Si6       1.0  0.79000  0.55100  0.76600  1.0000
  Si  Si7       1.0  0.35900  0.98200  0.77000  1.0000
  Si  Si8       1.0  0.30200  0.74300  0.98800  1.0000
