data_image0
_chemical_formula_structural       Cu12Mo10O36
_chemical_formula_sum              "Cu12 Mo10 O36"
_cell_length_a       6.21398
_cell_length_b       9.93226
_cell_length_c       11.9679
_cell_angle_alpha    92.5817
_cell_angle_beta     105.047
_cell_angle_gamma    71.7709

_space_group_name_H-M_alt    "P 1"
_space_group_IT_number       1

loop_
  _space_group_symop_operation_xyz
  'x, y, z'

loop_
  _atom_site_type_symbol
  _atom_site_label
  _atom_site_symmetry_multiplicity
  _atom_site_fract_x
  _atom_site_fract_y
  _atom_site_fract_z
  _atom_site_occupancy
  Cu  Cu1       1.0  0.29900  0.09390  0.08900  1.0000
  Cu  Cu2       1.0  0.75500  0.92600  0.14900  1.0000
  Cu  Cu3       1.0  0.90900  0.58100  0.15900  1.0000
  Cu  Cu4       1.0  0.33100  0.91900  0.34100  1.0000
  Cu  Cu5       1.0  0.53300  0.57400  0.35100  1.0000
  Cu  Cu6       1.0  0.30400  0.40600  0.41100  1.0000
  Cu  Cu7       1.0  0.69600  0.59400  0.58900  1.0000
  Cu  Cu8       1.0  0.46700  0.42600  0.64900  1.0000
  Cu  Cu9       1.0  0.66900  0.08050  0.65900  1.0000
  Cu  Cu10      1.0  0.09060  0.41900  0.84100  1.0000
  Cu  Cu11      1.0  0.24500  0.07380  0.85100  1.0000
  Cu  Cu12      1.0  0.70100  0.90600  0.91100  1.0000
  Mo  Mo1       1.0  0.29300  0.77000  0.08900  1.0000
  Mo  Mo2       1.0  0.41700  0.41900  0.09690  1.0000
  Mo  Mo3       1.0  0.93700  0.25000  0.25000  1.0000
  Mo  Mo4       1.0  0.73900  0.08120  0.40300  1.0000
  Mo  Mo5       1.0  0.97400  0.73000  0.41100  1.0000
  Mo  Mo6       1.0  0.02600  0.27000  0.58900  1.0000
  Mo  Mo7       1.0  0.26100  0.91900  0.59700  1.0000
  Mo  Mo8       1.0  0.06300  0.75000  0.75000  1.0000
  Mo  Mo9       1.0  0.58300  0.58100  0.90300  1.0000
  Mo  Mo10      1.0  0.70700  0.23000  0.91100  1.0000
  O   O1        1.0  0.99200  0.87800  0.05800  1.0000
  O   O2        1.0  0.44200  0.89600  0.07000  1.0000
  O   O3        1.0  0.58200  0.58800  0.07200  1.0000
  O   O4        1.0  0.75500  0.28100  0.09100  1.0000
  O   O5        1.0  0.28900  0.28500  0.09130  1.0000
  O   O6        1.0  0.17200  0.58300  0.09160  1.0000
  O   O7        1.0  0.17800  0.10100  0.23500  1.0000
  O   O8        1.0  0.37800  0.74900  0.24400  1.0000
  O   O9        1.0  0.74500  0.09070  0.24900  1.0000
  O   O10       1.0  0.58600  0.40900  0.25100  1.0000
  O   O11       1.0  0.88200  0.75100  0.25600  1.0000
  O   O12       1.0  0.04350  0.39900  0.26500  1.0000
  O   O13       1.0  0.66300  0.91700  0.40800  1.0000
  O   O14       1.0  0.48200  0.21500  0.40900  1.0000
  O   O15       1.0  0.94500  0.21900  0.40900  1.0000
  O   O16       1.0  0.09830  0.91200  0.42800  1.0000
  O   O17       1.0  0.26800  0.60400  0.43000  1.0000
  O   O18       1.0  0.81200  0.62200  0.44200  1.0000
  O   O19       1.0  0.18800  0.37800  0.55800  1.0000
  O   O20       1.0  0.73200  0.39600  0.57000  1.0000
  O   O21       1.0  0.90200  0.08820  0.57200  1.0000
  O   O22       1.0  0.05460  0.78100  0.59100  1.0000
  O   O23       1.0  0.51800  0.78500  0.59100  1.0000
  O   O24       1.0  0.33700  0.08270  0.59200  1.0000
  O   O25       1.0  0.95700  0.60100  0.73500  1.0000
  O   O26       1.0  0.11800  0.24900  0.74400  1.0000
  O   O27       1.0  0.41400  0.59100  0.74900  1.0000
  O   O28       1.0  0.25500  0.90900  0.75100  1.0000
  O   O29       1.0  0.62200  0.25100  0.75600  1.0000
  O   O30       1.0  0.82200  0.89900  0.76500  1.0000
  O   O31       1.0  0.82800  0.41700  0.90800  1.0000
  O   O32       1.0  0.71100  0.71500  0.90900  1.0000
  O   O33       1.0  0.24500  0.71900  0.90900  1.0000
  O   O34       1.0  0.41800  0.41200  0.92800  1.0000
  O   O35       1.0  0.55800  0.10400  0.93000  1.0000
  O   O36       1.0  0.00812  0.12200  0.94200  1.0000
