data_image0
_chemical_formula_structural       Be2C8Cl4H32O8S4
_chemical_formula_sum              "Be2 C8 Cl4 H32 O8 S4"
_cell_length_a       7.75926
_cell_length_b       7.83034
_cell_length_c       10.5387
_cell_angle_alpha    86.2856
_cell_angle_beta     83.6979
_cell_angle_gamma    71.0253

_space_group_name_H-M_alt    "P 1"
_space_group_IT_number       1

loop_
  _space_group_symop_operation_xyz
  'x, y, z'

loop_
  _atom_site_type_symbol
  _atom_site_label
  _atom_site_symmetry_multiplicity
  _atom_site_fract_x
  _atom_site_fract_y
  _atom_site_fract_z
  _atom_site_occupancy
  Be  Be1       1.0  0.37600  0.76700  0.25700  1.0000
  Be  Be2       1.0  0.62400  0.23300  0.74300  1.0000
  C   C1        1.0  0.78500  0.90400  0.04840  1.0000
  C   C2        1.0  0.21000  0.28300  0.16000  1.0000
  C   C3        1.0  0.88400  0.19100  0.38700  1.0000
  C   C4        1.0  0.52800  0.21100  0.39300  1.0000
  C   C5        1.0  0.47200  0.78900  0.60700  1.0000
  C   C6        1.0  0.11600  0.80900  0.61300  1.0000
  C   C7        1.0  0.79000  0.71700  0.84000  1.0000
  C   C8        1.0  0.21500  0.09580  0.95200  1.0000
  Cl  Cl1       1.0  0.76400  0.36000  0.06280  1.0000
  Cl  Cl2       1.0  0.88200  0.71300  0.36300  1.0000
  Cl  Cl3       1.0  0.11800  0.28700  0.63700  1.0000
  Cl  Cl4       1.0  0.23600  0.64000  0.93700  1.0000
  H   H1        1.0  0.89700  0.78700  0.07650  1.0000
  H   H2        1.0  0.65100  0.88800  0.07680  1.0000
  H   H3        1.0  0.79300  0.02860  0.08600  1.0000
  H   H4        1.0  0.34000  0.29200  0.11400  1.0000
  H   H5        1.0  0.24300  0.64000  0.12200  1.0000
  H   H6        1.0  0.09350  0.39000  0.12500  1.0000
  H   H7        1.0  0.64100  0.54400  0.18300  1.0000
  H   H8        1.0  0.12300  0.67100  0.26300  1.0000
  H   H9        1.0  0.20400  0.28600  0.26400  1.0000
  H   H10       1.0  0.68600  0.66400  0.28900  1.0000
  H   H11       1.0  0.86700  0.26300  0.29400  1.0000
  H   H12       1.0  0.52000  0.28800  0.30100  1.0000
  H   H13       1.0  0.91100  0.04560  0.37800  1.0000
  H   H14       1.0  0.58800  0.06550  0.37800  1.0000
  H   H15       1.0  0.98900  0.21900  0.43600  1.0000
  H   H16       1.0  0.39300  0.24500  0.44800  1.0000
  H   H17       1.0  0.60700  0.75500  0.55200  1.0000
  H   H18       1.0  0.01090  0.78100  0.56400  1.0000
  H   H19       1.0  0.41200  0.93500  0.62200  1.0000
  H   H20       1.0  0.08940  0.95400  0.62200  1.0000
  H   H21       1.0  0.48000  0.71200  0.69900  1.0000
  H   H22       1.0  0.13300  0.73700  0.70600  1.0000
  H   H23       1.0  0.31400  0.33600  0.71100  1.0000
  H   H24       1.0  0.79600  0.71400  0.73600  1.0000
  H   H25       1.0  0.87700  0.32900  0.73700  1.0000
  H   H26       1.0  0.35900  0.45600  0.81700  1.0000
  H   H27       1.0  0.90700  0.61000  0.87500  1.0000
  H   H28       1.0  0.75700  0.36000  0.87800  1.0000
  H   H29       1.0  0.66000  0.70800  0.88600  1.0000
  H   H30       1.0  0.20700  0.97100  0.91400  1.0000
  H   H31       1.0  0.34900  0.11200  0.92300  1.0000
  H   H32       1.0  0.10300  0.21300  0.92400  1.0000
  O   O1        1.0  0.37100  0.93200  0.15500  1.0000
  O   O2        1.0  0.24900  0.65100  0.21700  1.0000
  O   O3        1.0  0.58400  0.63000  0.25600  1.0000
  O   O4        1.0  0.30500  0.84800  0.39700  1.0000
  O   O5        1.0  0.69500  0.15200  0.60300  1.0000
  O   O6        1.0  0.41600  0.37000  0.74400  1.0000
  O   O7        1.0  0.75100  0.34900  0.78300  1.0000
  O   O8        1.0  0.62900  0.06760  0.84500  1.0000
  S   S1        1.0  0.18700  0.07350  0.12100  1.0000
  S   S2        1.0  0.67400  0.28100  0.48300  1.0000
  S   S3        1.0  0.32600  0.71900  0.51700  1.0000
  S   S4        1.0  0.81300  0.92600  0.87900  1.0000
