data_image0
_chemical_formula_structural       H20N6Nd2O22S6
_chemical_formula_sum              "H20 N6 Nd2 O22 S6"
_cell_length_a       7.67165
_cell_length_b       8.78045
_cell_length_c       9.08447
_cell_angle_alpha    118
_cell_angle_beta     94.4631
_cell_angle_gamma    91.7482

_space_group_name_H-M_alt    "P 1"
_space_group_IT_number       1

loop_
  _space_group_symop_operation_xyz
  'x, y, z'

loop_
  _atom_site_type_symbol
  _atom_site_label
  _atom_site_symmetry_multiplicity
  _atom_site_fract_x
  _atom_site_fract_y
  _atom_site_fract_z
  _atom_site_occupancy
  H   H1        1.0  0.48700  0.66100  0.01730  1.0000
  H   H2        1.0  0.69400  0.98600  0.04040  1.0000
  H   H3        1.0  0.67300  0.68500  0.13100  1.0000
  H   H4        1.0  0.28500  0.01460  0.13900  1.0000
  H   H5        1.0  0.60800  0.20900  0.23100  1.0000
  H   H6        1.0  0.81500  0.55800  0.25000  1.0000
  H   H7        1.0  0.60300  0.08080  0.32000  1.0000
  H   H8        1.0  0.12400  0.98200  0.32800  1.0000
  H   H9        1.0  0.32400  0.89900  0.32900  1.0000
  H   H10       1.0  0.87000  0.77100  0.38100  1.0000
  H   H11       1.0  0.13000  0.22900  0.61900  1.0000
  H   H12       1.0  0.67600  0.10100  0.67100  1.0000
  H   H13       1.0  0.87600  0.01790  0.67200  1.0000
  H   H14       1.0  0.39700  0.91900  0.68000  1.0000
  H   H15       1.0  0.18500  0.44200  0.75000  1.0000
  H   H16       1.0  0.39200  0.79100  0.76900  1.0000
  H   H17       1.0  0.71500  0.98500  0.86100  1.0000
  H   H18       1.0  0.32700  0.31500  0.86900  1.0000
  H   H19       1.0  0.30600  0.01400  0.96000  1.0000
  H   H20       1.0  0.51300  0.33900  0.98300  1.0000
  N   N1        1.0  0.67800  0.12400  0.25500  1.0000
  N   N2        1.0  0.22200  0.91500  0.25700  1.0000
  N   N3        1.0  0.77000  0.68000  0.30600  1.0000
  N   N4        1.0  0.23000  0.32000  0.69400  1.0000
  N   N5        1.0  0.77800  0.08510  0.74300  1.0000
  N   N6        1.0  0.32200  0.87600  0.74500  1.0000
  Nd  Nd1       1.0  0.22600  0.37300  0.21100  1.0000
  Nd  Nd2       1.0  0.77400  0.62700  0.78900  1.0000
  O   O1        1.0  0.61600  0.66800  0.02040  1.0000
  O   O2        1.0  0.73600  0.32900  0.02050  1.0000
  O   O3        1.0  0.97000  0.76800  0.05030  1.0000
  O   O4        1.0  0.31700  0.08600  0.08440  1.0000
  O   O5        1.0  0.11400  0.60500  0.17300  1.0000
  O   O6        1.0  0.96500  0.25800  0.26200  1.0000
  O   O7        1.0  0.52000  0.50600  0.31500  1.0000
  O   O8        1.0  0.32500  0.28300  0.41700  1.0000
  O   O9        1.0  0.50000  0.81900  0.42100  1.0000
  O   O10       1.0  0.93500  0.10800  0.43000  1.0000
  O   O11       1.0  0.17800  0.60900  0.48400  1.0000
  O   O12       1.0  0.82200  0.39100  0.51600  1.0000
  O   O13       1.0  0.06520  0.89200  0.57000  1.0000
  O   O14       1.0  0.50000  0.18100  0.57900  1.0000
  O   O15       1.0  0.67500  0.71700  0.58300  1.0000
  O   O16       1.0  0.48000  0.49400  0.68500  1.0000
  O   O17       1.0  0.03520  0.74200  0.73800  1.0000
  O   O18       1.0  0.88600  0.39500  0.82700  1.0000
  O   O19       1.0  0.68300  0.91400  0.91600  1.0000
  O   O20       1.0  0.02990  0.23200  0.95000  1.0000
  O   O21       1.0  0.26400  0.67100  0.97900  1.0000
  O   O22       1.0  0.38400  0.33200  0.98000  1.0000
  S   S1        1.0  0.13800  0.72700  0.10500  1.0000
  S   S2        1.0  0.86200  0.22700  0.37600  1.0000
  S   S3        1.0  0.60600  0.68200  0.41400  1.0000
  S   S4        1.0  0.39400  0.31800  0.58600  1.0000
  S   S5        1.0  0.13800  0.77300  0.62400  1.0000
  S   S6        1.0  0.86200  0.27300  0.89600  1.0000
