data_image0
_chemical_formula_structural       C4Cu2H20N16O16
_chemical_formula_sum              "C4 Cu2 H20 N16 O16"
_cell_length_a       6.66937
_cell_length_b       7.50333
_cell_length_c       9.82896
_cell_angle_alpha    90
_cell_angle_beta     103.779
_cell_angle_gamma    90

_space_group_name_H-M_alt    "P 1"
_space_group_IT_number       1

loop_
  _space_group_symop_operation_xyz
  'x, y, z'

loop_
  _atom_site_type_symbol
  _atom_site_label
  _atom_site_symmetry_multiplicity
  _atom_site_fract_x
  _atom_site_fract_y
  _atom_site_fract_z
  _atom_site_occupancy
  C   C1        1.0  0.38800  0.07310  0.13900  1.0000
  C   C2        1.0  0.61200  0.57300  0.36100  1.0000
  C   C3        1.0  0.38800  0.42700  0.63900  1.0000
  C   C4        1.0  0.61200  0.92700  0.86100  1.0000
  Cu  Cu1       1.0  0.00000  0.00000  0.00000  1.0000
  Cu  Cu2       1.0  0.00000  0.50000  0.50000  1.0000
  H   H1        1.0  0.47200  0.27600  0.01750  1.0000
  H   H2        1.0  0.88700  0.70700  0.09410  1.0000
  H   H3        1.0  0.43000  0.52700  0.16600  1.0000
  H   H4        1.0  0.80600  0.88600  0.17000  1.0000
  H   H5        1.0  0.68300  0.16100  0.22500  1.0000
  H   H6        1.0  0.31700  0.66100  0.27500  1.0000
  H   H7        1.0  0.19400  0.38600  0.33000  1.0000
  H   H8        1.0  0.57000  0.02660  0.33400  1.0000
  H   H9        1.0  0.11300  0.20700  0.40600  1.0000
  H   H10       1.0  0.52800  0.77600  0.48300  1.0000
  H   H11       1.0  0.47200  0.22400  0.51700  1.0000
  H   H12       1.0  0.88700  0.79300  0.59400  1.0000
  H   H13       1.0  0.43000  0.97300  0.66600  1.0000
  H   H14       1.0  0.80600  0.61400  0.67000  1.0000
  H   H15       1.0  0.68300  0.33900  0.72500  1.0000
  H   H16       1.0  0.31700  0.83900  0.77500  1.0000
  H   H17       1.0  0.19400  0.11400  0.83000  1.0000
  H   H18       1.0  0.57000  0.47300  0.83400  1.0000
  H   H19       1.0  0.11300  0.29300  0.90600  1.0000
  H   H20       1.0  0.52800  0.72400  0.98300  1.0000
  N   N1        1.0  0.36900  0.17500  0.02290  1.0000
  N   N2        1.0  0.82200  0.83300  0.07580  1.0000
  N   N3        1.0  0.86400  0.38600  0.10800  1.0000
  N   N4        1.0  0.56100  0.08550  0.23900  1.0000
  N   N5        1.0  0.43900  0.58500  0.26100  1.0000
  N   N6        1.0  0.13600  0.88600  0.39200  1.0000
  N   N7        1.0  0.17800  0.33300  0.42400  1.0000
  N   N8        1.0  0.63100  0.67500  0.47700  1.0000
  N   N9        1.0  0.36900  0.32500  0.52300  1.0000
  N   N10       1.0  0.82200  0.66700  0.57600  1.0000
  N   N11       1.0  0.86400  0.11400  0.60800  1.0000
  N   N12       1.0  0.56100  0.41500  0.73900  1.0000
  N   N13       1.0  0.43900  0.91500  0.76100  1.0000
  N   N14       1.0  0.13600  0.61400  0.89200  1.0000
  N   N15       1.0  0.17800  0.16700  0.92400  1.0000
  N   N16       1.0  0.63100  0.82500  0.97700  1.0000
  O   O1        1.0  0.68600  0.44000  0.04480  1.0000
  O   O2        1.0  0.01310  0.49300  0.13800  1.0000
  O   O3        1.0  0.89200  0.22400  0.14400  1.0000
  O   O4        1.0  0.24400  0.96500  0.15000  1.0000
  O   O5        1.0  0.75600  0.46500  0.35000  1.0000
  O   O6        1.0  0.10800  0.72400  0.35600  1.0000
  O   O7        1.0  0.98700  0.99300  0.36200  1.0000
  O   O8        1.0  0.31400  0.94000  0.45500  1.0000
  O   O9        1.0  0.68600  0.05990  0.54500  1.0000
  O   O10       1.0  0.01310  0.00672  0.63800  1.0000
  O   O11       1.0  0.89200  0.27600  0.64400  1.0000
  O   O12       1.0  0.24400  0.53500  0.65000  1.0000
  O   O13       1.0  0.75600  0.03500  0.85000  1.0000
  O   O14       1.0  0.10800  0.77600  0.85600  1.0000
  O   O15       1.0  0.98700  0.50700  0.86200  1.0000
  O   O16       1.0  0.31400  0.56000  0.95500  1.0000
