data_image0
_chemical_formula_structural       Ce8Cl8Mo8O32
_chemical_formula_sum              "Ce8 Cl8 Mo8 O32"
_cell_length_a       19.1093
_cell_length_b       5.82776
_cell_length_c       7.97309
_cell_angle_alpha    90
_cell_angle_beta     90.0353
_cell_angle_gamma    90

_space_group_name_H-M_alt    "P 1"
_space_group_IT_number       1

loop_
  _space_group_symop_operation_xyz
  'x, y, z'

loop_
  _atom_site_type_symbol
  _atom_site_label
  _atom_site_symmetry_multiplicity
  _atom_site_fract_x
  _atom_site_fract_y
  _atom_site_fract_z
  _atom_site_occupancy
  Ce  Ce1       1.0  0.60300  0.19700  0.12300  1.0000
  Ce  Ce2       1.0  0.10300  0.19500  0.12700  1.0000
  Ce  Ce3       1.0  0.89700  0.69500  0.37300  1.0000
  Ce  Ce4       1.0  0.39700  0.69700  0.37700  1.0000
  Ce  Ce5       1.0  0.60300  0.30300  0.62300  1.0000
  Ce  Ce6       1.0  0.10300  0.30500  0.62700  1.0000
  Ce  Ce7       1.0  0.89700  0.80500  0.87300  1.0000
  Ce  Ce8       1.0  0.39700  0.80300  0.87700  1.0000
  Cl  Cl1       1.0  0.01160  0.76200  0.12500  1.0000
  Cl  Cl2       1.0  0.51200  0.76000  0.12700  1.0000
  Cl  Cl3       1.0  0.48800  0.26000  0.37300  1.0000
  Cl  Cl4       1.0  0.98800  0.26200  0.37500  1.0000
  Cl  Cl5       1.0  0.01160  0.73800  0.62500  1.0000
  Cl  Cl6       1.0  0.51200  0.74000  0.62700  1.0000
  Cl  Cl7       1.0  0.48800  0.24000  0.87300  1.0000
  Cl  Cl8       1.0  0.98800  0.23800  0.87500  1.0000
  Mo  Mo1       1.0  0.82100  0.24800  0.08930  1.0000
  Mo  Mo2       1.0  0.32100  0.25700  0.16000  1.0000
  Mo  Mo3       1.0  0.67900  0.75700  0.34000  1.0000
  Mo  Mo4       1.0  0.17900  0.74800  0.41100  1.0000
  Mo  Mo5       1.0  0.82100  0.25200  0.58900  1.0000
  Mo  Mo6       1.0  0.32100  0.24300  0.66000  1.0000
  Mo  Mo7       1.0  0.67900  0.74300  0.84000  1.0000
  Mo  Mo8       1.0  0.17900  0.75200  0.91100  1.0000
  O   O1        1.0  0.36900  0.51100  0.09360  1.0000
  O   O2        1.0  0.86900  0.51900  0.09650  1.0000
  O   O3        1.0  0.23100  0.26000  0.12000  1.0000
  O   O4        1.0  0.67300  0.81900  0.12000  1.0000
  O   O5        1.0  0.73000  0.26800  0.12600  1.0000
  O   O6        1.0  0.17200  0.81800  0.13000  1.0000
  O   O7        1.0  0.36600  0.98000  0.15400  1.0000
  O   O8        1.0  0.86600  0.98800  0.15700  1.0000
  O   O9        1.0  0.13400  0.48800  0.34300  1.0000
  O   O10       1.0  0.63400  0.48000  0.34600  1.0000
  O   O11       1.0  0.82800  0.31800  0.37000  1.0000
  O   O12       1.0  0.27000  0.76800  0.37400  1.0000
  O   O13       1.0  0.32700  0.31900  0.38000  1.0000
  O   O14       1.0  0.76900  0.76000  0.38000  1.0000
  O   O15       1.0  0.13100  0.01940  0.40400  1.0000
  O   O16       1.0  0.63100  0.01120  0.40600  1.0000
  O   O17       1.0  0.36900  0.98900  0.59400  1.0000
  O   O18       1.0  0.86900  0.98100  0.59600  1.0000
  O   O19       1.0  0.23100  0.24000  0.62000  1.0000
  O   O20       1.0  0.67300  0.68100  0.62000  1.0000
  O   O21       1.0  0.73000  0.23200  0.62600  1.0000
  O   O22       1.0  0.17200  0.68200  0.63000  1.0000
  O   O23       1.0  0.36600  0.52000  0.65400  1.0000
  O   O24       1.0  0.86600  0.51200  0.65700  1.0000
  O   O25       1.0  0.13400  0.01210  0.84300  1.0000
  O   O26       1.0  0.63400  0.02030  0.84600  1.0000
  O   O27       1.0  0.82800  0.18200  0.87000  1.0000
  O   O28       1.0  0.27000  0.73200  0.87400  1.0000
  O   O29       1.0  0.32700  0.18100  0.88000  1.0000
  O   O30       1.0  0.76900  0.74000  0.88000  1.0000
  O   O31       1.0  0.13100  0.48100  0.90400  1.0000
  O   O32       1.0  0.63100  0.48900  0.90600  1.0000
