data_image0
_chemical_formula_structural       C20Fe4Mn4N24O4
_chemical_formula_sum              "C20 Fe4 Mn4 N24 O4"
_cell_length_a       13.5983
_cell_length_b       7.36263
_cell_length_c       10.5129
_cell_angle_alpha    90
_cell_angle_beta     90
_cell_angle_gamma    90

_space_group_name_H-M_alt    "P 1"
_space_group_IT_number       1

loop_
  _space_group_symop_operation_xyz
  'x, y, z'

loop_
  _atom_site_type_symbol
  _atom_site_label
  _atom_site_symmetry_multiplicity
  _atom_site_fract_x
  _atom_site_fract_y
  _atom_site_fract_z
  _atom_site_occupancy
  C   C1        1.0  0.10400  0.75000  0.15200  1.0000
  C   C2        1.0  0.65100  0.56800  0.15700  1.0000
  C   C3        1.0  0.65100  0.93200  0.15700  1.0000
  C   C4        1.0  0.46800  0.56900  0.24400  1.0000
  C   C5        1.0  0.46800  0.93100  0.24400  1.0000
  C   C6        1.0  0.96800  0.56900  0.25600  1.0000
  C   C7        1.0  0.96800  0.93100  0.25600  1.0000
  C   C8        1.0  0.15100  0.56800  0.34300  1.0000
  C   C9        1.0  0.15100  0.93200  0.34300  1.0000
  C   C10       1.0  0.60400  0.75000  0.34800  1.0000
  C   C11       1.0  0.39600  0.25000  0.65200  1.0000
  C   C12       1.0  0.84900  0.06810  0.65700  1.0000
  C   C13       1.0  0.84900  0.43200  0.65700  1.0000
  C   C14       1.0  0.03200  0.06860  0.74400  1.0000
  C   C15       1.0  0.03200  0.43100  0.74400  1.0000
  C   C16       1.0  0.53200  0.06860  0.75600  1.0000
  C   C17       1.0  0.53200  0.43100  0.75600  1.0000
  C   C18       1.0  0.34900  0.06810  0.84300  1.0000
  C   C19       1.0  0.34900  0.43200  0.84300  1.0000
  C   C20       1.0  0.89600  0.25000  0.84800  1.0000
  Fe  Fe1       1.0  0.55400  0.75000  0.18000  1.0000
  Fe  Fe2       1.0  0.05410  0.75000  0.32000  1.0000
  Fe  Fe3       1.0  0.94600  0.25000  0.68000  1.0000
  Fe  Fe4       1.0  0.44600  0.25000  0.82000  1.0000
  Mn  Mn1       1.0  0.82200  0.25000  0.14000  1.0000
  Mn  Mn2       1.0  0.32200  0.25000  0.36000  1.0000
  Mn  Mn3       1.0  0.67800  0.75000  0.64000  1.0000
  Mn  Mn4       1.0  0.17800  0.75000  0.86000  1.0000
  N   N1        1.0  0.51000  0.75000  0.03320  1.0000
  N   N2        1.0  0.13500  0.75000  0.04930  1.0000
  N   N3        1.0  0.71000  0.04670  0.14500  1.0000
  N   N4        1.0  0.71000  0.45300  0.14500  1.0000
  N   N5        1.0  0.91600  0.04650  0.21900  1.0000
  N   N6        1.0  0.91600  0.45300  0.21900  1.0000
  N   N7        1.0  0.41600  0.04650  0.28100  1.0000
  N   N8        1.0  0.41600  0.45300  0.28100  1.0000
  N   N9        1.0  0.21000  0.04670  0.35500  1.0000
  N   N10       1.0  0.21000  0.45300  0.35500  1.0000
  N   N11       1.0  0.63500  0.75000  0.45100  1.0000
  N   N12       1.0  0.01030  0.75000  0.46700  1.0000
  N   N13       1.0  0.99000  0.25000  0.53300  1.0000
  N   N14       1.0  0.36500  0.25000  0.54900  1.0000
  N   N15       1.0  0.79000  0.54700  0.64500  1.0000
  N   N16       1.0  0.79000  0.95300  0.64500  1.0000
  N   N17       1.0  0.58400  0.54700  0.71900  1.0000
  N   N18       1.0  0.58400  0.95300  0.71900  1.0000
  N   N19       1.0  0.08360  0.54700  0.78100  1.0000
  N   N20       1.0  0.08360  0.95300  0.78100  1.0000
  N   N21       1.0  0.29000  0.54700  0.85500  1.0000
  N   N22       1.0  0.29000  0.95300  0.85500  1.0000
  N   N23       1.0  0.86500  0.25000  0.95100  1.0000
  N   N24       1.0  0.49000  0.25000  0.96700  1.0000
  O   O1        1.0  0.52100  0.25000  0.06850  1.0000
  O   O2        1.0  0.02120  0.25000  0.43100  1.0000
  O   O3        1.0  0.97900  0.75000  0.56900  1.0000
  O   O4        1.0  0.47900  0.75000  0.93100  1.0000
