data_image0
_chemical_formula_structural       Er4Mo8O36Sb4
_chemical_formula_sum              "Er4 Mo8 O36 Sb4"
_cell_length_a       9.46446
_cell_length_b       9.46423
_cell_length_c       10.5981
_cell_angle_alpha    112.222
_cell_angle_beta     112.227
_cell_angle_gamma    94.6997

_space_group_name_H-M_alt    "P 1"
_space_group_IT_number       1

loop_
  _space_group_symop_operation_xyz
  'x, y, z'

loop_
  _atom_site_type_symbol
  _atom_site_label
  _atom_site_symmetry_multiplicity
  _atom_site_fract_x
  _atom_site_fract_y
  _atom_site_fract_z
  _atom_site_occupancy
  Er  Er1       1.0  0.87300  0.12700  0.25000  1.0000
  Er  Er2       1.0  0.33000  0.67000  0.25000  1.0000
  Er  Er3       1.0  0.12700  0.87300  0.75000  1.0000
  Er  Er4       1.0  0.67000  0.33000  0.75000  1.0000
  Mo  Mo1       1.0  0.04650  0.26100  0.02900  1.0000
  Mo  Mo2       1.0  0.43400  0.06000  0.19600  1.0000
  Mo  Mo3       1.0  0.94000  0.56600  0.30400  1.0000
  Mo  Mo4       1.0  0.73900  0.95400  0.47100  1.0000
  Mo  Mo5       1.0  0.26100  0.04650  0.52900  1.0000
  Mo  Mo6       1.0  0.06000  0.43400  0.69600  1.0000
  Mo  Mo7       1.0  0.56600  0.94000  0.80400  1.0000
  Mo  Mo8       1.0  0.95300  0.73900  0.97100  1.0000
  O   O1        1.0  0.69400  0.02390  0.00024  1.0000
  O   O2        1.0  0.13500  0.70100  0.06510  1.0000
  O   O3        1.0  0.22500  0.40400  0.07800  1.0000
  O   O4        1.0  0.93500  0.90700  0.10300  1.0000
  O   O5        1.0  0.46000  0.57800  0.10300  1.0000
  O   O6        1.0  0.04790  0.22300  0.18200  1.0000
  O   O7        1.0  0.79100  0.64400  0.20300  1.0000
  O   O8        1.0  0.62300  0.15400  0.23300  1.0000
  O   O9        1.0  0.09360  0.55000  0.24600  1.0000
  O   O10       1.0  0.45000  0.90600  0.25500  1.0000
  O   O11       1.0  0.84600  0.37700  0.26700  1.0000
  O   O12       1.0  0.35600  0.20900  0.29700  1.0000
  O   O13       1.0  0.77700  0.95200  0.31800  1.0000
  O   O14       1.0  0.42200  0.54000  0.39700  1.0000
  O   O15       1.0  0.09250  0.06470  0.39700  1.0000
  O   O16       1.0  0.59600  0.77500  0.42200  1.0000
  O   O17       1.0  0.30000  0.86500  0.43500  1.0000
  O   O18       1.0  0.97600  0.30600  0.50000  1.0000
  O   O19       1.0  0.02370  0.69400  0.50000  1.0000
  O   O20       1.0  0.70000  0.13500  0.56500  1.0000
  O   O21       1.0  0.40400  0.22500  0.57800  1.0000
  O   O22       1.0  0.90800  0.93500  0.60300  1.0000
  O   O23       1.0  0.57800  0.46000  0.60300  1.0000
  O   O24       1.0  0.22300  0.04770  0.68200  1.0000
  O   O25       1.0  0.64400  0.79100  0.70300  1.0000
  O   O26       1.0  0.15400  0.62300  0.73300  1.0000
  O   O27       1.0  0.55000  0.09350  0.74600  1.0000
  O   O28       1.0  0.90600  0.45000  0.75500  1.0000
  O   O29       1.0  0.37700  0.84600  0.76700  1.0000
  O   O30       1.0  0.20900  0.35600  0.79700  1.0000
  O   O31       1.0  0.95200  0.77700  0.81800  1.0000
  O   O32       1.0  0.54000  0.42200  0.89700  1.0000
  O   O33       1.0  0.06480  0.09250  0.89700  1.0000
  O   O34       1.0  0.77500  0.59600  0.92200  1.0000
  O   O35       1.0  0.86500  0.30000  0.93500  1.0000
  O   O36       1.0  0.30600  0.97600  0.00000  1.0000
  Sb  Sb1       1.0  0.61200  0.65800  0.03120  1.0000
  Sb  Sb2       1.0  0.34200  0.38800  0.46900  1.0000
  Sb  Sb3       1.0  0.65800  0.61200  0.53100  1.0000
  Sb  Sb4       1.0  0.38800  0.34200  0.96900  1.0000
