data_image0
_chemical_formula_structural       C16N16Pb4S16Zn4
_chemical_formula_sum              "C16 N16 Pb4 S16 Zn4"
_cell_length_a       9.28125
_cell_length_b       6.17639
_cell_length_c       20.7657
_cell_angle_alpha    90
_cell_angle_beta     90
_cell_angle_gamma    90

_space_group_name_H-M_alt    "P 1"
_space_group_IT_number       1

loop_
  _space_group_symop_operation_xyz
  'x, y, z'

loop_
  _atom_site_type_symbol
  _atom_site_label
  _atom_site_symmetry_multiplicity
  _atom_site_fract_x
  _atom_site_fract_y
  _atom_site_fract_z
  _atom_site_occupancy
  C   C1        1.0  0.80300  0.40700  0.07410  1.0000
  C   C2        1.0  0.43600  0.10500  0.07730  1.0000
  C   C3        1.0  0.40800  0.40800  0.21500  1.0000
  C   C4        1.0  0.14800  0.78200  0.21500  1.0000
  C   C5        1.0  0.64800  0.78200  0.28500  1.0000
  C   C6        1.0  0.90800  0.40800  0.28500  1.0000
  C   C7        1.0  0.93600  0.10500  0.42300  1.0000
  C   C8        1.0  0.30300  0.40700  0.42600  1.0000
  C   C9        1.0  0.69700  0.90700  0.57400  1.0000
  C   C10       1.0  0.06420  0.60500  0.57700  1.0000
  C   C11       1.0  0.09210  0.90800  0.71500  1.0000
  C   C12       1.0  0.35200  0.28200  0.71500  1.0000
  C   C13       1.0  0.85200  0.28200  0.78500  1.0000
  C   C14       1.0  0.59200  0.90800  0.78500  1.0000
  C   C15       1.0  0.56400  0.60500  0.92300  1.0000
  C   C16       1.0  0.19700  0.90700  0.92600  1.0000
  N   N1        1.0  0.72700  0.54000  0.09690  1.0000
  N   N2        1.0  0.52100  0.98200  0.09910  1.0000
  N   N3        1.0  0.44300  0.54900  0.17900  1.0000
  N   N4        1.0  0.67900  0.79100  0.23000  1.0000
  N   N5        1.0  0.17900  0.79100  0.27000  1.0000
  N   N6        1.0  0.94300  0.54900  0.32100  1.0000
  N   N7        1.0  0.02050  0.98200  0.40100  1.0000
  N   N8        1.0  0.22700  0.54000  0.40300  1.0000
  N   N9        1.0  0.77300  0.03960  0.59700  1.0000
  N   N10       1.0  0.97900  0.48200  0.59900  1.0000
  N   N11       1.0  0.05670  0.04930  0.67900  1.0000
  N   N12       1.0  0.82100  0.29100  0.73000  1.0000
  N   N13       1.0  0.32100  0.29100  0.77000  1.0000
  N   N14       1.0  0.55700  0.04930  0.82100  1.0000
  N   N15       1.0  0.47900  0.48200  0.90100  1.0000
  N   N16       1.0  0.27300  0.03960  0.90300  1.0000
  Pb  Pb1       1.0  0.10800  0.24900  0.14500  1.0000
  Pb  Pb2       1.0  0.60800  0.24900  0.35500  1.0000
  Pb  Pb3       1.0  0.39200  0.74900  0.64500  1.0000
  Pb  Pb4       1.0  0.89200  0.74900  0.85500  1.0000
  S   S1        1.0  0.90800  0.22600  0.04130  1.0000
  S   S2        1.0  0.32300  0.27600  0.04580  1.0000
  S   S3        1.0  0.10700  0.77600  0.13900  1.0000
  S   S4        1.0  0.84800  0.21100  0.24100  1.0000
  S   S5        1.0  0.34800  0.21100  0.25900  1.0000
  S   S6        1.0  0.60700  0.77600  0.36100  1.0000
  S   S7        1.0  0.82300  0.27600  0.45400  1.0000
  S   S8        1.0  0.40800  0.22600  0.45900  1.0000
  S   S9        1.0  0.59200  0.72600  0.54100  1.0000
  S   S10       1.0  0.17700  0.77600  0.54600  1.0000
  S   S11       1.0  0.39300  0.27600  0.63900  1.0000
  S   S12       1.0  0.65200  0.71100  0.74100  1.0000
  S   S13       1.0  0.15200  0.71100  0.75900  1.0000
  S   S14       1.0  0.89300  0.27600  0.86100  1.0000
  S   S15       1.0  0.67700  0.77600  0.95400  1.0000
  S   S16       1.0  0.09180  0.72600  0.95900  1.0000
  Zn  Zn1       1.0  0.59700  0.73100  0.14300  1.0000
  Zn  Zn2       1.0  0.09670  0.73100  0.35700  1.0000
  Zn  Zn3       1.0  0.90300  0.23100  0.64300  1.0000
  Zn  Zn4       1.0  0.40300  0.23100  0.85700  1.0000
