data_image0
_chemical_formula_structural       H16N4O26P8Ti2
_chemical_formula_sum              "H16 N4 O26 P8 Ti2"
_cell_length_a       14.3375
_cell_length_b       7.7334
_cell_length_c       5.00918
_cell_angle_alpha    98.7851
_cell_angle_beta     96.3563
_cell_angle_gamma    82.6906

_space_group_name_H-M_alt    "P 1"
_space_group_IT_number       1

loop_
  _space_group_symop_operation_xyz
  'x, y, z'

loop_
  _atom_site_type_symbol
  _atom_site_label
  _atom_site_symmetry_multiplicity
  _atom_site_fract_x
  _atom_site_fract_y
  _atom_site_fract_z
  _atom_site_occupancy
  H   H1        1.0  0.52600  0.75900  0.02510  1.0000
  H   H2        1.0  0.08470  0.25100  0.14400  1.0000
  H   H3        1.0  0.97100  0.33800  0.14700  1.0000
  H   H4        1.0  0.54800  0.12100  0.18300  1.0000
  H   H5        1.0  0.56200  0.33100  0.19800  1.0000
  H   H6        1.0  0.05470  0.46300  0.27700  1.0000
  H   H7        1.0  0.47000  0.27600  0.32600  1.0000
  H   H8        1.0  0.03050  0.30000  0.44300  1.0000
  H   H9        1.0  0.96900  0.70000  0.55700  1.0000
  H   H10       1.0  0.53000  0.72400  0.67400  1.0000
  H   H11       1.0  0.94500  0.53700  0.72300  1.0000
  H   H12       1.0  0.43800  0.66900  0.80200  1.0000
  H   H13       1.0  0.45200  0.87900  0.81700  1.0000
  H   H14       1.0  0.02890  0.66200  0.85300  1.0000
  H   H15       1.0  0.91500  0.74900  0.85600  1.0000
  H   H16       1.0  0.47400  0.24100  0.97500  1.0000
  N   N1        1.0  0.51200  0.24400  0.16700  1.0000
  N   N2        1.0  0.03680  0.33500  0.25500  1.0000
  N   N3        1.0  0.96300  0.66500  0.74500  1.0000
  N   N4        1.0  0.48800  0.75600  0.83300  1.0000
  O   O1        1.0  0.69600  0.28500  0.01480  1.0000
  O   O2        1.0  0.30000  0.39800  0.02210  1.0000
  O   O3        1.0  0.82000  0.81300  0.07880  1.0000
  O   O4        1.0  0.34000  0.04660  0.20500  1.0000
  O   O5        1.0  0.86200  0.50900  0.22400  1.0000
  O   O6        1.0  0.15900  0.92900  0.22500  1.0000
  O   O7        1.0  0.04580  0.70700  0.27900  1.0000
  O   O8        1.0  0.86200  0.14100  0.31400  1.0000
  O   O9        1.0  0.68500  0.03740  0.34200  1.0000
  O   O10       1.0  0.22300  0.63000  0.36000  1.0000
  O   O11       1.0  0.56500  0.82700  0.36600  1.0000
  O   O12       1.0  0.40300  0.56800  0.37200  1.0000
  O   O13       1.0  0.74200  0.73200  0.45900  1.0000
  O   O14       1.0  0.25800  0.26800  0.54100  1.0000
  O   O15       1.0  0.59700  0.43200  0.62800  1.0000
  O   O16       1.0  0.43500  0.17300  0.63400  1.0000
  O   O17       1.0  0.77700  0.37000  0.64000  1.0000
  O   O18       1.0  0.31500  0.96300  0.65800  1.0000
  O   O19       1.0  0.13800  0.85900  0.68600  1.0000
  O   O20       1.0  0.95400  0.29300  0.72100  1.0000
  O   O21       1.0  0.84100  0.07130  0.77500  1.0000
  O   O22       1.0  0.13800  0.49100  0.77600  1.0000
  O   O23       1.0  0.66000  0.95300  0.79500  1.0000
  O   O24       1.0  0.18000  0.18700  0.92100  1.0000
  O   O25       1.0  0.70000  0.60200  0.97800  1.0000
  O   O26       1.0  0.30400  0.71500  0.98500  1.0000
  P   P1        1.0  0.78900  0.65600  0.18500  1.0000
  P   P2        1.0  0.31400  0.58700  0.19700  1.0000
  P   P3        1.0  0.13500  0.78500  0.38300  1.0000
  P   P4        1.0  0.65500  0.89300  0.48900  1.0000
  P   P5        1.0  0.34500  0.10700  0.51100  1.0000
  P   P6        1.0  0.86500  0.21500  0.61700  1.0000
  P   P7        1.0  0.68600  0.41300  0.80300  1.0000
  P   P8        1.0  0.21100  0.34400  0.81500  1.0000
  Ti  Ti1       1.0  0.76200  0.05470  0.05460  1.0000
  Ti  Ti2       1.0  0.23800  0.94500  0.94500  1.0000
