data_image0
_chemical_formula_structural       C28V32
_chemical_formula_sum              "C28 V32"
_cell_length_a       8.31397
_cell_length_b       8.31397
_cell_length_c       8.31397
_cell_angle_alpha    90
_cell_angle_beta     90
_cell_angle_gamma    90

_space_group_name_H-M_alt    "P 1"
_space_group_IT_number       1

loop_
  _space_group_symop_operation_xyz
  'x, y, z'

loop_
  _atom_site_type_symbol
  _atom_site_label
  _atom_site_symmetry_multiplicity
  _atom_site_fract_x
  _atom_site_fract_y
  _atom_site_fract_z
  _atom_site_occupancy
  C   C1        1.0  0.37500  0.37100  0.12100  1.0000
  C   C2        1.0  0.62500  0.12600  0.12400  1.0000
  C   C3        1.0  0.12500  0.12500  0.12500  1.0000
  C   C4        1.0  0.62900  0.62100  0.12500  1.0000
  C   C5        1.0  0.37400  0.87600  0.12500  1.0000
  C   C6        1.0  0.12400  0.62500  0.12600  1.0000
  C   C7        1.0  0.87900  0.87500  0.12900  1.0000
  C   C8        1.0  0.12100  0.37500  0.37100  1.0000
  C   C9        1.0  0.87600  0.12500  0.37400  1.0000
  C   C10       1.0  0.37100  0.12100  0.37500  1.0000
  C   C11       1.0  0.62600  0.37600  0.37500  1.0000
  C   C12       1.0  0.87500  0.62500  0.37500  1.0000
  C   C13       1.0  0.37500  0.62600  0.37600  1.0000
  C   C14       1.0  0.62500  0.87100  0.37900  1.0000
  C   C15       1.0  0.12500  0.62900  0.62100  1.0000
  C   C16       1.0  0.87500  0.87400  0.62400  1.0000
  C   C17       1.0  0.12600  0.12400  0.62500  1.0000
  C   C18       1.0  0.87100  0.37900  0.62500  1.0000
  C   C19       1.0  0.37500  0.87500  0.62500  1.0000
  C   C20       1.0  0.37600  0.37500  0.62600  1.0000
  C   C21       1.0  0.62100  0.12500  0.62900  1.0000
  C   C22       1.0  0.37900  0.62500  0.87100  1.0000
  C   C23       1.0  0.62400  0.87500  0.87400  1.0000
  C   C24       1.0  0.62500  0.37500  0.87500  1.0000
  C   C25       1.0  0.87400  0.62400  0.87500  1.0000
  C   C26       1.0  0.12900  0.87900  0.87500  1.0000
  C   C27       1.0  0.12500  0.37400  0.87600  1.0000
  C   C28       1.0  0.87500  0.12900  0.87900  1.0000
  V   V1        1.0  0.13100  0.87800  0.10600  1.0000
  V   V2        1.0  0.14400  0.37200  0.11900  1.0000
  V   V3        1.0  0.62200  0.87800  0.12200  1.0000
  V   V4        1.0  0.60600  0.36900  0.12200  1.0000
  V   V5        1.0  0.88100  0.64400  0.12800  1.0000
  V   V6        1.0  0.37200  0.62800  0.12800  1.0000
  V   V7        1.0  0.87800  0.10600  0.13100  1.0000
  V   V8        1.0  0.37200  0.11900  0.14400  1.0000
  V   V9        1.0  0.62800  0.61900  0.35600  1.0000
  V   V10       1.0  0.12200  0.60600  0.36900  1.0000
  V   V11       1.0  0.62800  0.12800  0.37200  1.0000
  V   V12       1.0  0.11900  0.14400  0.37200  1.0000
  V   V13       1.0  0.39400  0.86900  0.37800  1.0000
  V   V14       1.0  0.37800  0.37800  0.37800  1.0000
  V   V15       1.0  0.85600  0.87200  0.38100  1.0000
  V   V16       1.0  0.86900  0.37800  0.39400  1.0000
  V   V17       1.0  0.36900  0.12200  0.60600  1.0000
  V   V18       1.0  0.35600  0.62800  0.61900  1.0000
  V   V19       1.0  0.87800  0.12200  0.62200  1.0000
  V   V20       1.0  0.89400  0.63100  0.62200  1.0000
  V   V21       1.0  0.61900  0.35600  0.62800  1.0000
  V   V22       1.0  0.12800  0.37200  0.62800  1.0000
  V   V23       1.0  0.62200  0.89400  0.63100  1.0000
  V   V24       1.0  0.12800  0.88100  0.64400  1.0000
  V   V25       1.0  0.87200  0.38100  0.85600  1.0000
  V   V26       1.0  0.37800  0.39400  0.86900  1.0000
  V   V27       1.0  0.87200  0.87200  0.87200  1.0000
  V   V28       1.0  0.38100  0.85600  0.87200  1.0000
  V   V29       1.0  0.10600  0.13100  0.87800  1.0000
  V   V30       1.0  0.12200  0.62200  0.87800  1.0000
  V   V31       1.0  0.64400  0.12800  0.88100  1.0000
  V   V32       1.0  0.63100  0.62200  0.89400  1.0000
