data_image0
_chemical_formula_structural       Ba14Fe12S28
_chemical_formula_sum              "Ba14 Fe12 S28"
_cell_length_a       8.25175
_cell_length_b       13.4986
_cell_length_c       14.8503
_cell_angle_alpha    105.815
_cell_angle_beta     106.131
_cell_angle_gamma    107.797

_space_group_name_H-M_alt    "P 1"
_space_group_IT_number       1

loop_
  _space_group_symop_operation_xyz
  'x, y, z'

loop_
  _atom_site_type_symbol
  _atom_site_label
  _atom_site_symmetry_multiplicity
  _atom_site_fract_x
  _atom_site_fract_y
  _atom_site_fract_z
  _atom_site_occupancy
  Ba  Ba1       1.0  0.85100  0.05410  0.07520  1.0000
  Ba  Ba2       1.0  0.27000  0.48800  0.12500  1.0000
  Ba  Ba3       1.0  0.51600  0.88300  0.23400  1.0000
  Ba  Ba4       1.0  0.57100  0.25000  0.25000  1.0000
  Ba  Ba5       1.0  0.90000  0.61700  0.26600  1.0000
  Ba  Ba6       1.0  0.15700  0.01230  0.37500  1.0000
  Ba  Ba7       1.0  0.22200  0.44600  0.42500  1.0000
  Ba  Ba8       1.0  0.77800  0.55400  0.57500  1.0000
  Ba  Ba9       1.0  0.84300  0.98800  0.62500  1.0000
  Ba  Ba10      1.0  0.10000  0.38300  0.73400  1.0000
  Ba  Ba11      1.0  0.42900  0.75000  0.75000  1.0000
  Ba  Ba12      1.0  0.48400  0.11700  0.76600  1.0000
  Ba  Ba13      1.0  0.73000  0.51200  0.87500  1.0000
  Ba  Ba14      1.0  0.14900  0.94600  0.92500  1.0000
  Fe  Fe1       1.0  0.61500  0.74400  0.01430  1.0000
  Fe  Fe2       1.0  0.75600  0.32300  0.04950  1.0000
  Fe  Fe3       1.0  0.99700  0.81100  0.08750  1.0000
  Fe  Fe4       1.0  0.59900  0.68900  0.41200  1.0000
  Fe  Fe5       1.0  0.88400  0.17700  0.45000  1.0000
  Fe  Fe6       1.0  0.35700  0.75600  0.48600  1.0000
  Fe  Fe7       1.0  0.64300  0.24400  0.51400  1.0000
  Fe  Fe8       1.0  0.11600  0.82300  0.55000  1.0000
  Fe  Fe9       1.0  0.40100  0.31100  0.58800  1.0000
  Fe  Fe10      1.0  0.00272  0.18900  0.91200  1.0000
  Fe  Fe11      1.0  0.24400  0.67700  0.95000  1.0000
  Fe  Fe12      1.0  0.38500  0.25600  0.98600  1.0000
  S   S1        1.0  0.54000  0.14300  0.00075  1.0000
  S   S2        1.0  0.60100  0.43700  0.04870  1.0000
  S   S3        1.0  0.11100  0.67100  0.06940  1.0000
  S   S4        1.0  0.20300  0.22600  0.07580  1.0000
  S   S5        1.0  0.22000  0.99000  0.16500  1.0000
  S   S6        1.0  0.81100  0.79500  0.17900  1.0000
  S   S7        1.0  0.94600  0.38400  0.21100  1.0000
  S   S8        1.0  0.85100  0.11600  0.28900  1.0000
  S   S9        1.0  0.33700  0.70500  0.32100  1.0000
  S   S10       1.0  0.56500  0.51000  0.33500  1.0000
  S   S11       1.0  0.40100  0.27400  0.42400  1.0000
  S   S12       1.0  0.87000  0.82900  0.43100  1.0000
  S   S13       1.0  0.61600  0.06310  0.45100  1.0000
  S   S14       1.0  0.89700  0.35700  0.49900  1.0000
  S   S15       1.0  0.10300  0.64300  0.50100  1.0000
  S   S16       1.0  0.38400  0.93700  0.54900  1.0000
  S   S17       1.0  0.13000  0.17100  0.56900  1.0000
  S   S18       1.0  0.59900  0.72600  0.57600  1.0000
  S   S19       1.0  0.43500  0.49000  0.66500  1.0000
  S   S20       1.0  0.66300  0.29500  0.67900  1.0000
  S   S21       1.0  0.14900  0.88400  0.71100  1.0000
  S   S22       1.0  0.05390  0.61600  0.78900  1.0000
  S   S23       1.0  0.18900  0.20500  0.82100  1.0000
  S   S24       1.0  0.78000  0.00987  0.83500  1.0000
  S   S25       1.0  0.79700  0.77400  0.92400  1.0000
  S   S26       1.0  0.88900  0.32900  0.93100  1.0000
  S   S27       1.0  0.39900  0.56300  0.95100  1.0000
  S   S28       1.0  0.46000  0.85700  0.99900  1.0000
