data_image0
_chemical_formula_structural       Cr2H26N4O20P4
_chemical_formula_sum              "Cr2 H26 N4 O20 P4"
_cell_length_a       6.86872
_cell_length_b       8.09812
_cell_length_c       9.18434
_cell_angle_alpha    73.822
_cell_angle_beta     98.6956
_cell_angle_gamma    77.3656

_space_group_name_H-M_alt    "P 1"
_space_group_IT_number       1

loop_
  _space_group_symop_operation_xyz
  'x, y, z'

loop_
  _atom_site_type_symbol
  _atom_site_label
  _atom_site_symmetry_multiplicity
  _atom_site_fract_x
  _atom_site_fract_y
  _atom_site_fract_z
  _atom_site_occupancy
  Cr  Cr1       1.0  0.76000  0.81900  0.30200  1.0000
  Cr  Cr2       1.0  0.24000  0.18100  0.69800  1.0000
  H   H1        1.0  0.73100  0.92900  0.00034  1.0000
  H   H2        1.0  0.21700  0.58100  0.01460  1.0000
  H   H3        1.0  0.85000  0.05080  0.07450  1.0000
  H   H4        1.0  0.97500  0.84100  0.08990  1.0000
  H   H5        1.0  0.21700  0.29400  0.10200  1.0000
  H   H6        1.0  0.11500  0.19100  0.23100  1.0000
  H   H7        1.0  0.47800  0.11400  0.26300  1.0000
  H   H8        1.0  0.71300  0.14600  0.29600  1.0000
  H   H9        1.0  0.14600  0.77200  0.38500  1.0000
  H   H10       1.0  0.31700  0.21200  0.41900  1.0000
  H   H11       1.0  0.20800  0.41300  0.42600  1.0000
  H   H12       1.0  0.95500  0.18300  0.47700  1.0000
  H   H13       1.0  0.54800  0.68300  0.49100  1.0000
  H   H14       1.0  0.45200  0.31700  0.50900  1.0000
  H   H15       1.0  0.04470  0.81700  0.52300  1.0000
  H   H16       1.0  0.79200  0.58700  0.57400  1.0000
  H   H17       1.0  0.68300  0.78800  0.58100  1.0000
  H   H18       1.0  0.85400  0.22800  0.61500  1.0000
  H   H19       1.0  0.28700  0.85400  0.70400  1.0000
  H   H20       1.0  0.52200  0.88600  0.73700  1.0000
  H   H21       1.0  0.88500  0.80900  0.76900  1.0000
  H   H22       1.0  0.78300  0.70600  0.89800  1.0000
  H   H23       1.0  0.02540  0.15900  0.91000  1.0000
  H   H24       1.0  0.15000  0.94900  0.92600  1.0000
  H   H25       1.0  0.78300  0.41900  0.98500  1.0000
  H   H26       1.0  0.26900  0.07070  0.00000  1.0000
  N   N1        1.0  0.83900  0.92300  0.09390  1.0000
  N   N2        1.0  0.31100  0.29200  0.48800  1.0000
  N   N3        1.0  0.68900  0.70800  0.51200  1.0000
  N   N4        1.0  0.16100  0.07730  0.90600  1.0000
  O   O1        1.0  0.78900  0.52800  0.04440  1.0000
  O   O2        1.0  0.21900  0.70000  0.07420  1.0000
  O   O3        1.0  0.50200  0.82000  0.17100  1.0000
  O   O4        1.0  0.24200  0.18300  0.19100  1.0000
  O   O5        1.0  0.55700  0.48400  0.23600  1.0000
  O   O6        1.0  0.88800  0.25900  0.28800  1.0000
  O   O7        1.0  0.89000  0.56800  0.30700  1.0000
  O   O8        1.0  0.62800  0.05910  0.31700  1.0000
  O   O9        1.0  0.32400  0.65300  0.36400  1.0000
  O   O10       1.0  0.02050  0.85100  0.40600  1.0000
  O   O11       1.0  0.97900  0.14900  0.59400  1.0000
  O   O12       1.0  0.67600  0.34700  0.63600  1.0000
  O   O13       1.0  0.37200  0.94100  0.68300  1.0000
  O   O14       1.0  0.11000  0.43200  0.69300  1.0000
  O   O15       1.0  0.11200  0.74100  0.71200  1.0000
  O   O16       1.0  0.44300  0.51600  0.76400  1.0000
  O   O17       1.0  0.75800  0.81700  0.80900  1.0000
  O   O18       1.0  0.49800  0.18000  0.82900  1.0000
  O   O19       1.0  0.78100  0.30000  0.92600  1.0000
  O   O20       1.0  0.21100  0.47200  0.95600  1.0000
  P   P1        1.0  0.39200  0.67400  0.21300  1.0000
  P   P2        1.0  0.79200  0.46100  0.22000  1.0000
  P   P3        1.0  0.20800  0.53900  0.78000  1.0000
  P   P4        1.0  0.60800  0.32600  0.78700  1.0000
