data_image0
_chemical_formula_structural       Br34Nb12Rb6S2
_chemical_formula_sum              "Br34 Nb12 Rb6 S2"
_cell_length_a       9.5699
_cell_length_b       13.1384
_cell_length_c       13.1384
_cell_angle_alpha    94.7036
_cell_angle_beta     90.9198
_cell_angle_gamma    90.9198

_space_group_name_H-M_alt    "P 1"
_space_group_IT_number       1

loop_
  _space_group_symop_operation_xyz
  'x, y, z'

loop_
  _atom_site_type_symbol
  _atom_site_label
  _atom_site_symmetry_multiplicity
  _atom_site_fract_x
  _atom_site_fract_y
  _atom_site_fract_z
  _atom_site_occupancy
  Br  Br1       1.0  0.11000  0.87300  0.00929  1.0000
  Br  Br2       1.0  0.52300  0.25500  0.03170  1.0000
  Br  Br3       1.0  0.31600  0.51000  0.06480  1.0000
  Br  Br4       1.0  0.97400  0.65000  0.09880  1.0000
  Br  Br5       1.0  0.75000  0.88200  0.11800  1.0000
  Br  Br6       1.0  0.39000  0.99100  0.12700  1.0000
  Br  Br7       1.0  0.83500  0.36300  0.14500  1.0000
  Br  Br8       1.0  0.62000  0.64000  0.20100  1.0000
  Br  Br9       1.0  0.02290  0.03170  0.25500  1.0000
  Br  Br10      1.0  0.43800  0.43400  0.31000  1.0000
  Br  Br11      1.0  0.10400  0.56100  0.31100  1.0000
  Br  Br12      1.0  0.52600  0.90100  0.35000  1.0000
  Br  Br13      1.0  0.88000  0.79900  0.36000  1.0000
  Br  Br14      1.0  0.33500  0.14500  0.36300  1.0000
  Br  Br15      1.0  0.93800  0.31000  0.43400  1.0000
  Br  Br16      1.0  0.39600  0.68900  0.43900  1.0000
  Br  Br17      1.0  0.18400  0.93500  0.49000  1.0000
  Br  Br18      1.0  0.81600  0.06480  0.51000  1.0000
  Br  Br19      1.0  0.60400  0.31100  0.56100  1.0000
  Br  Br20      1.0  0.06180  0.69000  0.56600  1.0000
  Br  Br21      1.0  0.66500  0.85500  0.63700  1.0000
  Br  Br22      1.0  0.12000  0.20100  0.64000  1.0000
  Br  Br23      1.0  0.47400  0.09880  0.65000  1.0000
  Br  Br24      1.0  0.89600  0.43900  0.68900  1.0000
  Br  Br25      1.0  0.56200  0.56600  0.69000  1.0000
  Br  Br26      1.0  0.97700  0.96800  0.74500  1.0000
  Br  Br27      1.0  0.38000  0.36000  0.79900  1.0000
  Br  Br28      1.0  0.16500  0.63700  0.85500  1.0000
  Br  Br29      1.0  0.61000  0.00929  0.87300  1.0000
  Br  Br30      1.0  0.25000  0.11800  0.88200  1.0000
  Br  Br31      1.0  0.02640  0.35000  0.90100  1.0000
  Br  Br32      1.0  0.68400  0.49000  0.93500  1.0000
  Br  Br33      1.0  0.47700  0.74500  0.96800  1.0000
  Br  Br34      1.0  0.89000  0.12700  0.99100  1.0000
  Nb  Nb1       1.0  0.23800  0.69800  0.05200  1.0000
  Nb  Nb2       1.0  0.48100  0.80300  0.16400  1.0000
  Nb  Nb3       1.0  0.01910  0.83600  0.19700  1.0000
  Nb  Nb4       1.0  0.35600  0.61700  0.24000  1.0000
  Nb  Nb5       1.0  0.26200  0.94800  0.30200  1.0000
  Nb  Nb6       1.0  0.14400  0.76000  0.38300  1.0000
  Nb  Nb7       1.0  0.85600  0.24000  0.61700  1.0000
  Nb  Nb8       1.0  0.73800  0.05200  0.69800  1.0000
  Nb  Nb9       1.0  0.64400  0.38300  0.76000  1.0000
  Nb  Nb10      1.0  0.98100  0.16400  0.80300  1.0000
  Nb  Nb11      1.0  0.51900  0.19700  0.83600  1.0000
  Nb  Nb12      1.0  0.76200  0.30200  0.94800  1.0000
  Rb  Rb1       1.0  0.16800  0.27400  0.16800  1.0000
  Rb  Rb2       1.0  0.66800  0.16800  0.27400  1.0000
  Rb  Rb3       1.0  0.75000  0.54400  0.45600  1.0000
  Rb  Rb4       1.0  0.25000  0.45600  0.54400  1.0000
  Rb  Rb5       1.0  0.33200  0.83200  0.72600  1.0000
  Rb  Rb6       1.0  0.83200  0.72600  0.83200  1.0000
  S   S1        1.0  0.25000  0.77700  0.22300  1.0000
  S   S2        1.0  0.75000  0.22300  0.77700  1.0000
