data_image0
_chemical_formula_structural       Al9B12Eu3O34
_chemical_formula_sum              "Al9 B12 Eu3 O34"
_cell_length_a       5.90145
_cell_length_b       5.90145
_cell_length_c       16.1864
_cell_angle_alpha    90.4955
_cell_angle_beta     90.4955
_cell_angle_gamma    104.088

_space_group_name_H-M_alt    "P 1"
_space_group_IT_number       1

loop_
  _space_group_symop_operation_xyz
  'x, y, z'

loop_
  _atom_site_type_symbol
  _atom_site_label
  _atom_site_symmetry_multiplicity
  _atom_site_fract_x
  _atom_site_fract_y
  _atom_site_fract_z
  _atom_site_occupancy
  Al  Al1       1.0  0.01790  0.57600  0.01660  1.0000
  Al  Al2       1.0  0.71500  0.61700  0.15900  1.0000
  Al  Al3       1.0  0.75600  0.34800  0.31100  1.0000
  Al  Al4       1.0  0.31500  0.91400  0.35500  1.0000
  Al  Al5       1.0  0.37900  0.62100  0.50000  1.0000
  Al  Al6       1.0  0.08620  0.68500  0.64500  1.0000
  Al  Al7       1.0  0.65200  0.24400  0.68900  1.0000
  Al  Al8       1.0  0.38300  0.28500  0.84100  1.0000
  Al  Al9       1.0  0.42400  0.98200  0.98300  1.0000
  B   B1        1.0  0.93700  0.06250  0.00000  1.0000
  B   B2        1.0  0.49500  0.50500  0.00000  1.0000
  B   B3        1.0  0.64700  0.09370  0.15100  1.0000
  B   B4        1.0  0.24300  0.68900  0.18700  1.0000
  B   B5        1.0  0.84900  0.83800  0.32300  1.0000
  B   B6        1.0  0.26800  0.39300  0.33800  1.0000
  B   B7        1.0  0.84600  0.55200  0.48300  1.0000
  B   B8        1.0  0.44800  0.15400  0.51700  1.0000
  B   B9        1.0  0.60700  0.73200  0.66200  1.0000
  B   B10       1.0  0.16200  0.15100  0.67700  1.0000
  B   B11       1.0  0.31100  0.75700  0.81300  1.0000
  B   B12       1.0  0.90600  0.35300  0.84900  1.0000
  Eu  Eu1       1.0  0.16900  0.17000  0.16400  1.0000
  Eu  Eu2       1.0  0.91500  0.08520  0.50000  1.0000
  Eu  Eu3       1.0  0.83000  0.83100  0.83600  1.0000
  O   O1        1.0  0.34700  0.65300  0.00000  1.0000
  O   O2        1.0  0.08790  0.91200  0.00000  1.0000
  O   O3        1.0  0.00930  0.27100  0.04050  1.0000
  O   O4        1.0  0.69800  0.55900  0.04730  1.0000
  O   O5        1.0  0.47600  0.06420  0.09320  1.0000
  O   O6        1.0  0.04110  0.64600  0.13900  1.0000
  O   O7        1.0  0.77500  0.93700  0.17000  1.0000
  O   O8        1.0  0.40100  0.56000  0.17400  1.0000
  O   O9        1.0  0.69500  0.29900  0.20000  1.0000
  O   O10       1.0  0.27300  0.85900  0.24800  1.0000
  O   O11       1.0  0.75200  0.64500  0.28400  1.0000
  O   O12       1.0  0.05930  0.32600  0.29700  1.0000
  O   O13       1.0  0.42300  0.24300  0.33400  1.0000
  O   O14       1.0  0.01110  0.91900  0.37700  1.0000
  O   O15       1.0  0.32700  0.60500  0.38200  1.0000
  O   O16       1.0  0.81600  0.38500  0.42200  1.0000
  O   O17       1.0  0.41300  0.95100  0.46700  1.0000
  O   O18       1.0  0.69700  0.68700  0.49800  1.0000
  O   O19       1.0  0.31300  0.30300  0.50200  1.0000
  O   O20       1.0  0.04940  0.58700  0.53300  1.0000
  O   O21       1.0  0.61500  0.18400  0.57800  1.0000
  O   O22       1.0  0.39500  0.67300  0.61800  1.0000
  O   O23       1.0  0.08130  0.98900  0.62300  1.0000
  O   O24       1.0  0.75700  0.57700  0.66600  1.0000
  O   O25       1.0  0.67400  0.94100  0.70300  1.0000
  O   O26       1.0  0.35500  0.24800  0.71600  1.0000
  O   O27       1.0  0.14100  0.72700  0.75200  1.0000
  O   O28       1.0  0.70100  0.30500  0.80000  1.0000
  O   O29       1.0  0.44000  0.59900  0.82600  1.0000
  O   O30       1.0  0.06340  0.22500  0.83000  1.0000
  O   O31       1.0  0.35400  0.95900  0.86100  1.0000
  O   O32       1.0  0.93600  0.52400  0.90700  1.0000
  O   O33       1.0  0.44100  0.30200  0.95300  1.0000
  O   O34       1.0  0.72900  0.99100  0.95900  1.0000
