data_image0
_chemical_formula_structural       C16F8Mn4N4O20S4
_chemical_formula_sum              "C16 F8 Mn4 N4 O20 S4"
_cell_length_a       9.6217
_cell_length_b       11.3484
_cell_length_c       6.9188
_cell_angle_alpha    90
_cell_angle_beta     101.545
_cell_angle_gamma    90

_space_group_name_H-M_alt    "P 1"
_space_group_IT_number       1

loop_
  _space_group_symop_operation_xyz
  'x, y, z'

loop_
  _atom_site_type_symbol
  _atom_site_label
  _atom_site_symmetry_multiplicity
  _atom_site_fract_x
  _atom_site_fract_y
  _atom_site_fract_z
  _atom_site_occupancy
  C   C1        1.0  0.26600  0.17100  0.02240  1.0000
  C   C2        1.0  0.68700  0.03980  0.09290  1.0000
  C   C3        1.0  0.59700  0.42000  0.21900  1.0000
  C   C4        1.0  0.23500  0.99900  0.24800  1.0000
  C   C5        1.0  0.26500  0.49900  0.25200  1.0000
  C   C6        1.0  0.90300  0.92000  0.28100  1.0000
  C   C7        1.0  0.81300  0.54000  0.40700  1.0000
  C   C8        1.0  0.23400  0.67100  0.47800  1.0000
  C   C9        1.0  0.76600  0.32900  0.52200  1.0000
  C   C10       1.0  0.18700  0.46000  0.59300  1.0000
  C   C11       1.0  0.09680  0.08010  0.71900  1.0000
  C   C12       1.0  0.73500  0.50100  0.74800  1.0000
  C   C13       1.0  0.76500  0.00116  0.75200  1.0000
  C   C14       1.0  0.40300  0.58000  0.78100  1.0000
  C   C15       1.0  0.31300  0.96000  0.90700  1.0000
  C   C16       1.0  0.73400  0.82900  0.97800  1.0000
  F   F1        1.0  0.00274  0.68500  0.06680  1.0000
  F   F2        1.0  0.43100  0.78200  0.23500  1.0000
  F   F3        1.0  0.06910  0.28200  0.26500  1.0000
  F   F4        1.0  0.49700  0.18500  0.43300  1.0000
  F   F5        1.0  0.50300  0.81500  0.56700  1.0000
  F   F6        1.0  0.93100  0.71800  0.73500  1.0000
  F   F7        1.0  0.56900  0.21800  0.76500  1.0000
  F   F8        1.0  0.99700  0.31500  0.93300  1.0000
  Mn  Mn1       1.0  0.83600  0.96400  0.01800  1.0000
  Mn  Mn2       1.0  0.66400  0.46400  0.48200  1.0000
  Mn  Mn3       1.0  0.33600  0.53600  0.51800  1.0000
  Mn  Mn4       1.0  0.16400  0.03590  0.98200  1.0000
  N   N1        1.0  0.97900  0.10600  0.05220  1.0000
  N   N2        1.0  0.52100  0.60600  0.44800  1.0000
  N   N3        1.0  0.47900  0.39400  0.55200  1.0000
  N   N4        1.0  0.02130  0.89400  0.94800  1.0000
  O   O1        1.0  0.33100  0.25700  0.05280  1.0000
  O   O2        1.0  0.55800  0.39100  0.05800  1.0000
  O   O3        1.0  0.21500  0.48200  0.08890  1.0000
  O   O4        1.0  0.81700  0.27500  0.12300  1.0000
  O   O5        1.0  0.59000  0.08220  0.14100  1.0000
  O   O6        1.0  0.91000  0.58200  0.35900  1.0000
  O   O7        1.0  0.68300  0.77500  0.37700  1.0000
  O   O8        1.0  0.28500  0.98200  0.41100  1.0000
  O   O9        1.0  0.94200  0.89100  0.44200  1.0000
  O   O10       1.0  0.16900  0.75700  0.44700  1.0000
  O   O11       1.0  0.83100  0.24300  0.55300  1.0000
  O   O12       1.0  0.05850  0.10900  0.55800  1.0000
  O   O13       1.0  0.71500  0.01790  0.58900  1.0000
  O   O14       1.0  0.31700  0.22500  0.62300  1.0000
  O   O15       1.0  0.09040  0.41800  0.64100  1.0000
  O   O16       1.0  0.41000  0.91800  0.85900  1.0000
  O   O17       1.0  0.18300  0.72500  0.87700  1.0000
  O   O18       1.0  0.78500  0.51800  0.91100  1.0000
  O   O19       1.0  0.44200  0.60900  0.94200  1.0000
  O   O20       1.0  0.66900  0.74300  0.94700  1.0000
  S   S1        1.0  0.94900  0.23000  0.09160  1.0000
  S   S2        1.0  0.55100  0.73000  0.40800  1.0000
  S   S3        1.0  0.44900  0.27000  0.59200  1.0000
  S   S4        1.0  0.05080  0.77000  0.90800  1.0000
