data_image0
_chemical_formula_structural       La20S38
_chemical_formula_sum              "La20 S38"
_cell_length_a       9.12744
_cell_length_b       9.12744
_cell_length_c       16.3367
_cell_angle_alpha    90
_cell_angle_beta     90
_cell_angle_gamma    90

_space_group_name_H-M_alt    "P 1"
_space_group_IT_number       1

loop_
  _space_group_symop_operation_xyz
  'x, y, z'

loop_
  _atom_site_type_symbol
  _atom_site_label
  _atom_site_symmetry_multiplicity
  _atom_site_fract_x
  _atom_site_fract_y
  _atom_site_fract_z
  _atom_site_occupancy
  La  La1       1.0  0.64700  0.55600  0.10200  1.0000
  La  La2       1.0  0.85300  0.94400  0.10200  1.0000
  La  La3       1.0  0.25000  0.75000  0.11300  1.0000
  La  La4       1.0  0.45900  0.15200  0.12300  1.0000
  La  La5       1.0  0.04140  0.34800  0.12300  1.0000
  La  La6       1.0  0.15200  0.04140  0.37700  1.0000
  La  La7       1.0  0.34800  0.45900  0.37700  1.0000
  La  La8       1.0  0.75000  0.25000  0.38700  1.0000
  La  La9       1.0  0.94400  0.64700  0.39800  1.0000
  La  La10      1.0  0.55600  0.85300  0.39800  1.0000
  La  La11      1.0  0.44400  0.14700  0.60200  1.0000
  La  La12      1.0  0.05590  0.35300  0.60200  1.0000
  La  La13      1.0  0.25000  0.75000  0.61300  1.0000
  La  La14      1.0  0.65200  0.54100  0.62300  1.0000
  La  La15      1.0  0.84800  0.95900  0.62300  1.0000
  La  La16      1.0  0.95900  0.65200  0.87700  1.0000
  La  La17      1.0  0.54100  0.84800  0.87700  1.0000
  La  La18      1.0  0.75000  0.25000  0.88700  1.0000
  La  La19      1.0  0.14700  0.05590  0.89800  1.0000
  La  La20      1.0  0.35300  0.44400  0.89800  1.0000
  S   S1        1.0  0.94600  0.64800  0.06240  1.0000
  S   S2        1.0  0.55400  0.85200  0.06240  1.0000
  S   S3        1.0  0.75000  0.25000  0.06720  1.0000
  S   S4        1.0  0.15100  0.04880  0.07560  1.0000
  S   S5        1.0  0.34900  0.45100  0.07560  1.0000
  S   S6        1.0  0.47000  0.69800  0.24900  1.0000
  S   S7        1.0  0.03040  0.80200  0.24900  1.0000
  S   S8        1.0  0.91900  0.10900  0.25000  1.0000
  S   S9        1.0  0.58100  0.39100  0.25000  1.0000
  S   S10       1.0  0.25000  0.25000  0.25000  1.0000
  S   S11       1.0  0.10900  0.58100  0.25000  1.0000
  S   S12       1.0  0.39100  0.91900  0.25000  1.0000
  S   S13       1.0  0.69800  0.03040  0.25100  1.0000
  S   S14       1.0  0.80200  0.47000  0.25100  1.0000
  S   S15       1.0  0.45100  0.15100  0.42400  1.0000
  S   S16       1.0  0.04880  0.34900  0.42400  1.0000
  S   S17       1.0  0.25000  0.75000  0.43300  1.0000
  S   S18       1.0  0.64800  0.55400  0.43800  1.0000
  S   S19       1.0  0.85200  0.94600  0.43800  1.0000
  S   S20       1.0  0.14800  0.05370  0.56200  1.0000
  S   S21       1.0  0.35200  0.44600  0.56200  1.0000
  S   S22       1.0  0.75000  0.25000  0.56700  1.0000
  S   S23       1.0  0.95100  0.65100  0.57600  1.0000
  S   S24       1.0  0.54900  0.84900  0.57600  1.0000
  S   S25       1.0  0.19800  0.53000  0.74900  1.0000
  S   S26       1.0  0.30200  0.97000  0.74900  1.0000
  S   S27       1.0  0.60900  0.08060  0.75000  1.0000
  S   S28       1.0  0.89100  0.41900  0.75000  1.0000
  S   S29       1.0  0.75000  0.75000  0.75000  1.0000
  S   S30       1.0  0.41900  0.60900  0.75000  1.0000
  S   S31       1.0  0.08060  0.89100  0.75000  1.0000
  S   S32       1.0  0.97000  0.19800  0.75100  1.0000
  S   S33       1.0  0.53000  0.30200  0.75100  1.0000
  S   S34       1.0  0.65100  0.54900  0.92400  1.0000
  S   S35       1.0  0.84900  0.95100  0.92400  1.0000
  S   S36       1.0  0.25000  0.75000  0.93300  1.0000
  S   S37       1.0  0.44600  0.14800  0.93800  1.0000
  S   S38       1.0  0.05370  0.35200  0.93800  1.0000
