data_image0
_chemical_formula_structural       Nd20S38
_chemical_formula_sum              "Nd20 S38"
_cell_length_a       8.94521
_cell_length_b       8.94521
_cell_length_c       16.202
_cell_angle_alpha    90
_cell_angle_beta     90
_cell_angle_gamma    90

_space_group_name_H-M_alt    "P 1"
_space_group_IT_number       1

loop_
  _space_group_symop_operation_xyz
  'x, y, z'

loop_
  _atom_site_type_symbol
  _atom_site_label
  _atom_site_symmetry_multiplicity
  _atom_site_fract_x
  _atom_site_fract_y
  _atom_site_fract_z
  _atom_site_occupancy
  Nd  Nd1       1.0  0.64600  0.55500  0.10300  1.0000
  Nd  Nd2       1.0  0.85400  0.94500  0.10300  1.0000
  Nd  Nd3       1.0  0.25000  0.75000  0.11400  1.0000
  Nd  Nd4       1.0  0.45900  0.15200  0.12200  1.0000
  Nd  Nd5       1.0  0.04090  0.34800  0.12200  1.0000
  Nd  Nd6       1.0  0.15200  0.04090  0.37800  1.0000
  Nd  Nd7       1.0  0.34800  0.45900  0.37800  1.0000
  Nd  Nd8       1.0  0.75000  0.25000  0.38600  1.0000
  Nd  Nd9       1.0  0.94500  0.64600  0.39700  1.0000
  Nd  Nd10      1.0  0.55500  0.85400  0.39700  1.0000
  Nd  Nd11      1.0  0.44500  0.14600  0.60300  1.0000
  Nd  Nd12      1.0  0.05550  0.35400  0.60300  1.0000
  Nd  Nd13      1.0  0.25000  0.75000  0.61400  1.0000
  Nd  Nd14      1.0  0.65200  0.54100  0.62200  1.0000
  Nd  Nd15      1.0  0.84800  0.95900  0.62200  1.0000
  Nd  Nd16      1.0  0.95900  0.65200  0.87800  1.0000
  Nd  Nd17      1.0  0.54100  0.84800  0.87800  1.0000
  Nd  Nd18      1.0  0.75000  0.25000  0.88600  1.0000
  Nd  Nd19      1.0  0.14600  0.05550  0.89700  1.0000
  Nd  Nd20      1.0  0.35400  0.44500  0.89700  1.0000
  S   S1        1.0  0.94700  0.64800  0.06210  1.0000
  S   S2        1.0  0.55300  0.85200  0.06210  1.0000
  S   S3        1.0  0.75000  0.25000  0.06570  1.0000
  S   S4        1.0  0.15200  0.04930  0.07370  1.0000
  S   S5        1.0  0.34800  0.45100  0.07370  1.0000
  S   S6        1.0  0.47000  0.69500  0.24900  1.0000
  S   S7        1.0  0.03010  0.80500  0.24900  1.0000
  S   S8        1.0  0.92300  0.11100  0.25000  1.0000
  S   S9        1.0  0.57700  0.38900  0.25000  1.0000
  S   S10       1.0  0.25000  0.25000  0.25000  1.0000
  S   S11       1.0  0.11100  0.57700  0.25000  1.0000
  S   S12       1.0  0.38900  0.92300  0.25000  1.0000
  S   S13       1.0  0.69500  0.03010  0.25100  1.0000
  S   S14       1.0  0.80500  0.47000  0.25100  1.0000
  S   S15       1.0  0.45100  0.15200  0.42600  1.0000
  S   S16       1.0  0.04930  0.34800  0.42600  1.0000
  S   S17       1.0  0.25000  0.75000  0.43400  1.0000
  S   S18       1.0  0.64800  0.55300  0.43800  1.0000
  S   S19       1.0  0.85200  0.94700  0.43800  1.0000
  S   S20       1.0  0.14800  0.05290  0.56200  1.0000
  S   S21       1.0  0.35200  0.44700  0.56200  1.0000
  S   S22       1.0  0.75000  0.25000  0.56600  1.0000
  S   S23       1.0  0.95100  0.65200  0.57400  1.0000
  S   S24       1.0  0.54900  0.84800  0.57400  1.0000
  S   S25       1.0  0.19500  0.53000  0.74900  1.0000
  S   S26       1.0  0.30500  0.97000  0.74900  1.0000
  S   S27       1.0  0.61100  0.07670  0.75000  1.0000
  S   S28       1.0  0.88900  0.42300  0.75000  1.0000
  S   S29       1.0  0.75000  0.75000  0.75000  1.0000
  S   S30       1.0  0.42300  0.61100  0.75000  1.0000
  S   S31       1.0  0.07670  0.88900  0.75000  1.0000
  S   S32       1.0  0.97000  0.19500  0.75100  1.0000
  S   S33       1.0  0.53000  0.30500  0.75100  1.0000
  S   S34       1.0  0.65200  0.54900  0.92600  1.0000
  S   S35       1.0  0.84800  0.95100  0.92600  1.0000
  S   S36       1.0  0.25000  0.75000  0.93400  1.0000
  S   S37       1.0  0.44700  0.14800  0.93800  1.0000
  S   S38       1.0  0.05290  0.35200  0.93800  1.0000
