data_image0
_chemical_formula_structural       O42V18
_chemical_formula_sum              "O42 V18"
_cell_length_a       3.65327
_cell_length_b       11.053
_cell_length_c       18.2538
_cell_angle_alpha    96.5182
_cell_angle_beta     90
_cell_angle_gamma    99.5125

_space_group_name_H-M_alt    "P 1"
_space_group_IT_number       1

loop_
  _space_group_symop_operation_xyz
  'x, y, z'

loop_
  _atom_site_type_symbol
  _atom_site_label
  _atom_site_symmetry_multiplicity
  _atom_site_fract_x
  _atom_site_fract_y
  _atom_site_fract_z
  _atom_site_occupancy
  O   O1        1.0  0.22400  0.94800  0.02430  1.0000
  O   O2        1.0  0.46400  0.42200  0.04580  1.0000
  O   O3        1.0  0.06960  0.61200  0.06460  1.0000
  O   O4        1.0  0.64800  0.78900  0.07030  1.0000
  O   O5        1.0  0.34400  0.19400  0.08450  1.0000
  O   O6        1.0  0.76100  0.01800  0.14100  1.0000
  O   O7        1.0  0.92800  0.36100  0.15100  1.0000
  O   O8        1.0  0.53900  0.57700  0.16800  1.0000
  O   O9        1.0  0.65900  0.82000  0.22300  1.0000
  O   O10       1.0  0.41600  0.33500  0.23000  1.0000
  O   O11       1.0  0.25800  0.00000  0.25000  1.0000
  O   O12       1.0  0.08070  0.66500  0.27000  1.0000
  O   O13       1.0  0.83900  0.18000  0.27700  1.0000
  O   O14       1.0  0.96200  0.42300  0.33200  1.0000
  O   O15       1.0  0.56800  0.63900  0.34900  1.0000
  O   O16       1.0  0.74300  0.98200  0.35900  1.0000
  O   O17       1.0  0.14900  0.80600  0.41600  1.0000
  O   O18       1.0  0.85900  0.21100  0.43000  1.0000
  O   O19       1.0  0.45800  0.38800  0.43500  1.0000
  O   O20       1.0  0.04140  0.57800  0.45400  1.0000
  O   O21       1.0  0.27600  0.05240  0.47600  1.0000
  O   O22       1.0  0.72400  0.94800  0.52400  1.0000
  O   O23       1.0  0.95900  0.42200  0.54600  1.0000
  O   O24       1.0  0.54200  0.61200  0.56500  1.0000
  O   O25       1.0  0.14100  0.78900  0.57000  1.0000
  O   O26       1.0  0.85100  0.19400  0.58400  1.0000
  O   O27       1.0  0.25700  0.01800  0.64100  1.0000
  O   O28       1.0  0.43200  0.36100  0.65100  1.0000
  O   O29       1.0  0.03840  0.57700  0.66800  1.0000
  O   O30       1.0  0.16100  0.82000  0.72300  1.0000
  O   O31       1.0  0.91900  0.33500  0.73000  1.0000
  O   O32       1.0  0.74200  0.00000  0.75000  1.0000
  O   O33       1.0  0.58400  0.66500  0.77000  1.0000
  O   O34       1.0  0.34100  0.18000  0.77700  1.0000
  O   O35       1.0  0.46100  0.42300  0.83200  1.0000
  O   O36       1.0  0.07160  0.63900  0.84900  1.0000
  O   O37       1.0  0.23900  0.98200  0.85900  1.0000
  O   O38       1.0  0.65600  0.80600  0.91600  1.0000
  O   O39       1.0  0.35200  0.21100  0.93000  1.0000
  O   O40       1.0  0.93000  0.38800  0.93500  1.0000
  O   O41       1.0  0.53600  0.57800  0.95400  1.0000
  O   O42       1.0  0.77600  0.05240  0.97600  1.0000
  V   V1        1.0  0.71900  0.93900  0.05580  1.0000
  V   V2        1.0  0.60500  0.60800  0.06300  1.0000
  V   V3        1.0  0.41500  0.33500  0.12200  1.0000
  V   V4        1.0  0.58700  0.67700  0.24600  1.0000
  V   V5        1.0  0.79400  0.00000  0.25000  1.0000
  V   V6        1.0  0.90900  0.32300  0.25400  1.0000
  V   V7        1.0  0.08070  0.66500  0.37800  1.0000
  V   V8        1.0  0.99600  0.39200  0.43700  1.0000
  V   V9        1.0  0.78000  0.06080  0.44400  1.0000
  V   V10       1.0  0.22000  0.93900  0.55600  1.0000
  V   V11       1.0  0.00386  0.60800  0.56300  1.0000
  V   V12       1.0  0.91900  0.33500  0.62200  1.0000
  V   V13       1.0  0.09070  0.67700  0.74600  1.0000
  V   V14       1.0  0.20600  0.00000  0.75000  1.0000
  V   V15       1.0  0.41300  0.32300  0.75400  1.0000
  V   V16       1.0  0.58500  0.66500  0.87800  1.0000
  V   V17       1.0  0.39500  0.39200  0.93700  1.0000
  V   V18       1.0  0.28100  0.06080  0.94400  1.0000
