data_image0
_chemical_formula_structural       Be4F16H32N8
_chemical_formula_sum              "Be4 F16 H32 N8"
_cell_length_a       7.26463
_cell_length_b       9.92425
_cell_length_c       5.7478
_cell_angle_alpha    90
_cell_angle_beta     90
_cell_angle_gamma    90

_space_group_name_H-M_alt    "P 1"
_space_group_IT_number       1

loop_
  _space_group_symop_operation_xyz
  'x, y, z'

loop_
  _atom_site_type_symbol
  _atom_site_label
  _atom_site_symmetry_multiplicity
  _atom_site_fract_x
  _atom_site_fract_y
  _atom_site_fract_z
  _atom_site_occupancy
  Be  Be1       1.0  0.75800  0.08320  0.25000  1.0000
  Be  Be2       1.0  0.25800  0.41700  0.25000  1.0000
  Be  Be3       1.0  0.74200  0.58300  0.75000  1.0000
  Be  Be4       1.0  0.24200  0.91700  0.75000  1.0000
  F   F1        1.0  0.84600  0.13700  0.02480  1.0000
  F   F2        1.0  0.34600  0.36300  0.02480  1.0000
  F   F3        1.0  0.55100  0.12700  0.25000  1.0000
  F   F4        1.0  0.05110  0.37300  0.25000  1.0000
  F   F5        1.0  0.28000  0.57200  0.25000  1.0000
  F   F6        1.0  0.78000  0.92800  0.25000  1.0000
  F   F7        1.0  0.84600  0.13700  0.47500  1.0000
  F   F8        1.0  0.34600  0.36300  0.47500  1.0000
  F   F9        1.0  0.65400  0.63700  0.52500  1.0000
  F   F10       1.0  0.15400  0.86300  0.52500  1.0000
  F   F11       1.0  0.22000  0.07180  0.75000  1.0000
  F   F12       1.0  0.72000  0.42800  0.75000  1.0000
  F   F13       1.0  0.94900  0.62700  0.75000  1.0000
  F   F14       1.0  0.44900  0.87300  0.75000  1.0000
  F   F15       1.0  0.65400  0.63700  0.97500  1.0000
  F   F16       1.0  0.15400  0.86300  0.97500  1.0000
  H   H1        1.0  0.15500  0.04070  0.10500  1.0000
  H   H2        1.0  0.65500  0.45900  0.10500  1.0000
  H   H3        1.0  0.87700  0.67000  0.10600  1.0000
  H   H4        1.0  0.37700  0.83000  0.10600  1.0000
  H   H5        1.0  0.32500  0.12000  0.25000  1.0000
  H   H6        1.0  0.10700  0.18400  0.25000  1.0000
  H   H7        1.0  0.60700  0.31600  0.25000  1.0000
  H   H8        1.0  0.82500  0.38000  0.25000  1.0000
  H   H9        1.0  0.08000  0.63900  0.25000  1.0000
  H   H10       1.0  0.48500  0.70700  0.25000  1.0000
  H   H11       1.0  0.98500  0.79300  0.25000  1.0000
  H   H12       1.0  0.58000  0.86100  0.25000  1.0000
  H   H13       1.0  0.87700  0.67000  0.39400  1.0000
  H   H14       1.0  0.37700  0.83000  0.39400  1.0000
  H   H15       1.0  0.15500  0.04070  0.39500  1.0000
  H   H16       1.0  0.65500  0.45900  0.39500  1.0000
  H   H17       1.0  0.34500  0.54100  0.60500  1.0000
  H   H18       1.0  0.84500  0.95900  0.60500  1.0000
  H   H19       1.0  0.62300  0.17000  0.60600  1.0000
  H   H20       1.0  0.12300  0.33000  0.60600  1.0000
  H   H21       1.0  0.42000  0.13900  0.75000  1.0000
  H   H22       1.0  0.01480  0.20700  0.75000  1.0000
  H   H23       1.0  0.51500  0.29300  0.75000  1.0000
  H   H24       1.0  0.92000  0.36100  0.75000  1.0000
  H   H25       1.0  0.17500  0.62000  0.75000  1.0000
  H   H26       1.0  0.39300  0.68400  0.75000  1.0000
  H   H27       1.0  0.89300  0.81600  0.75000  1.0000
  H   H28       1.0  0.67500  0.88000  0.75000  1.0000
  H   H29       1.0  0.62300  0.17000  0.89400  1.0000
  H   H30       1.0  0.12300  0.33000  0.89400  1.0000
  H   H31       1.0  0.34500  0.54100  0.89500  1.0000
  H   H32       1.0  0.84500  0.95900  0.89500  1.0000
  N   N1        1.0  0.18500  0.09770  0.25000  1.0000
  N   N2        1.0  0.68500  0.40200  0.25000  1.0000
  N   N3        1.0  0.95600  0.69200  0.25000  1.0000
  N   N4        1.0  0.45600  0.80800  0.25000  1.0000
  N   N5        1.0  0.54400  0.19200  0.75000  1.0000
  N   N6        1.0  0.04400  0.30800  0.75000  1.0000
  N   N7        1.0  0.31500  0.59800  0.75000  1.0000
  N   N8        1.0  0.81500  0.90200  0.75000  1.0000
