data_image0
_chemical_formula_structural       Cu4Ge2H20O28P4
_chemical_formula_sum              "Cu4 Ge2 H20 O28 P4"
_cell_length_a       5.05406
_cell_length_b       8.206
_cell_length_c       12.2251
_cell_angle_alpha    90
_cell_angle_beta     91.7588
_cell_angle_gamma    90

_space_group_name_H-M_alt    "P 1"
_space_group_IT_number       1

loop_
  _space_group_symop_operation_xyz
  'x, y, z'

loop_
  _atom_site_type_symbol
  _atom_site_label
  _atom_site_symmetry_multiplicity
  _atom_site_fract_x
  _atom_site_fract_y
  _atom_site_fract_z
  _atom_site_occupancy
  Cu  Cu1       1.0  0.76400  0.53800  0.23100  1.0000
  Cu  Cu2       1.0  0.73600  0.03840  0.26900  1.0000
  Cu  Cu3       1.0  0.26400  0.96200  0.73100  1.0000
  Cu  Cu4       1.0  0.23600  0.46200  0.76900  1.0000
  Ge  Ge1       1.0  0.50000  0.00000  0.00000  1.0000
  Ge  Ge2       1.0  0.00000  0.50000  0.50000  1.0000
  H   H1        1.0  0.57000  0.61900  0.05570  1.0000
  H   H2        1.0  0.87400  0.25600  0.11600  1.0000
  H   H3        1.0  0.33000  0.56800  0.12600  1.0000
  H   H4        1.0  0.30800  0.03130  0.17200  1.0000
  H   H5        1.0  0.14200  0.29400  0.17700  1.0000
  H   H6        1.0  0.35800  0.79400  0.32300  1.0000
  H   H7        1.0  0.19200  0.53100  0.32800  1.0000
  H   H8        1.0  0.17000  0.06760  0.37400  1.0000
  H   H9        1.0  0.62600  0.75600  0.38400  1.0000
  H   H10       1.0  0.93000  0.11900  0.44400  1.0000
  H   H11       1.0  0.07040  0.88100  0.55600  1.0000
  H   H12       1.0  0.37400  0.24400  0.61600  1.0000
  H   H13       1.0  0.83000  0.93200  0.62600  1.0000
  H   H14       1.0  0.80800  0.46900  0.67200  1.0000
  H   H15       1.0  0.64200  0.20600  0.67700  1.0000
  H   H16       1.0  0.85800  0.70600  0.82300  1.0000
  H   H17       1.0  0.69200  0.96900  0.82800  1.0000
  H   H18       1.0  0.67000  0.43200  0.87400  1.0000
  H   H19       1.0  0.12600  0.74400  0.88400  1.0000
  H   H20       1.0  0.43000  0.38100  0.94400  1.0000
  O   O1        1.0  0.21400  0.84600  0.00956  1.0000
  O   O2        1.0  0.72600  0.81800  0.03550  1.0000
  O   O3        1.0  0.51400  0.53300  0.10700  1.0000
  O   O4        1.0  0.03820  0.63900  0.13900  1.0000
  O   O5        1.0  0.48500  0.06750  0.14500  1.0000
  O   O6        1.0  0.02650  0.94400  0.18600  1.0000
  O   O7        1.0  0.95100  0.29500  0.18700  1.0000
  O   O8        1.0  0.54900  0.79500  0.31300  1.0000
  O   O9        1.0  0.47300  0.44400  0.31400  1.0000
  O   O10       1.0  0.01460  0.56700  0.35500  1.0000
  O   O11       1.0  0.46200  0.13900  0.36100  1.0000
  O   O12       1.0  0.98600  0.03250  0.39300  1.0000
  O   O13       1.0  0.77400  0.31800  0.46500  1.0000
  O   O14       1.0  0.28600  0.34600  0.49000  1.0000
  O   O15       1.0  0.71400  0.65400  0.51000  1.0000
  O   O16       1.0  0.22600  0.68200  0.53500  1.0000
  O   O17       1.0  0.01430  0.96700  0.60700  1.0000
  O   O18       1.0  0.53800  0.86100  0.63900  1.0000
  O   O19       1.0  0.98500  0.43300  0.64500  1.0000
  O   O20       1.0  0.52700  0.55600  0.68600  1.0000
  O   O21       1.0  0.45100  0.20500  0.68700  1.0000
  O   O22       1.0  0.04890  0.70500  0.81300  1.0000
  O   O23       1.0  0.97300  0.05620  0.81400  1.0000
  O   O24       1.0  0.51500  0.93300  0.85500  1.0000
  O   O25       1.0  0.96200  0.36100  0.86100  1.0000
  O   O26       1.0  0.48600  0.46700  0.89300  1.0000
  O   O27       1.0  0.27400  0.18200  0.96500  1.0000
  O   O28       1.0  0.78600  0.15400  0.99000  1.0000
  P   P1        1.0  0.00013  0.81400  0.09620  1.0000
  P   P2        1.0  0.50000  0.31400  0.40400  1.0000
  P   P3        1.0  0.50000  0.68600  0.59600  1.0000
  P   P4        1.0  0.00000  0.18600  0.90400  1.0000
