data_image0
_chemical_formula_structural       Cu6Ga4O36Se12
_chemical_formula_sum              "Cu6 Ga4 O36 Se12"
_cell_length_a       12.3024
_cell_length_b       8.0744
_cell_length_c       7.5131
_cell_angle_alpha    90
_cell_angle_beta     96.0337
_cell_angle_gamma    90

_space_group_name_H-M_alt    "P 1"
_space_group_IT_number       1

loop_
  _space_group_symop_operation_xyz
  'x, y, z'

loop_
  _atom_site_type_symbol
  _atom_site_label
  _atom_site_symmetry_multiplicity
  _atom_site_fract_x
  _atom_site_fract_y
  _atom_site_fract_z
  _atom_site_occupancy
  Cu  Cu1       1.0  0.50000  0.00000  0.00000  1.0000
  Cu  Cu2       1.0  0.38300  0.62300  0.13100  1.0000
  Cu  Cu3       1.0  0.61700  0.12300  0.36900  1.0000
  Cu  Cu4       1.0  0.50000  0.50000  0.50000  1.0000
  Cu  Cu5       1.0  0.38300  0.87700  0.63100  1.0000
  Cu  Cu6       1.0  0.61700  0.37700  0.86900  1.0000
  Ga  Ga1       1.0  0.82400  0.50500  0.12900  1.0000
  Ga  Ga2       1.0  0.17600  0.00528  0.37100  1.0000
  Ga  Ga3       1.0  0.82400  0.99500  0.62900  1.0000
  Ga  Ga4       1.0  0.17600  0.49500  0.87100  1.0000
  O   O1        1.0  0.74700  0.29600  0.01670  1.0000
  O   O2        1.0  0.67800  0.60200  0.02920  1.0000
  O   O3        1.0  0.49700  0.76700  0.04680  1.0000
  O   O4        1.0  0.11000  0.48500  0.09430  1.0000
  O   O5        1.0  0.25500  0.99700  0.15100  1.0000
  O   O6        1.0  0.67900  0.01730  0.16100  1.0000
  O   O7        1.0  0.86700  0.74000  0.17800  1.0000
  O   O8        1.0  0.05670  0.89100  0.23400  1.0000
  O   O9        1.0  0.51900  0.53400  0.24700  1.0000
  O   O10       1.0  0.48100  0.03400  0.25300  1.0000
  O   O11       1.0  0.94300  0.39100  0.26600  1.0000
  O   O12       1.0  0.13300  0.24000  0.32200  1.0000
  O   O13       1.0  0.32100  0.51700  0.33900  1.0000
  O   O14       1.0  0.74500  0.49700  0.34900  1.0000
  O   O15       1.0  0.89000  0.98500  0.40600  1.0000
  O   O16       1.0  0.50300  0.26700  0.45300  1.0000
  O   O17       1.0  0.32200  0.10200  0.47100  1.0000
  O   O18       1.0  0.25300  0.79600  0.48300  1.0000
  O   O19       1.0  0.74700  0.20400  0.51700  1.0000
  O   O20       1.0  0.67800  0.89800  0.52900  1.0000
  O   O21       1.0  0.49700  0.73300  0.54700  1.0000
  O   O22       1.0  0.11000  0.01470  0.59400  1.0000
  O   O23       1.0  0.25500  0.50300  0.65100  1.0000
  O   O24       1.0  0.67900  0.48300  0.66100  1.0000
  O   O25       1.0  0.86700  0.76000  0.67800  1.0000
  O   O26       1.0  0.05670  0.60900  0.73400  1.0000
  O   O27       1.0  0.51900  0.96600  0.74700  1.0000
  O   O28       1.0  0.48100  0.46600  0.75300  1.0000
  O   O29       1.0  0.94300  0.10900  0.76600  1.0000
  O   O30       1.0  0.13300  0.26000  0.82200  1.0000
  O   O31       1.0  0.32100  0.98300  0.83900  1.0000
  O   O32       1.0  0.74500  0.00310  0.84900  1.0000
  O   O33       1.0  0.89000  0.51500  0.90600  1.0000
  O   O34       1.0  0.50300  0.23300  0.95300  1.0000
  O   O35       1.0  0.32200  0.39800  0.97100  1.0000
  O   O36       1.0  0.25300  0.70400  0.98300  1.0000
  Se  Se1       1.0  0.78700  0.08750  0.05630  1.0000
  Se  Se2       1.0  0.04210  0.30500  0.14400  1.0000
  Se  Se3       1.0  0.61200  0.69300  0.19400  1.0000
  Se  Se4       1.0  0.38800  0.19300  0.30600  1.0000
  Se  Se5       1.0  0.95800  0.80500  0.35600  1.0000
  Se  Se6       1.0  0.21300  0.58800  0.44400  1.0000
  Se  Se7       1.0  0.78700  0.41200  0.55600  1.0000
  Se  Se8       1.0  0.04210  0.19500  0.64400  1.0000
  Se  Se9       1.0  0.61200  0.80700  0.69400  1.0000
  Se  Se10      1.0  0.38800  0.30700  0.80600  1.0000
  Se  Se11      1.0  0.95800  0.69500  0.85600  1.0000
  Se  Se12      1.0  0.21300  0.91200  0.94400  1.0000
