data_image0
_chemical_formula_structural       Sb36Zr22
_chemical_formula_sum              "Sb36 Zr22"
_cell_length_a       6.82808
_cell_length_b       6.82808
_cell_length_c       30.6393
_cell_angle_alpha    96.3976
_cell_angle_beta     96.3976
_cell_angle_gamma    90

_space_group_name_H-M_alt    "P 1"
_space_group_IT_number       1

loop_
  _space_group_symop_operation_xyz
  'x, y, z'

loop_
  _atom_site_type_symbol
  _atom_site_label
  _atom_site_symmetry_multiplicity
  _atom_site_fract_x
  _atom_site_fract_y
  _atom_site_fract_z
  _atom_site_occupancy
  Sb  Sb1       1.0  0.23900  0.36100  0.03000  1.0000
  Sb  Sb2       1.0  0.79100  0.66900  0.03000  1.0000
  Sb  Sb3       1.0  0.88500  0.22400  0.08460  1.0000
  Sb  Sb4       1.0  0.20000  0.86100  0.08460  1.0000
  Sb  Sb5       1.0  0.40900  0.23800  0.13900  1.0000
  Sb  Sb6       1.0  0.73000  0.90100  0.13900  1.0000
  Sb  Sb7       1.0  0.80100  0.44300  0.19300  1.0000
  Sb  Sb8       1.0  0.39200  0.75000  0.19300  1.0000
  Sb  Sb9       1.0  0.28200  0.37500  0.25000  1.0000
  Sb  Sb10      1.0  0.96800  0.87500  0.25000  1.0000
  Sb  Sb11      1.0  0.44900  0.00037  0.30700  1.0000
  Sb  Sb12      1.0  0.85800  0.30700  0.30700  1.0000
  Sb  Sb13      1.0  0.52000  0.51200  0.36100  1.0000
  Sb  Sb14      1.0  0.84100  0.84900  0.36100  1.0000
  Sb  Sb15      1.0  0.05010  0.52600  0.41500  1.0000
  Sb  Sb16      1.0  0.36500  0.88900  0.41500  1.0000
  Sb  Sb17      1.0  0.01080  0.08060  0.47000  1.0000
  Sb  Sb18      1.0  0.45900  0.38900  0.47000  1.0000
  Sb  Sb19      1.0  0.91900  0.54100  0.53000  1.0000
  Sb  Sb20      1.0  0.61100  0.98900  0.53000  1.0000
  Sb  Sb21      1.0  0.47400  0.63500  0.58500  1.0000
  Sb  Sb22      1.0  0.11100  0.95000  0.58500  1.0000
  Sb  Sb23      1.0  0.48800  0.15900  0.63900  1.0000
  Sb  Sb24      1.0  0.15100  0.48000  0.63900  1.0000
  Sb  Sb25      1.0  0.00000  0.14200  0.69300  1.0000
  Sb  Sb26      1.0  0.69300  0.55100  0.69300  1.0000
  Sb  Sb27      1.0  0.62500  0.03190  0.75000  1.0000
  Sb  Sb28      1.0  0.12500  0.71800  0.75000  1.0000
  Sb  Sb29      1.0  0.25000  0.19900  0.80700  1.0000
  Sb  Sb30      1.0  0.55700  0.60800  0.80700  1.0000
  Sb  Sb31      1.0  0.76200  0.27000  0.86100  1.0000
  Sb  Sb32      1.0  0.09950  0.59100  0.86100  1.0000
  Sb  Sb33      1.0  0.13900  0.11500  0.91500  1.0000
  Sb  Sb34      1.0  0.77600  0.80000  0.91500  1.0000
  Sb  Sb35      1.0  0.63900  0.20900  0.97000  1.0000
  Sb  Sb36      1.0  0.33100  0.76100  0.97000  1.0000
  Zr  Zr1       1.0  0.00000  0.00000  0.00000  1.0000
  Zr  Zr2       1.0  0.52400  0.02400  0.04800  1.0000
  Zr  Zr3       1.0  0.54800  0.54800  0.09550  1.0000
  Zr  Zr4       1.0  0.06680  0.56700  0.13400  1.0000
  Zr  Zr5       1.0  0.08900  0.08900  0.17800  1.0000
  Zr  Zr6       1.0  0.61300  0.11300  0.22600  1.0000
  Zr  Zr7       1.0  0.63700  0.63700  0.27400  1.0000
  Zr  Zr8       1.0  0.16100  0.66100  0.32200  1.0000
  Zr  Zr9       1.0  0.18300  0.18300  0.36600  1.0000
  Zr  Zr10      1.0  0.70200  0.20200  0.40400  1.0000
  Zr  Zr11      1.0  0.72600  0.72600  0.45200  1.0000
  Zr  Zr12      1.0  0.25000  0.75000  0.50000  1.0000
  Zr  Zr13      1.0  0.27400  0.27400  0.54800  1.0000
  Zr  Zr14      1.0  0.79800  0.29800  0.59600  1.0000
  Zr  Zr15      1.0  0.81700  0.81700  0.63400  1.0000
  Zr  Zr16      1.0  0.33900  0.83900  0.67800  1.0000
  Zr  Zr17      1.0  0.36300  0.36300  0.72600  1.0000
  Zr  Zr18      1.0  0.88700  0.38700  0.77400  1.0000
  Zr  Zr19      1.0  0.91100  0.91100  0.82200  1.0000
  Zr  Zr20      1.0  0.43300  0.93300  0.86600  1.0000
  Zr  Zr21      1.0  0.45200  0.45200  0.90400  1.0000
  Zr  Zr22      1.0  0.97600  0.47600  0.95200  1.0000
