data_image0
_chemical_formula_structural       Hg18O32P8
_chemical_formula_sum              "Hg18 O32 P8"
_cell_length_a       10.1469
_cell_length_b       10.1469
_cell_length_c       10.1469
_cell_angle_alpha    108.193
_cell_angle_beta     108.193
_cell_angle_gamma    108.193

_space_group_name_H-M_alt    "P 1"
_space_group_IT_number       1

loop_
  _space_group_symop_operation_xyz
  'x, y, z'

loop_
  _atom_site_type_symbol
  _atom_site_label
  _atom_site_symmetry_multiplicity
  _atom_site_fract_x
  _atom_site_fract_y
  _atom_site_fract_z
  _atom_site_occupancy
  Hg  Hg1       1.0  0.35000  0.98100  0.09850  1.0000
  Hg  Hg2       1.0  0.77600  0.68700  0.15300  1.0000
  Hg  Hg3       1.0  0.40700  0.45600  0.17900  1.0000
  Hg  Hg4       1.0  0.27600  0.65300  0.18700  1.0000
  Hg  Hg5       1.0  0.65300  0.18700  0.27600  1.0000
  Hg  Hg6       1.0  0.98100  0.09850  0.35000  1.0000
  Hg  Hg7       1.0  0.45600  0.17900  0.40700  1.0000
  Hg  Hg8       1.0  0.17900  0.40700  0.45600  1.0000
  Hg  Hg9       1.0  0.85000  0.59800  0.48100  1.0000
  Hg  Hg10      1.0  0.48100  0.85000  0.59800  1.0000
  Hg  Hg11      1.0  0.18700  0.27600  0.65300  1.0000
  Hg  Hg12      1.0  0.95600  0.90700  0.67900  1.0000
  Hg  Hg13      1.0  0.15300  0.77600  0.68700  1.0000
  Hg  Hg14      1.0  0.68700  0.15300  0.77600  1.0000
  Hg  Hg15      1.0  0.59800  0.48100  0.85000  1.0000
  Hg  Hg16      1.0  0.67900  0.95600  0.90700  1.0000
  Hg  Hg17      1.0  0.90700  0.67900  0.95600  1.0000
  Hg  Hg18      1.0  0.09850  0.35000  0.98100  1.0000
  O   O1        1.0  0.86800  0.37200  0.00646  1.0000
  O   O2        1.0  0.46200  0.27700  0.06030  1.0000
  O   O3        1.0  0.91600  0.98300  0.09160  1.0000
  O   O4        1.0  0.80000  0.21500  0.15200  1.0000
  O   O5        1.0  0.19600  0.19600  0.19600  1.0000
  O   O6        1.0  0.15200  0.80000  0.21500  1.0000
  O   O7        1.0  0.80400  0.48000  0.22800  1.0000
  O   O8        1.0  0.06030  0.46200  0.27700  1.0000
  O   O9        1.0  0.65200  0.71500  0.30000  1.0000
  O   O10       1.0  0.72800  0.98000  0.30400  1.0000
  O   O11       1.0  0.50600  0.87200  0.36800  1.0000
  O   O12       1.0  0.00646  0.86800  0.37200  1.0000
  O   O13       1.0  0.59200  0.48300  0.41600  1.0000
  O   O14       1.0  0.27700  0.06030  0.46200  1.0000
  O   O15       1.0  0.22800  0.80400  0.48000  1.0000
  O   O16       1.0  0.41600  0.59200  0.48300  1.0000
  O   O17       1.0  0.87200  0.36800  0.50600  1.0000
  O   O18       1.0  0.77700  0.96200  0.56000  1.0000
  O   O19       1.0  0.48300  0.41600  0.59200  1.0000
  O   O20       1.0  0.71500  0.30000  0.65200  1.0000
  O   O21       1.0  0.69600  0.69600  0.69600  1.0000
  O   O22       1.0  0.30000  0.65200  0.71500  1.0000
  O   O23       1.0  0.98000  0.30400  0.72800  1.0000
  O   O24       1.0  0.96200  0.56000  0.77700  1.0000
  O   O25       1.0  0.21500  0.15200  0.80000  1.0000
  O   O26       1.0  0.48000  0.22800  0.80400  1.0000
  O   O27       1.0  0.37200  0.00646  0.86800  1.0000
  O   O28       1.0  0.36800  0.50600  0.87200  1.0000
  O   O29       1.0  0.98300  0.09160  0.91600  1.0000
  O   O30       1.0  0.56000  0.77700  0.96200  1.0000
  O   O31       1.0  0.30400  0.72800  0.98000  1.0000
  O   O32       1.0  0.09160  0.91600  0.98300  1.0000
  P   P1        1.0  0.05450  0.05450  0.05450  1.0000
  P   P2        1.0  0.88300  0.38300  0.16900  1.0000
  P   P3        1.0  0.16900  0.88300  0.38300  1.0000
  P   P4        1.0  0.66900  0.88300  0.38300  1.0000
  P   P5        1.0  0.55500  0.55500  0.55500  1.0000
  P   P6        1.0  0.88300  0.38300  0.66900  1.0000
  P   P7        1.0  0.38300  0.66900  0.88300  1.0000
  P   P8        1.0  0.38300  0.16900  0.88300  1.0000
