data_image0
_chemical_formula_structural       As8O36Pb8Ti4
_chemical_formula_sum              "As8 O36 Pb8 Ti4"
_cell_length_a       6.85643
_cell_length_b       16.523
_cell_length_c       7.23181
_cell_angle_alpha    90
_cell_angle_beta     113.873
_cell_angle_gamma    90

_space_group_name_H-M_alt    "P 1"
_space_group_IT_number       1

loop_
  _space_group_symop_operation_xyz
  'x, y, z'

loop_
  _atom_site_type_symbol
  _atom_site_label
  _atom_site_symmetry_multiplicity
  _atom_site_fract_x
  _atom_site_fract_y
  _atom_site_fract_z
  _atom_site_occupancy
  As  As1       1.0  0.75800  0.42400  0.01090  1.0000
  As  As2       1.0  0.25600  0.16100  0.02220  1.0000
  As  As3       1.0  0.74400  0.66100  0.47800  1.0000
  As  As4       1.0  0.24200  0.92400  0.48900  1.0000
  As  As5       1.0  0.75800  0.07590  0.51100  1.0000
  As  As6       1.0  0.25600  0.33900  0.52200  1.0000
  As  As7       1.0  0.74400  0.83900  0.97800  1.0000
  As  As8       1.0  0.24200  0.57600  0.98900  1.0000
  O   O1        1.0  0.76000  0.21300  0.01060  1.0000
  O   O2        1.0  0.61500  0.89800  0.08700  1.0000
  O   O3        1.0  0.65100  0.36400  0.14300  1.0000
  O   O4        1.0  0.16900  0.63900  0.14600  1.0000
  O   O5        1.0  0.15200  0.10000  0.14900  1.0000
  O   O6        1.0  0.42000  0.51100  0.15200  1.0000
  O   O7        1.0  0.94000  0.78200  0.16500  1.0000
  O   O8        1.0  0.98300  0.46700  0.18100  1.0000
  O   O9        1.0  0.43600  0.23000  0.18200  1.0000
  O   O10       1.0  0.56400  0.73000  0.31800  1.0000
  O   O11       1.0  0.01680  0.96700  0.31900  1.0000
  O   O12       1.0  0.06050  0.28200  0.33500  1.0000
  O   O13       1.0  0.58000  0.01140  0.34800  1.0000
  O   O14       1.0  0.84800  0.60000  0.35100  1.0000
  O   O15       1.0  0.83100  0.13900  0.35400  1.0000
  O   O16       1.0  0.34900  0.86400  0.35700  1.0000
  O   O17       1.0  0.38500  0.39800  0.41300  1.0000
  O   O18       1.0  0.24000  0.71300  0.48900  1.0000
  O   O19       1.0  0.76000  0.28700  0.51100  1.0000
  O   O20       1.0  0.61500  0.60200  0.58700  1.0000
  O   O21       1.0  0.65100  0.13600  0.64300  1.0000
  O   O22       1.0  0.16900  0.86100  0.64600  1.0000
  O   O23       1.0  0.15200  0.40000  0.64900  1.0000
  O   O24       1.0  0.42000  0.98900  0.65200  1.0000
  O   O25       1.0  0.94000  0.71800  0.66500  1.0000
  O   O26       1.0  0.98300  0.03340  0.68100  1.0000
  O   O27       1.0  0.43600  0.27000  0.68200  1.0000
  O   O28       1.0  0.56400  0.77000  0.81800  1.0000
  O   O29       1.0  0.01680  0.53300  0.81900  1.0000
  O   O30       1.0  0.06050  0.21800  0.83500  1.0000
  O   O31       1.0  0.58000  0.48900  0.84800  1.0000
  O   O32       1.0  0.84800  0.90000  0.85100  1.0000
  O   O33       1.0  0.83100  0.36100  0.85400  1.0000
  O   O34       1.0  0.34900  0.63600  0.85700  1.0000
  O   O35       1.0  0.38500  0.10200  0.91300  1.0000
  O   O36       1.0  0.24000  0.78700  0.98900  1.0000
  Pb  Pb1       1.0  0.76600  0.05500  0.02650  1.0000
  Pb  Pb2       1.0  0.25600  0.37600  0.04300  1.0000
  Pb  Pb3       1.0  0.74400  0.87600  0.45700  1.0000
  Pb  Pb4       1.0  0.23400  0.55500  0.47400  1.0000
  Pb  Pb5       1.0  0.76600  0.44500  0.52600  1.0000
  Pb  Pb6       1.0  0.25600  0.12400  0.54300  1.0000
  Pb  Pb7       1.0  0.74400  0.62400  0.95700  1.0000
  Pb  Pb8       1.0  0.23400  0.94500  0.97400  1.0000
  Ti  Ti1       1.0  0.24500  0.75400  0.23000  1.0000
  Ti  Ti2       1.0  0.75500  0.25400  0.27000  1.0000
  Ti  Ti3       1.0  0.24500  0.74600  0.73000  1.0000
  Ti  Ti4       1.0  0.75500  0.24600  0.77000  1.0000
