data_image0
_chemical_formula_structural       Ge16Li4Na4O36
_chemical_formula_sum              "Ge16 Li4 Na4 O36"
_cell_length_a       15.856
_cell_length_b       4.67961
_cell_length_c       9.30702
_cell_angle_alpha    90
_cell_angle_beta     90
_cell_angle_gamma    90

_space_group_name_H-M_alt    "P 1"
_space_group_IT_number       1

loop_
  _space_group_symop_operation_xyz
  'x, y, z'

loop_
  _atom_site_type_symbol
  _atom_site_label
  _atom_site_symmetry_multiplicity
  _atom_site_fract_x
  _atom_site_fract_y
  _atom_site_fract_z
  _atom_site_occupancy
  Ge  Ge1       1.0  0.59600  0.01040  0.00659  1.0000
  Ge  Ge2       1.0  0.09580  0.99000  0.00659  1.0000
  Ge  Ge3       1.0  0.40300  0.00818  0.08870  1.0000
  Ge  Ge4       1.0  0.90300  0.99200  0.08870  1.0000
  Ge  Ge5       1.0  0.70700  0.00185  0.29500  1.0000
  Ge  Ge6       1.0  0.20700  0.99800  0.29500  1.0000
  Ge  Ge7       1.0  0.34700  0.49800  0.29700  1.0000
  Ge  Ge8       1.0  0.84700  0.50200  0.29700  1.0000
  Ge  Ge9       1.0  0.90400  0.01040  0.50700  1.0000
  Ge  Ge10      1.0  0.40400  0.99000  0.50700  1.0000
  Ge  Ge11      1.0  0.09660  0.00818  0.58900  1.0000
  Ge  Ge12      1.0  0.59700  0.99200  0.58900  1.0000
  Ge  Ge13      1.0  0.79300  0.00185  0.79500  1.0000
  Ge  Ge14      1.0  0.29300  0.99800  0.79500  1.0000
  Ge  Ge15      1.0  0.15300  0.49800  0.79700  1.0000
  Ge  Ge16      1.0  0.65300  0.50200  0.79700  1.0000
  Li  Li1       1.0  0.26500  0.45800  0.02910  1.0000
  Li  Li2       1.0  0.76500  0.54200  0.02910  1.0000
  Li  Li3       1.0  0.23500  0.45800  0.52900  1.0000
  Li  Li4       1.0  0.73500  0.54200  0.52900  1.0000
  Na  Na1       1.0  0.54900  0.48100  0.31300  1.0000
  Na  Na2       1.0  0.04880  0.51900  0.31300  1.0000
  Na  Na3       1.0  0.95100  0.48100  0.81300  1.0000
  Na  Na4       1.0  0.45100  0.51900  0.81300  1.0000
  O   O1        1.0  0.99800  0.17000  0.03750  1.0000
  O   O2        1.0  0.49800  0.83000  0.03750  1.0000
  O   O3        1.0  0.83600  0.27300  0.13200  1.0000
  O   O4        1.0  0.33600  0.72700  0.13200  1.0000
  O   O5        1.0  0.63200  0.15900  0.17400  1.0000
  O   O6        1.0  0.13200  0.84100  0.17400  1.0000
  O   O7        1.0  0.26200  0.26600  0.20700  1.0000
  O   O8        1.0  0.76200  0.73400  0.20700  1.0000
  O   O9        1.0  0.43200  0.27200  0.21200  1.0000
  O   O10       1.0  0.93200  0.72800  0.21200  1.0000
  O   O11       1.0  0.93100  0.27700  0.38300  1.0000
  O   O12       1.0  0.43100  0.72300  0.38300  1.0000
  O   O13       1.0  0.76000  0.27600  0.38400  1.0000
  O   O14       1.0  0.26000  0.72400  0.38400  1.0000
  O   O15       1.0  0.14100  0.17500  0.42900  1.0000
  O   O16       1.0  0.64100  0.82500  0.42900  1.0000
  O   O17       1.0  0.33500  0.26300  0.46000  1.0000
  O   O18       1.0  0.83500  0.73700  0.46000  1.0000
  O   O19       1.0  0.50200  0.17000  0.53800  1.0000
  O   O20       1.0  0.00199  0.83000  0.53800  1.0000
  O   O21       1.0  0.66400  0.27300  0.63200  1.0000
  O   O22       1.0  0.16400  0.72700  0.63200  1.0000
  O   O23       1.0  0.86800  0.15900  0.67400  1.0000
  O   O24       1.0  0.36800  0.84100  0.67400  1.0000
  O   O25       1.0  0.23800  0.26600  0.70700  1.0000
  O   O26       1.0  0.73800  0.73400  0.70700  1.0000
  O   O27       1.0  0.06790  0.27200  0.71200  1.0000
  O   O28       1.0  0.56800  0.72800  0.71200  1.0000
  O   O29       1.0  0.56900  0.27700  0.88300  1.0000
  O   O30       1.0  0.06930  0.72300  0.88300  1.0000
  O   O31       1.0  0.74000  0.27600  0.88400  1.0000
  O   O32       1.0  0.24000  0.72400  0.88400  1.0000
  O   O33       1.0  0.35900  0.17500  0.92900  1.0000
  O   O34       1.0  0.85900  0.82500  0.92900  1.0000
  O   O35       1.0  0.16500  0.26300  0.96000  1.0000
  O   O36       1.0  0.66500  0.73700  0.96000  1.0000
