data_image0
_chemical_formula_structural       C8Co2H24O20
_chemical_formula_sum              "C8 Co2 H24 O20"
_cell_length_a       4.92039
_cell_length_b       10.177
_cell_length_c       8.87495
_cell_angle_alpha    90
_cell_angle_beta     94.8942
_cell_angle_gamma    90

_space_group_name_H-M_alt    "P 1"
_space_group_IT_number       1

loop_
  _space_group_symop_operation_xyz
  'x, y, z'

loop_
  _atom_site_type_symbol
  _atom_site_label
  _atom_site_symmetry_multiplicity
  _atom_site_fract_x
  _atom_site_fract_y
  _atom_site_fract_z
  _atom_site_occupancy
  C   C1        1.0  0.25100  0.55600  0.31400  1.0000
  C   C2        1.0  0.75100  0.94400  0.31400  1.0000
  C   C3        1.0  0.93200  0.98400  0.44300  1.0000
  C   C4        1.0  0.43200  0.51600  0.44300  1.0000
  C   C5        1.0  0.56800  0.48400  0.55700  1.0000
  C   C6        1.0  0.06810  0.01650  0.55700  1.0000
  C   C7        1.0  0.24900  0.05590  0.68600  1.0000
  C   C8        1.0  0.74900  0.44400  0.68600  1.0000
  Co  Co1       1.0  0.50000  0.00000  0.00000  1.0000
  Co  Co2       1.0  0.00000  0.50000  0.00000  1.0000
  H   H1        1.0  0.31700  0.75300  0.00616  1.0000
  H   H2        1.0  0.81700  0.74700  0.00616  1.0000
  H   H3        1.0  0.07040  0.06990  0.14200  1.0000
  H   H4        1.0  0.57000  0.43000  0.14200  1.0000
  H   H5        1.0  0.38200  0.82000  0.17000  1.0000
  H   H6        1.0  0.88200  0.68000  0.17000  1.0000
  H   H7        1.0  0.83600  0.36000  0.22200  1.0000
  H   H8        1.0  0.33600  0.14000  0.22200  1.0000
  H   H9        1.0  0.66000  0.22900  0.37100  1.0000
  H   H10       1.0  0.16000  0.27100  0.37100  1.0000
  H   H11       1.0  0.96500  0.33400  0.48600  1.0000
  H   H12       1.0  0.46500  0.16600  0.48600  1.0000
  H   H13       1.0  0.03510  0.66600  0.51400  1.0000
  H   H14       1.0  0.53500  0.83400  0.51400  1.0000
  H   H15       1.0  0.84000  0.72900  0.62900  1.0000
  H   H16       1.0  0.34000  0.77100  0.62900  1.0000
  H   H17       1.0  0.66400  0.86000  0.77800  1.0000
  H   H18       1.0  0.16400  0.64000  0.77800  1.0000
  H   H19       1.0  0.11800  0.32000  0.83000  1.0000
  H   H20       1.0  0.61800  0.18000  0.83000  1.0000
  H   H21       1.0  0.93000  0.93000  0.85800  1.0000
  H   H22       1.0  0.43000  0.57000  0.85800  1.0000
  H   H23       1.0  0.68300  0.24700  0.99400  1.0000
  H   H24       1.0  0.18300  0.25300  0.99400  1.0000
  O   O1        1.0  0.79700  0.66600  0.06570  1.0000
  O   O2        1.0  0.29700  0.83400  0.06570  1.0000
  O   O3        1.0  0.74300  0.38400  0.12000  1.0000
  O   O4        1.0  0.24300  0.11600  0.12000  1.0000
  O   O5        1.0  0.29100  0.50500  0.18600  1.0000
  O   O6        1.0  0.79100  0.99500  0.18600  1.0000
  O   O7        1.0  0.56300  0.86300  0.33700  1.0000
  O   O8        1.0  0.06300  0.63700  0.33700  1.0000
  O   O9        1.0  0.97200  0.30500  0.37800  1.0000
  O   O10       1.0  0.47200  0.19500  0.37800  1.0000
  O   O11       1.0  0.52800  0.80500  0.62200  1.0000
  O   O12       1.0  0.02790  0.69500  0.62200  1.0000
  O   O13       1.0  0.93700  0.36300  0.66300  1.0000
  O   O14       1.0  0.43700  0.13700  0.66300  1.0000
  O   O15       1.0  0.20900  0.00538  0.81400  1.0000
  O   O16       1.0  0.70900  0.49500  0.81400  1.0000
  O   O17       1.0  0.25700  0.61600  0.88000  1.0000
  O   O18       1.0  0.75700  0.88400  0.88000  1.0000
  O   O19       1.0  0.20300  0.33400  0.93400  1.0000
  O   O20       1.0  0.70300  0.16600  0.93400  1.0000
