data_image0
_chemical_formula_structural       H20N6O22Pr2S6
_chemical_formula_sum              "H20 N6 O22 Pr2 S6"
_cell_length_a       7.68774
_cell_length_b       8.81031
_cell_length_c       9.11595
_cell_angle_alpha    118.114
_cell_angle_beta     94.4168
_cell_angle_gamma    91.8019

_space_group_name_H-M_alt    "P 1"
_space_group_IT_number       1

loop_
  _space_group_symop_operation_xyz
  'x, y, z'

loop_
  _atom_site_type_symbol
  _atom_site_label
  _atom_site_symmetry_multiplicity
  _atom_site_fract_x
  _atom_site_fract_y
  _atom_site_fract_z
  _atom_site_occupancy
  H   H1        1.0  0.48700  0.66200  0.01830  1.0000
  H   H2        1.0  0.69200  0.98700  0.04040  1.0000
  H   H3        1.0  0.67200  0.68500  0.13100  1.0000
  H   H4        1.0  0.28600  0.01340  0.13800  1.0000
  H   H5        1.0  0.60800  0.20900  0.23300  1.0000
  H   H6        1.0  0.81500  0.55900  0.25000  1.0000
  H   H7        1.0  0.60200  0.08050  0.32000  1.0000
  H   H8        1.0  0.12500  0.98200  0.32800  1.0000
  H   H9        1.0  0.32400  0.89900  0.32900  1.0000
  H   H10       1.0  0.87000  0.77200  0.38000  1.0000
  H   H11       1.0  0.13000  0.22800  0.62000  1.0000
  H   H12       1.0  0.67600  0.10100  0.67100  1.0000
  H   H13       1.0  0.87500  0.01780  0.67200  1.0000
  H   H14       1.0  0.39800  0.91900  0.68000  1.0000
  H   H15       1.0  0.18500  0.44100  0.75000  1.0000
  H   H16       1.0  0.39200  0.79100  0.76700  1.0000
  H   H17       1.0  0.71400  0.98700  0.86200  1.0000
  H   H18       1.0  0.32800  0.31500  0.86900  1.0000
  H   H19       1.0  0.30800  0.01290  0.96000  1.0000
  H   H20       1.0  0.51300  0.33800  0.98200  1.0000
  N   N1        1.0  0.67700  0.12300  0.25600  1.0000
  N   N2        1.0  0.22200  0.91500  0.25700  1.0000
  N   N3        1.0  0.77000  0.68000  0.30600  1.0000
  N   N4        1.0  0.23000  0.32000  0.69400  1.0000
  N   N5        1.0  0.77800  0.08510  0.74300  1.0000
  N   N6        1.0  0.32300  0.87700  0.74400  1.0000
  O   O1        1.0  0.73700  0.32900  0.01970  1.0000
  O   O2        1.0  0.61600  0.66900  0.02150  1.0000
  O   O3        1.0  0.97100  0.76900  0.05100  1.0000
  O   O4        1.0  0.31800  0.08460  0.08400  1.0000
  O   O5        1.0  0.11400  0.60700  0.17300  1.0000
  O   O6        1.0  0.96400  0.25500  0.26100  1.0000
  O   O7        1.0  0.52200  0.50700  0.31500  1.0000
  O   O8        1.0  0.32400  0.28200  0.41800  1.0000
  O   O9        1.0  0.50000  0.81800  0.42000  1.0000
  O   O10       1.0  0.93400  0.10700  0.43000  1.0000
  O   O11       1.0  0.17800  0.61000  0.48500  1.0000
  O   O12       1.0  0.82200  0.39000  0.51500  1.0000
  O   O13       1.0  0.06630  0.89300  0.57000  1.0000
  O   O14       1.0  0.50000  0.18200  0.58000  1.0000
  O   O15       1.0  0.67600  0.71800  0.58200  1.0000
  O   O16       1.0  0.47800  0.49300  0.68500  1.0000
  O   O17       1.0  0.03640  0.74500  0.73900  1.0000
  O   O18       1.0  0.88600  0.39300  0.82700  1.0000
  O   O19       1.0  0.68200  0.91500  0.91600  1.0000
  O   O20       1.0  0.02910  0.23100  0.94900  1.0000
  O   O21       1.0  0.38400  0.33100  0.97800  1.0000
  O   O22       1.0  0.26300  0.67100  0.98000  1.0000
  Pr  Pr1       1.0  0.22600  0.37300  0.21200  1.0000
  Pr  Pr2       1.0  0.77400  0.62700  0.78800  1.0000
  S   S1        1.0  0.13800  0.72700  0.10500  1.0000
  S   S2        1.0  0.86100  0.22500  0.37600  1.0000
  S   S3        1.0  0.60700  0.68200  0.41400  1.0000
  S   S4        1.0  0.39300  0.31800  0.58600  1.0000
  S   S5        1.0  0.13900  0.77500  0.62400  1.0000
  S   S6        1.0  0.86200  0.27300  0.89500  1.0000
