data_image0
_chemical_formula_structural       H32N8S20
_chemical_formula_sum              "H32 N8 S20"
_cell_length_a       5.34395
_cell_length_b       16.1114
_cell_length_c       9.36592
_cell_angle_alpha    90
_cell_angle_beta     104.625
_cell_angle_gamma    90

_space_group_name_H-M_alt    "P 1"
_space_group_IT_number       1

loop_
  _space_group_symop_operation_xyz
  'x, y, z'

loop_
  _atom_site_type_symbol
  _atom_site_label
  _atom_site_symmetry_multiplicity
  _atom_site_fract_x
  _atom_site_fract_y
  _atom_site_fract_z
  _atom_site_occupancy
  H   H1        1.0  0.57700  0.13100  0.03960  1.0000
  H   H2        1.0  0.72400  0.22600  0.04760  1.0000
  H   H3        1.0  0.90600  0.13900  0.08300  1.0000
  H   H4        1.0  0.63900  0.43400  0.13200  1.0000
  H   H5        1.0  0.58100  0.53400  0.17200  1.0000
  H   H6        1.0  0.73500  0.17000  0.20600  1.0000
  H   H7        1.0  0.16500  0.97900  0.21500  1.0000
  H   H8        1.0  0.48000  0.95700  0.22000  1.0000
  H   H9        1.0  0.52000  0.45700  0.28000  1.0000
  H   H10       1.0  0.83500  0.47900  0.28500  1.0000
  H   H11       1.0  0.26500  0.67000  0.29400  1.0000
  H   H12       1.0  0.41900  0.03410  0.32800  1.0000
  H   H13       1.0  0.36100  0.93400  0.36800  1.0000
  H   H14       1.0  0.09380  0.63900  0.41700  1.0000
  H   H15       1.0  0.27600  0.72600  0.45200  1.0000
  H   H16       1.0  0.42300  0.63100  0.46000  1.0000
  H   H17       1.0  0.57700  0.36900  0.54000  1.0000
  H   H18       1.0  0.72400  0.27400  0.54800  1.0000
  H   H19       1.0  0.90600  0.36100  0.58300  1.0000
  H   H20       1.0  0.63900  0.06640  0.63200  1.0000
  H   H21       1.0  0.58100  0.96600  0.67200  1.0000
  H   H22       1.0  0.73500  0.33000  0.70600  1.0000
  H   H23       1.0  0.16500  0.52100  0.71500  1.0000
  H   H24       1.0  0.48000  0.54300  0.72000  1.0000
  H   H25       1.0  0.52000  0.04280  0.78000  1.0000
  H   H26       1.0  0.83500  0.02110  0.78500  1.0000
  H   H27       1.0  0.26500  0.83000  0.79400  1.0000
  H   H28       1.0  0.41900  0.46600  0.82800  1.0000
  H   H29       1.0  0.36100  0.56600  0.86800  1.0000
  H   H30       1.0  0.09380  0.86100  0.91700  1.0000
  H   H31       1.0  0.27600  0.77400  0.95200  1.0000
  H   H32       1.0  0.42300  0.86900  0.96000  1.0000
  N   N1        1.0  0.73900  0.16700  0.09430  1.0000
  N   N2        1.0  0.64600  0.47600  0.21700  1.0000
  N   N3        1.0  0.35400  0.97600  0.28300  1.0000
  N   N4        1.0  0.26100  0.66700  0.40600  1.0000
  N   N5        1.0  0.73900  0.33300  0.59400  1.0000
  N   N6        1.0  0.64600  0.02370  0.71700  1.0000
  N   N7        1.0  0.35400  0.52400  0.78300  1.0000
  N   N8        1.0  0.26100  0.83300  0.90600  1.0000
  S   S1        1.0  0.94600  0.61100  0.00840  1.0000
  S   S2        1.0  0.33000  0.64600  0.06890  1.0000
  S   S3        1.0  0.77300  0.93100  0.07240  1.0000
  S   S4        1.0  0.25000  0.30400  0.14700  1.0000
  S   S5        1.0  0.88700  0.81800  0.16800  1.0000
  S   S6        1.0  0.11300  0.31800  0.33200  1.0000
  S   S7        1.0  0.75000  0.80400  0.35300  1.0000
  S   S8        1.0  0.22700  0.43100  0.42800  1.0000
  S   S9        1.0  0.67000  0.14600  0.43100  1.0000
  S   S10       1.0  0.05400  0.11100  0.49200  1.0000
  S   S11       1.0  0.94600  0.88900  0.50800  1.0000
  S   S12       1.0  0.33000  0.85400  0.56900  1.0000
  S   S13       1.0  0.77300  0.56900  0.57200  1.0000
  S   S14       1.0  0.25000  0.19600  0.64700  1.0000
  S   S15       1.0  0.88700  0.68200  0.66800  1.0000
  S   S16       1.0  0.11300  0.18200  0.83200  1.0000
  S   S17       1.0  0.75000  0.69600  0.85300  1.0000
  S   S18       1.0  0.22700  0.06850  0.92800  1.0000
  S   S19       1.0  0.67000  0.35400  0.93100  1.0000
  S   S20       1.0  0.05400  0.38900  0.99200  1.0000
