data_image0
_chemical_formula_structural       H16I8Ni4O32
_chemical_formula_sum              "H16 I8 Ni4 O32"
_cell_length_a       9.00155
_cell_length_b       11.8881
_cell_length_c       6.35141
_cell_angle_alpha    90
_cell_angle_beta     90
_cell_angle_gamma    90

_space_group_name_H-M_alt    "P 1"
_space_group_IT_number       1

loop_
  _space_group_symop_operation_xyz
  'x, y, z'

loop_
  _atom_site_type_symbol
  _atom_site_label
  _atom_site_symmetry_multiplicity
  _atom_site_fract_x
  _atom_site_fract_y
  _atom_site_fract_z
  _atom_site_occupancy
  H   H1        1.0  0.92900  0.35000  0.22300  1.0000
  H   H2        1.0  0.57100  0.85000  0.22300  1.0000
  H   H3        1.0  0.60400  0.35100  0.24900  1.0000
  H   H4        1.0  0.89600  0.85100  0.24900  1.0000
  H   H5        1.0  0.10400  0.35100  0.25100  1.0000
  H   H6        1.0  0.39600  0.85100  0.25100  1.0000
  H   H7        1.0  0.42900  0.35000  0.27700  1.0000
  H   H8        1.0  0.07150  0.85000  0.27700  1.0000
  H   H9        1.0  0.92900  0.15000  0.72300  1.0000
  H   H10       1.0  0.57100  0.65000  0.72300  1.0000
  H   H11       1.0  0.60400  0.14900  0.74900  1.0000
  H   H12       1.0  0.89600  0.64900  0.74900  1.0000
  H   H13       1.0  0.10400  0.14900  0.75100  1.0000
  H   H14       1.0  0.39600  0.64900  0.75100  1.0000
  H   H15       1.0  0.42900  0.15000  0.77700  1.0000
  H   H16       1.0  0.07150  0.65000  0.77700  1.0000
  I   I1        1.0  0.27100  0.13400  0.21600  1.0000
  I   I2        1.0  0.22900  0.63400  0.21600  1.0000
  I   I3        1.0  0.77100  0.13400  0.28400  1.0000
  I   I4        1.0  0.72900  0.63400  0.28400  1.0000
  I   I5        1.0  0.27100  0.36600  0.71600  1.0000
  I   I6        1.0  0.22900  0.86600  0.71600  1.0000
  I   I7        1.0  0.77100  0.36600  0.78400  1.0000
  I   I8        1.0  0.72900  0.86600  0.78400  1.0000
  Ni  Ni1       1.0  0.00000  0.00000  0.00000  1.0000
  Ni  Ni2       1.0  0.50000  0.50000  0.00000  1.0000
  Ni  Ni3       1.0  0.50000  0.00000  0.50000  1.0000
  Ni  Ni4       1.0  0.00000  0.50000  0.50000  1.0000
  O   O1        1.0  0.78500  0.04660  0.04580  1.0000
  O   O2        1.0  0.71500  0.54700  0.04580  1.0000
  O   O3        1.0  0.77500  0.27500  0.16500  1.0000
  O   O4        1.0  0.72500  0.77500  0.16500  1.0000
  O   O5        1.0  0.06830  0.13100  0.18300  1.0000
  O   O6        1.0  0.43200  0.63100  0.18300  1.0000
  O   O7        1.0  0.01650  0.40100  0.23700  1.0000
  O   O8        1.0  0.48300  0.90100  0.23700  1.0000
  O   O9        1.0  0.51700  0.40100  0.26300  1.0000
  O   O10       1.0  0.98300  0.90100  0.26300  1.0000
  O   O11       1.0  0.56800  0.13100  0.31700  1.0000
  O   O12       1.0  0.93200  0.63100  0.31700  1.0000
  O   O13       1.0  0.27500  0.27500  0.33500  1.0000
  O   O14       1.0  0.22500  0.77500  0.33500  1.0000
  O   O15       1.0  0.28500  0.04660  0.45400  1.0000
  O   O16       1.0  0.21500  0.54700  0.45400  1.0000
  O   O17       1.0  0.78500  0.45300  0.54600  1.0000
  O   O18       1.0  0.71500  0.95300  0.54600  1.0000
  O   O19       1.0  0.77500  0.22500  0.66500  1.0000
  O   O20       1.0  0.72500  0.72500  0.66500  1.0000
  O   O21       1.0  0.06830  0.36900  0.68300  1.0000
  O   O22       1.0  0.43200  0.86900  0.68300  1.0000
  O   O23       1.0  0.01650  0.09940  0.73700  1.0000
  O   O24       1.0  0.48300  0.59900  0.73700  1.0000
  O   O25       1.0  0.51700  0.09940  0.76300  1.0000
  O   O26       1.0  0.98300  0.59900  0.76300  1.0000
  O   O27       1.0  0.56800  0.36900  0.81700  1.0000
  O   O28       1.0  0.93200  0.86900  0.81700  1.0000
  O   O29       1.0  0.27500  0.22500  0.83500  1.0000
  O   O30       1.0  0.22500  0.72500  0.83500  1.0000
  O   O31       1.0  0.28500  0.45300  0.95400  1.0000
  O   O32       1.0  0.21500  0.95300  0.95400  1.0000
