data_image0
_chemical_formula_structural       Nb4O20P4
_chemical_formula_sum              "Nb4 O20 P4"
_cell_length_a       11.2202
_cell_length_b       5.3296
_cell_length_c       6.52725
_cell_angle_alpha    90
_cell_angle_beta     90
_cell_angle_gamma    90

_space_group_name_H-M_alt    "P 1"
_space_group_IT_number       1

loop_
  _space_group_symop_operation_xyz
  'x, y, z'

loop_
  _atom_site_type_symbol
  _atom_site_label
  _atom_site_symmetry_multiplicity
  _atom_site_fract_x
  _atom_site_fract_y
  _atom_site_fract_z
  _atom_site_occupancy
  Nb  Nb1       1.0  0.44000  0.25000  0.32600  1.0000
  Nb  Nb2       1.0  0.05980  0.75000  0.82600  1.0000
  Nb  Nb3       1.0  0.94000  0.25000  0.17400  1.0000
  Nb  Nb4       1.0  0.56000  0.75000  0.67400  1.0000
  O   O1        1.0  0.29400  0.25000  0.49600  1.0000
  O   O2        1.0  0.20600  0.75000  0.99600  1.0000
  O   O3        1.0  0.79400  0.25000  0.00444  1.0000
  O   O4        1.0  0.70600  0.75000  0.50400  1.0000
  O   O5        1.0  0.12200  0.01240  0.63200  1.0000
  O   O6        1.0  0.37800  0.98800  0.13200  1.0000
  O   O7        1.0  0.62200  0.48800  0.86800  1.0000
  O   O8        1.0  0.87800  0.51200  0.36800  1.0000
  O   O9        1.0  0.87800  0.98800  0.36800  1.0000
  O   O10       1.0  0.62200  0.01240  0.86800  1.0000
  O   O11       1.0  0.37800  0.51200  0.13200  1.0000
  O   O12       1.0  0.12200  0.48800  0.63200  1.0000
  O   O13       1.0  0.10200  0.25000  0.30700  1.0000
  O   O14       1.0  0.39800  0.75000  0.80700  1.0000
  O   O15       1.0  0.60200  0.25000  0.19300  1.0000
  O   O16       1.0  0.89800  0.75000  0.69300  1.0000
  O   O17       1.0  0.00000  0.00000  0.00000  1.0000
  O   O18       1.0  0.50000  0.00000  0.50000  1.0000
  O   O19       1.0  0.50000  0.50000  0.50000  1.0000
  O   O20       1.0  0.00000  0.50000  0.00000  1.0000
  P   P1        1.0  0.15900  0.25000  0.51800  1.0000
  P   P2        1.0  0.34100  0.75000  0.01830  1.0000
  P   P3        1.0  0.65900  0.25000  0.98200  1.0000
  P   P4        1.0  0.84100  0.75000  0.48200  1.0000
