data_image0
_chemical_formula_structural       As8K4Mo6O40
_chemical_formula_sum              "As8 K4 Mo6 O40"
_cell_length_a       8.8154
_cell_length_b       9.70717
_cell_length_c       11.8508
_cell_angle_alpha    110.075
_cell_angle_beta     90
_cell_angle_gamma    117.005

_space_group_name_H-M_alt    "P 1"
_space_group_IT_number       1

loop_
  _space_group_symop_operation_xyz
  'x, y, z'

loop_
  _atom_site_type_symbol
  _atom_site_label
  _atom_site_symmetry_multiplicity
  _atom_site_fract_x
  _atom_site_fract_y
  _atom_site_fract_z
  _atom_site_occupancy
  As  As1       1.0  0.70800  0.72000  0.03880  1.0000
  As  As2       1.0  0.33700  0.36800  0.23600  1.0000
  As  As3       1.0  0.96900  0.63200  0.26400  1.0000
  As  As4       1.0  0.98800  0.28000  0.46100  1.0000
  As  As5       1.0  0.01210  0.72000  0.53900  1.0000
  As  As6       1.0  0.03120  0.36800  0.73600  1.0000
  As  As7       1.0  0.66300  0.63200  0.76400  1.0000
  As  As8       1.0  0.29200  0.28000  0.96100  1.0000
  K   K1        1.0  0.84800  0.19500  0.10500  1.0000
  K   K2        1.0  0.65300  0.80500  0.39500  1.0000
  K   K3        1.0  0.34700  0.19500  0.60500  1.0000
  K   K4        1.0  0.15200  0.80500  0.89500  1.0000
  Mo  Mo1       1.0  0.33200  0.67300  0.14000  1.0000
  Mo  Mo2       1.0  0.07670  0.00000  0.25000  1.0000
  Mo  Mo3       1.0  0.66000  0.32700  0.36000  1.0000
  Mo  Mo4       1.0  0.34000  0.67300  0.64000  1.0000
  Mo  Mo5       1.0  0.92300  0.00000  0.75000  1.0000
  Mo  Mo6       1.0  0.66800  0.32700  0.86000  1.0000
  O   O1        1.0  0.19600  0.40000  0.01300  1.0000
  O   O2        1.0  0.34300  0.74500  0.02500  1.0000
  O   O3        1.0  0.39000  0.27900  0.09490  1.0000
  O   O4        1.0  0.54500  0.64100  0.11600  1.0000
  O   O5        1.0  0.84300  0.92500  0.12300  1.0000
  O   O6        1.0  0.16600  0.93100  0.12800  1.0000
  O   O7        1.0  0.08340  0.59500  0.15200  1.0000
  O   O8        1.0  0.57500  0.14800  0.23000  1.0000
  O   O9        1.0  0.78600  0.45300  0.23600  1.0000
  O   O10       1.0  0.13300  0.21900  0.23700  1.0000
  O   O11       1.0  0.91400  0.78100  0.26300  1.0000
  O   O12       1.0  0.33300  0.54700  0.26400  1.0000
  O   O13       1.0  0.42700  0.85200  0.27000  1.0000
  O   O14       1.0  0.48900  0.40500  0.34800  1.0000
  O   O15       1.0  0.23500  0.06890  0.37200  1.0000
  O   O16       1.0  0.91800  0.07540  0.37700  1.0000
  O   O17       1.0  0.90400  0.35900  0.38400  1.0000
  O   O18       1.0  0.11100  0.72100  0.40500  1.0000
  O   O19       1.0  0.59800  0.25500  0.47500  1.0000
  O   O20       1.0  0.79600  0.60000  0.48700  1.0000
  O   O21       1.0  0.20400  0.40000  0.51300  1.0000
  O   O22       1.0  0.40200  0.74500  0.52500  1.0000
  O   O23       1.0  0.88900  0.27900  0.59500  1.0000
  O   O24       1.0  0.09600  0.64100  0.61600  1.0000
  O   O25       1.0  0.08150  0.92500  0.62300  1.0000
  O   O26       1.0  0.76500  0.93100  0.62800  1.0000
  O   O27       1.0  0.51100  0.59500  0.65200  1.0000
  O   O28       1.0  0.57300  0.14800  0.73000  1.0000
  O   O29       1.0  0.66700  0.45300  0.73600  1.0000
  O   O30       1.0  0.08650  0.21900  0.73700  1.0000
  O   O31       1.0  0.86700  0.78100  0.76300  1.0000
  O   O32       1.0  0.21400  0.54700  0.76400  1.0000
  O   O33       1.0  0.42500  0.85200  0.77000  1.0000
  O   O34       1.0  0.91700  0.40500  0.84800  1.0000
  O   O35       1.0  0.83400  0.06890  0.87200  1.0000
  O   O36       1.0  0.15700  0.07540  0.87700  1.0000
  O   O37       1.0  0.45500  0.35900  0.88400  1.0000
  O   O38       1.0  0.61000  0.72100  0.90500  1.0000
  O   O39       1.0  0.65700  0.25500  0.97500  1.0000
  O   O40       1.0  0.80400  0.60000  0.98700  1.0000
