data_image0
_chemical_formula_structural       Na6Nb8O35P5
_chemical_formula_sum              "Na6 Nb8 O35 P5"
_cell_length_a       8.91845
_cell_length_b       8.91843
_cell_length_c       11.2723
_cell_angle_alpha    66.6944
_cell_angle_beta     113.305
_cell_angle_gamma    120.001

_space_group_name_H-M_alt    "P 1"
_space_group_IT_number       1

loop_
  _space_group_symop_operation_xyz
  'x, y, z'

loop_
  _atom_site_type_symbol
  _atom_site_label
  _atom_site_symmetry_multiplicity
  _atom_site_fract_x
  _atom_site_fract_y
  _atom_site_fract_z
  _atom_site_occupancy
  Na  Na1       1.0  0.58200  0.00000  0.00000  1.0000
  Na  Na2       1.0  0.41800  0.41800  0.00000  1.0000
  Na  Na3       1.0  0.00000  0.58200  0.00000  1.0000
  Na  Na4       1.0  0.50000  0.28500  0.50000  1.0000
  Na  Na5       1.0  0.71500  0.71500  0.50000  1.0000
  Na  Na6       1.0  0.28500  0.50000  0.50000  1.0000
  Nb  Nb1       1.0  0.07470  0.18100  0.19100  1.0000
  Nb  Nb2       1.0  0.81900  0.70300  0.19100  1.0000
  Nb  Nb3       1.0  0.29700  0.92500  0.19100  1.0000
  Nb  Nb4       1.0  0.76300  0.23700  0.28800  1.0000
  Nb  Nb5       1.0  0.23700  0.76300  0.71200  1.0000
  Nb  Nb6       1.0  0.92500  0.29700  0.80900  1.0000
  Nb  Nb7       1.0  0.70300  0.81900  0.80900  1.0000
  Nb  Nb8       1.0  0.18100  0.07470  0.80900  1.0000
  O   O1        1.0  0.22300  0.00000  0.00000  1.0000
  O   O2        1.0  0.00000  0.22300  0.00000  1.0000
  O   O3        1.0  0.77700  0.77700  0.00000  1.0000
  O   O4        1.0  0.28100  0.43400  0.14800  1.0000
  O   O5        1.0  0.56600  0.70000  0.14800  1.0000
  O   O6        1.0  0.30000  0.71900  0.14800  1.0000
  O   O7        1.0  0.70000  0.43800  0.19400  1.0000
  O   O8        1.0  0.93200  0.30000  0.19400  1.0000
  O   O9        1.0  0.56200  0.06820  0.19400  1.0000
  O   O10       1.0  0.05460  0.74100  0.21200  1.0000
  O   O11       1.0  0.89800  0.94500  0.21200  1.0000
  O   O12       1.0  0.25900  0.10200  0.21200  1.0000
  O   O13       1.0  0.45300  0.54700  0.36000  1.0000
  O   O14       1.0  0.17600  0.16100  0.39600  1.0000
  O   O15       1.0  0.83900  0.61900  0.39600  1.0000
  O   O16       1.0  0.38100  0.82400  0.39600  1.0000
  O   O17       1.0  0.60800  0.13100  0.43000  1.0000
  O   O18       1.0  0.95200  0.39200  0.43000  1.0000
  O   O19       1.0  0.86900  0.04780  0.43000  1.0000
  O   O20       1.0  0.04780  0.86900  0.57000  1.0000
  O   O21       1.0  0.39200  0.95200  0.57000  1.0000
  O   O22       1.0  0.13100  0.60800  0.57000  1.0000
  O   O23       1.0  0.82400  0.38100  0.60400  1.0000
  O   O24       1.0  0.61900  0.83900  0.60400  1.0000
  O   O25       1.0  0.16100  0.17600  0.60400  1.0000
  O   O26       1.0  0.54700  0.45300  0.64000  1.0000
  O   O27       1.0  0.10200  0.25900  0.78800  1.0000
  O   O28       1.0  0.94500  0.89800  0.78800  1.0000
  O   O29       1.0  0.74100  0.05460  0.78800  1.0000
  O   O30       1.0  0.06820  0.56200  0.80600  1.0000
  O   O31       1.0  0.30000  0.93200  0.80600  1.0000
  O   O32       1.0  0.43800  0.70000  0.80600  1.0000
  O   O33       1.0  0.71900  0.30000  0.85200  1.0000
  O   O34       1.0  0.70000  0.56600  0.85200  1.0000
  O   O35       1.0  0.43400  0.28100  0.85200  1.0000
  P   P1        1.0  0.40300  0.59700  0.21000  1.0000
  P   P2        1.0  0.50000  0.93800  0.50000  1.0000
  P   P3        1.0  0.06210  0.06210  0.50000  1.0000
  P   P4        1.0  0.93800  0.50000  0.50000  1.0000
  P   P5        1.0  0.59700  0.40300  0.79000  1.0000
