data_image0
_chemical_formula_structural       Fe8Mo4P48
_chemical_formula_sum              "Fe8 Mo4 P48"
_cell_length_a       13.7479
_cell_length_b       5.67533
_cell_length_c       11.1123
_cell_angle_alpha    90
_cell_angle_beta     90
_cell_angle_gamma    90

_space_group_name_H-M_alt    "P 1"
_space_group_IT_number       1

loop_
  _space_group_symop_operation_xyz
  'x, y, z'

loop_
  _atom_site_type_symbol
  _atom_site_label
  _atom_site_symmetry_multiplicity
  _atom_site_fract_x
  _atom_site_fract_y
  _atom_site_fract_z
  _atom_site_occupancy
  Fe  Fe1       1.0  0.65000  0.10300  0.04110  1.0000
  Fe  Fe2       1.0  0.85000  0.60300  0.04110  1.0000
  Fe  Fe3       1.0  0.35000  0.10300  0.45900  1.0000
  Fe  Fe4       1.0  0.15000  0.60300  0.45900  1.0000
  Fe  Fe5       1.0  0.85000  0.39700  0.54100  1.0000
  Fe  Fe6       1.0  0.65000  0.89700  0.54100  1.0000
  Fe  Fe7       1.0  0.15000  0.39700  0.95900  1.0000
  Fe  Fe8       1.0  0.35000  0.89700  0.95900  1.0000
  Mo  Mo1       1.0  0.00000  0.10100  0.25000  1.0000
  Mo  Mo2       1.0  0.50000  0.60100  0.25000  1.0000
  Mo  Mo3       1.0  0.50000  0.39900  0.75000  1.0000
  Mo  Mo4       1.0  0.00000  0.89900  0.75000  1.0000
  P   P1        1.0  0.70300  0.46700  0.00021  1.0000
  P   P2        1.0  0.79700  0.96700  0.00021  1.0000
  P   P3        1.0  0.90800  0.23500  0.06110  1.0000
  P   P4        1.0  0.59200  0.73500  0.06110  1.0000
  P   P5        1.0  0.50900  0.25600  0.10200  1.0000
  P   P6        1.0  0.99100  0.75600  0.10200  1.0000
  P   P7        1.0  0.08690  0.43800  0.14400  1.0000
  P   P8        1.0  0.41300  0.93800  0.14400  1.0000
  P   P9        1.0  0.33200  0.48400  0.19600  1.0000
  P   P10       1.0  0.16800  0.98400  0.19600  1.0000
  P   P11       1.0  0.68900  0.11900  0.22900  1.0000
  P   P12       1.0  0.81100  0.61900  0.22900  1.0000
  P   P13       1.0  0.31100  0.11900  0.27100  1.0000
  P   P14       1.0  0.18900  0.61900  0.27100  1.0000
  P   P15       1.0  0.66800  0.48400  0.30400  1.0000
  P   P16       1.0  0.83200  0.98400  0.30400  1.0000
  P   P17       1.0  0.91300  0.43800  0.35600  1.0000
  P   P18       1.0  0.58700  0.93800  0.35600  1.0000
  P   P19       1.0  0.49100  0.25600  0.39800  1.0000
  P   P20       1.0  0.00853  0.75600  0.39800  1.0000
  P   P21       1.0  0.09160  0.23500  0.43900  1.0000
  P   P22       1.0  0.40800  0.73500  0.43900  1.0000
  P   P23       1.0  0.29700  0.46700  0.50000  1.0000
  P   P24       1.0  0.20300  0.96700  0.50000  1.0000
  P   P25       1.0  0.79700  0.03310  0.50000  1.0000
  P   P26       1.0  0.70300  0.53300  0.50000  1.0000
  P   P27       1.0  0.59200  0.26500  0.56100  1.0000
  P   P28       1.0  0.90800  0.76500  0.56100  1.0000
  P   P29       1.0  0.99100  0.24400  0.60200  1.0000
  P   P30       1.0  0.50900  0.74400  0.60200  1.0000
  P   P31       1.0  0.41300  0.06240  0.64400  1.0000
  P   P32       1.0  0.08690  0.56200  0.64400  1.0000
  P   P33       1.0  0.16800  0.01570  0.69600  1.0000
  P   P34       1.0  0.33200  0.51600  0.69600  1.0000
  P   P35       1.0  0.81100  0.38100  0.72900  1.0000
  P   P36       1.0  0.68900  0.88100  0.72900  1.0000
  P   P37       1.0  0.18900  0.38100  0.77100  1.0000
  P   P38       1.0  0.31100  0.88100  0.77100  1.0000
  P   P39       1.0  0.83200  0.01570  0.80400  1.0000
  P   P40       1.0  0.66800  0.51600  0.80400  1.0000
  P   P41       1.0  0.58700  0.06240  0.85600  1.0000
  P   P42       1.0  0.91300  0.56200  0.85600  1.0000
  P   P43       1.0  0.00853  0.24400  0.89800  1.0000
  P   P44       1.0  0.49100  0.74400  0.89800  1.0000
  P   P45       1.0  0.40800  0.26500  0.93900  1.0000
  P   P46       1.0  0.09160  0.76500  0.93900  1.0000
  P   P47       1.0  0.20300  0.03310  0.00000  1.0000
  P   P48       1.0  0.29700  0.53300  0.00000  1.0000
