data_image0
_chemical_formula_structural       Ag2C6Cl2H28N12O2S6
_chemical_formula_sum              "Ag2 C6 Cl2 H28 N12 O2 S6"
_cell_length_a       6.0263
_cell_length_b       9.84178
_cell_length_c       10.8511
_cell_angle_alpha    99.5166
_cell_angle_beta     92.0281
_cell_angle_gamma    103.2

_space_group_name_H-M_alt    "P 1"
_space_group_IT_number       1

loop_
  _space_group_symop_operation_xyz
  'x, y, z'

loop_
  _atom_site_type_symbol
  _atom_site_label
  _atom_site_symmetry_multiplicity
  _atom_site_fract_x
  _atom_site_fract_y
  _atom_site_fract_z
  _atom_site_occupancy
  Ag  Ag1       1.0  0.62500  0.53400  0.38900  1.0000
  Ag  Ag2       1.0  0.37500  0.46600  0.61100  1.0000
  C   C1        1.0  0.68600  0.69300  0.14200  1.0000
  C   C2        1.0  0.89000  0.31500  0.20500  1.0000
  C   C3        1.0  0.58200  0.18400  0.45400  1.0000
  C   C4        1.0  0.41800  0.81600  0.54600  1.0000
  C   C5        1.0  0.11000  0.68500  0.79500  1.0000
  C   C6        1.0  0.31400  0.30700  0.85800  1.0000
  Cl  Cl1       1.0  0.23400  0.95400  0.10400  1.0000
  Cl  Cl2       1.0  0.76600  0.04590  0.89600  1.0000
  H   H1        1.0  0.65200  0.22100  0.05910  1.0000
  H   H2        1.0  0.80700  0.88100  0.08030  1.0000
  H   H3        1.0  0.98000  0.15000  0.09280  1.0000
  H   H4        1.0  0.52000  0.84800  0.11600  1.0000
  H   H5        1.0  0.03000  0.73300  0.12100  1.0000
  H   H6        1.0  0.59600  0.37100  0.15400  1.0000
  H   H7        1.0  0.91700  0.58000  0.18200  1.0000
  H   H8        1.0  0.16600  0.23200  0.22700  1.0000
  H   H9        1.0  0.05920  0.95900  0.28000  1.0000
  H   H10       1.0  0.50700  0.06030  0.28100  1.0000
  H   H11       1.0  0.74100  0.03060  0.36700  1.0000
  H   H12       1.0  0.31900  0.71100  0.36800  1.0000
  H   H13       1.0  0.11300  0.06460  0.40500  1.0000
  H   H14       1.0  0.16800  0.84100  0.42300  1.0000
  H   H15       1.0  0.83200  0.15900  0.57700  1.0000
  H   H16       1.0  0.88700  0.93500  0.59500  1.0000
  H   H17       1.0  0.68100  0.28900  0.63200  1.0000
  H   H18       1.0  0.25900  0.96900  0.63300  1.0000
  H   H19       1.0  0.49300  0.94000  0.71900  1.0000
  H   H20       1.0  0.94100  0.04140  0.72000  1.0000
  H   H21       1.0  0.83400  0.76800  0.77300  1.0000
  H   H22       1.0  0.08330  0.42000  0.81800  1.0000
  H   H23       1.0  0.40400  0.62900  0.84600  1.0000
  H   H24       1.0  0.97000  0.26700  0.87900  1.0000
  H   H25       1.0  0.48000  0.15200  0.88400  1.0000
  H   H26       1.0  0.01960  0.85000  0.90700  1.0000
  H   H27       1.0  0.19300  0.11900  0.92000  1.0000
  H   H28       1.0  0.34800  0.77900  0.94100  1.0000
  N   N1        1.0  0.66900  0.81500  0.10700  1.0000
  N   N2        1.0  0.69300  0.29800  0.13700  1.0000
  N   N3        1.0  0.88900  0.66000  0.13800  1.0000
  N   N4        1.0  0.02620  0.22900  0.17000  1.0000
  N   N5        1.0  0.60900  0.08150  0.36300  1.0000
  N   N6        1.0  0.28400  0.78300  0.44100  1.0000
  N   N7        1.0  0.71600  0.21700  0.55900  1.0000
  N   N8        1.0  0.39100  0.91900  0.63700  1.0000
  N   N9        1.0  0.97400  0.77100  0.83000  1.0000
  N   N10       1.0  0.11100  0.34000  0.86200  1.0000
  N   N11       1.0  0.30700  0.70200  0.86300  1.0000
  N   N12       1.0  0.33100  0.18500  0.89300  1.0000
  O   O1        1.0  0.01320  0.97000  0.36700  1.0000
  O   O2        1.0  0.98700  0.02950  0.63300  1.0000
  S   S1        1.0  0.44700  0.58400  0.18500  1.0000
  S   S2        1.0  0.97400  0.44500  0.33600  1.0000
  S   S3        1.0  0.36800  0.27100  0.43100  1.0000
  S   S4        1.0  0.63200  0.72900  0.56900  1.0000
  S   S5        1.0  0.02600  0.55500  0.66400  1.0000
  S   S6        1.0  0.55300  0.41600  0.81500  1.0000
