data_image0
_chemical_formula_structural       Gd20S38
_chemical_formula_sum              "Gd20 S38"
_cell_length_a       8.72406
_cell_length_b       8.72406
_cell_length_c       15.8865
_cell_angle_alpha    90
_cell_angle_beta     90
_cell_angle_gamma    90

_space_group_name_H-M_alt    "P 1"
_space_group_IT_number       1

loop_
  _space_group_symop_operation_xyz
  'x, y, z'

loop_
  _atom_site_type_symbol
  _atom_site_label
  _atom_site_symmetry_multiplicity
  _atom_site_fract_x
  _atom_site_fract_y
  _atom_site_fract_z
  _atom_site_occupancy
  Gd  Gd1       1.0  0.64600  0.55500  0.10400  1.0000
  Gd  Gd2       1.0  0.85400  0.94500  0.10400  1.0000
  Gd  Gd3       1.0  0.25000  0.75000  0.11500  1.0000
  Gd  Gd4       1.0  0.45900  0.15200  0.12200  1.0000
  Gd  Gd5       1.0  0.04110  0.34800  0.12200  1.0000
  Gd  Gd6       1.0  0.15200  0.04110  0.37800  1.0000
  Gd  Gd7       1.0  0.34800  0.45900  0.37800  1.0000
  Gd  Gd8       1.0  0.75000  0.25000  0.38500  1.0000
  Gd  Gd9       1.0  0.94500  0.64600  0.39600  1.0000
  Gd  Gd10      1.0  0.55500  0.85400  0.39600  1.0000
  Gd  Gd11      1.0  0.44500  0.14600  0.60400  1.0000
  Gd  Gd12      1.0  0.05470  0.35400  0.60400  1.0000
  Gd  Gd13      1.0  0.25000  0.75000  0.61500  1.0000
  Gd  Gd14      1.0  0.65200  0.54100  0.62200  1.0000
  Gd  Gd15      1.0  0.84800  0.95900  0.62200  1.0000
  Gd  Gd16      1.0  0.95900  0.65200  0.87800  1.0000
  Gd  Gd17      1.0  0.54100  0.84800  0.87800  1.0000
  Gd  Gd18      1.0  0.75000  0.25000  0.88500  1.0000
  Gd  Gd19      1.0  0.14600  0.05470  0.89600  1.0000
  Gd  Gd20      1.0  0.35400  0.44500  0.89600  1.0000
  S   S1        1.0  0.94700  0.64900  0.06210  1.0000
  S   S2        1.0  0.55300  0.85100  0.06210  1.0000
  S   S3        1.0  0.75000  0.25000  0.06480  1.0000
  S   S4        1.0  0.15200  0.04900  0.07240  1.0000
  S   S5        1.0  0.34800  0.45100  0.07240  1.0000
  S   S6        1.0  0.47000  0.69200  0.24900  1.0000
  S   S7        1.0  0.03000  0.80800  0.24900  1.0000
  S   S8        1.0  0.92700  0.11400  0.25000  1.0000
  S   S9        1.0  0.57300  0.38600  0.25000  1.0000
  S   S10       1.0  0.25000  0.25000  0.25000  1.0000
  S   S11       1.0  0.11400  0.57300  0.25000  1.0000
  S   S12       1.0  0.38600  0.92700  0.25000  1.0000
  S   S13       1.0  0.69200  0.03000  0.25100  1.0000
  S   S14       1.0  0.80800  0.47000  0.25100  1.0000
  S   S15       1.0  0.45100  0.15200  0.42800  1.0000
  S   S16       1.0  0.04900  0.34800  0.42800  1.0000
  S   S17       1.0  0.25000  0.75000  0.43500  1.0000
  S   S18       1.0  0.64900  0.55300  0.43800  1.0000
  S   S19       1.0  0.85100  0.94700  0.43800  1.0000
  S   S20       1.0  0.14900  0.05320  0.56200  1.0000
  S   S21       1.0  0.35100  0.44700  0.56200  1.0000
  S   S22       1.0  0.75000  0.25000  0.56500  1.0000
  S   S23       1.0  0.95100  0.65200  0.57200  1.0000
  S   S24       1.0  0.54900  0.84800  0.57200  1.0000
  S   S25       1.0  0.19200  0.53000  0.74900  1.0000
  S   S26       1.0  0.30800  0.97000  0.74900  1.0000
  S   S27       1.0  0.61400  0.07250  0.75000  1.0000
  S   S28       1.0  0.88600  0.42700  0.75000  1.0000
  S   S29       1.0  0.75000  0.75000  0.75000  1.0000
  S   S30       1.0  0.42700  0.61400  0.75000  1.0000
  S   S31       1.0  0.07250  0.88600  0.75000  1.0000
  S   S32       1.0  0.97000  0.19200  0.75100  1.0000
  S   S33       1.0  0.53000  0.30800  0.75100  1.0000
  S   S34       1.0  0.65200  0.54900  0.92800  1.0000
  S   S35       1.0  0.84800  0.95100  0.92800  1.0000
  S   S36       1.0  0.25000  0.75000  0.93500  1.0000
  S   S37       1.0  0.44700  0.14900  0.93800  1.0000
  S   S38       1.0  0.05320  0.35100  0.93800  1.0000
