data_image0
_chemical_formula_structural       N12O24Zr21
_chemical_formula_sum              "N12 O24 Zr21"
_cell_length_a       9.59725
_cell_length_b       9.56342
_cell_length_c       8.90958
_cell_angle_alpha    89.6798
_cell_angle_beta     90.3602
_cell_angle_gamma    120.359

_space_group_name_H-M_alt    "P 1"
_space_group_IT_number       1

loop_
  _space_group_symop_operation_xyz
  'x, y, z'

loop_
  _atom_site_type_symbol
  _atom_site_label
  _atom_site_symmetry_multiplicity
  _atom_site_fract_x
  _atom_site_fract_y
  _atom_site_fract_z
  _atom_site_occupancy
  N   N1        1.0  0.11400  0.48400  0.06520  1.0000
  N   N2        1.0  0.81800  0.03440  0.10900  1.0000
  N   N3        1.0  0.22200  0.17800  0.11400  1.0000
  N   N4        1.0  0.70800  0.55000  0.22000  1.0000
  N   N5        1.0  0.78000  0.81800  0.39900  1.0000
  N   N6        1.0  0.48500  0.36800  0.44200  1.0000
  N   N7        1.0  0.88900  0.51200  0.44700  1.0000
  N   N8        1.0  0.37500  0.88300  0.55300  1.0000
  N   N9        1.0  0.44700  0.15100  0.73200  1.0000
  N   N10       1.0  0.15100  0.70100  0.77600  1.0000
  N   N11       1.0  0.55600  0.84500  0.78100  1.0000
  N   N12       1.0  0.04160  0.21600  0.88700  1.0000
  O   O1        1.0  0.36200  0.88100  0.05420  1.0000
  O   O2        1.0  0.51500  0.63600  0.06140  1.0000
  O   O3        1.0  0.97900  0.79000  0.11200  1.0000
  O   O4        1.0  0.84100  0.30300  0.21800  1.0000
  O   O5        1.0  0.46900  0.14900  0.21800  1.0000
  O   O6        1.0  0.53800  0.84400  0.27100  1.0000
  O   O7        1.0  0.29600  0.45600  0.27500  1.0000
  O   O8        1.0  0.16000  0.70500  0.27800  1.0000
  O   O9        1.0  0.02850  0.21400  0.38800  1.0000
  O   O10       1.0  0.18200  0.96900  0.39500  1.0000
  O   O11       1.0  0.64500  0.12300  0.44600  1.0000
  O   O12       1.0  0.50700  0.63600  0.55100  1.0000
  O   O13       1.0  0.13500  0.48200  0.55200  1.0000
  O   O14       1.0  0.20400  0.17700  0.60400  1.0000
  O   O15       1.0  0.96300  0.78900  0.60800  1.0000
  O   O16       1.0  0.82700  0.03860  0.61100  1.0000
  O   O17       1.0  0.69500  0.54800  0.72100  1.0000
  O   O18       1.0  0.84900  0.30300  0.72800  1.0000
  O   O19       1.0  0.31200  0.45600  0.77900  1.0000
  O   O20       1.0  0.17400  0.97000  0.88500  1.0000
  O   O21       1.0  0.80200  0.81500  0.88500  1.0000
  O   O22       1.0  0.87100  0.51100  0.93800  1.0000
  O   O23       1.0  0.62900  0.12200  0.94200  1.0000
  O   O24       1.0  0.49300  0.37200  0.94500  1.0000
  Zr  Zr1       1.0  0.00339  0.01090  0.00573  1.0000
  Zr  Zr2       1.0  0.11900  0.70100  0.01140  1.0000
  Zr  Zr3       1.0  0.58700  0.88200  0.01590  1.0000
  Zr  Zr4       1.0  0.27600  0.40200  0.01650  1.0000
  Zr  Zr5       1.0  0.06750  0.45600  0.31400  1.0000
  Zr  Zr6       1.0  0.54900  0.61400  0.31800  1.0000
  Zr  Zr7       1.0  0.37800  0.92400  0.32200  1.0000
  Zr  Zr8       1.0  0.67000  0.34400  0.33900  1.0000
  Zr  Zr9       1.0  0.78500  0.03410  0.34500  1.0000
  Zr  Zr10      1.0  0.25400  0.21600  0.34900  1.0000
  Zr  Zr11      1.0  0.94200  0.73600  0.35000  1.0000
  Zr  Zr12      1.0  0.73400  0.79000  0.64700  1.0000
  Zr  Zr13      1.0  0.21600  0.94800  0.65100  1.0000
  Zr  Zr14      1.0  0.04450  0.25700  0.65500  1.0000
  Zr  Zr15      1.0  0.33700  0.67800  0.67200  1.0000
  Zr  Zr16      1.0  0.45200  0.36700  0.67800  1.0000
  Zr  Zr17      1.0  0.92000  0.54900  0.68300  1.0000
  Zr  Zr18      1.0  0.60900  0.06890  0.68300  1.0000
  Zr  Zr19      1.0  0.40100  0.12300  0.98100  1.0000
  Zr  Zr20      1.0  0.88200  0.28100  0.98400  1.0000
  Zr  Zr21      1.0  0.71100  0.59000  0.98900  1.0000
