data_image0
_chemical_formula_structural       F24H24N8Si4
_chemical_formula_sum              "F24 H24 N8 Si4"
_cell_length_a       7.28432
_cell_length_b       7.28605
_cell_length_c       8.21655
_cell_angle_alpha    90
_cell_angle_beta     90
_cell_angle_gamma    90

_space_group_name_H-M_alt    "P 1"
_space_group_IT_number       1

loop_
  _space_group_symop_operation_xyz
  'x, y, z'

loop_
  _atom_site_type_symbol
  _atom_site_label
  _atom_site_symmetry_multiplicity
  _atom_site_fract_x
  _atom_site_fract_y
  _atom_site_fract_z
  _atom_site_occupancy
  F   F1        1.0  0.34900  0.35600  0.09430  1.0000
  F   F2        1.0  0.15100  0.85600  0.09430  1.0000
  F   F3        1.0  0.67000  0.41800  0.12300  1.0000
  F   F4        1.0  0.83000  0.91800  0.12300  1.0000
  F   F5        1.0  0.04820  0.16400  0.13800  1.0000
  F   F6        1.0  0.45200  0.66400  0.13800  1.0000
  F   F7        1.0  0.54800  0.16400  0.36200  1.0000
  F   F8        1.0  0.95200  0.66400  0.36200  1.0000
  F   F9        1.0  0.17000  0.41800  0.37700  1.0000
  F   F10       1.0  0.33000  0.91800  0.37700  1.0000
  F   F11       1.0  0.84900  0.35600  0.40600  1.0000
  F   F12       1.0  0.65100  0.85600  0.40600  1.0000
  F   F13       1.0  0.34900  0.14400  0.59400  1.0000
  F   F14       1.0  0.15100  0.64400  0.59400  1.0000
  F   F15       1.0  0.67000  0.08170  0.62300  1.0000
  F   F16       1.0  0.83000  0.58200  0.62300  1.0000
  F   F17       1.0  0.04820  0.33600  0.63800  1.0000
  F   F18       1.0  0.45200  0.83600  0.63800  1.0000
  F   F19       1.0  0.54800  0.33600  0.86200  1.0000
  F   F20       1.0  0.95200  0.83600  0.86200  1.0000
  F   F21       1.0  0.17000  0.08170  0.87700  1.0000
  F   F22       1.0  0.33000  0.58200  0.87700  1.0000
  F   F23       1.0  0.84900  0.14400  0.90600  1.0000
  F   F24       1.0  0.65100  0.64400  0.90600  1.0000
  H   H1        1.0  0.43300  0.15200  0.09820  1.0000
  H   H2        1.0  0.06710  0.65200  0.09820  1.0000
  H   H3        1.0  0.10100  0.42300  0.13400  1.0000
  H   H4        1.0  0.39900  0.92300  0.13400  1.0000
  H   H5        1.0  0.61600  0.00832  0.14000  1.0000
  H   H6        1.0  0.88400  0.50800  0.14000  1.0000
  H   H7        1.0  0.11600  0.00832  0.36000  1.0000
  H   H8        1.0  0.38400  0.50800  0.36000  1.0000
  H   H9        1.0  0.60100  0.42300  0.36600  1.0000
  H   H10       1.0  0.89900  0.92300  0.36600  1.0000
  H   H11       1.0  0.93300  0.15200  0.40200  1.0000
  H   H12       1.0  0.56700  0.65200  0.40200  1.0000
  H   H13       1.0  0.43300  0.34800  0.59800  1.0000
  H   H14       1.0  0.06710  0.84800  0.59800  1.0000
  H   H15       1.0  0.10100  0.07650  0.63400  1.0000
  H   H16       1.0  0.39900  0.57700  0.63400  1.0000
  H   H17       1.0  0.61600  0.49200  0.64000  1.0000
  H   H18       1.0  0.88400  0.99200  0.64000  1.0000
  H   H19       1.0  0.11600  0.49200  0.86000  1.0000
  H   H20       1.0  0.38400  0.99200  0.86000  1.0000
  H   H21       1.0  0.60100  0.07650  0.86600  1.0000
  H   H22       1.0  0.89900  0.57700  0.86600  1.0000
  H   H23       1.0  0.93300  0.34800  0.90200  1.0000
  H   H24       1.0  0.56700  0.84800  0.90200  1.0000
  N   N1        1.0  0.48800  0.02010  0.08440  1.0000
  N   N2        1.0  0.01200  0.52000  0.08440  1.0000
  N   N3        1.0  0.98800  0.02010  0.41600  1.0000
  N   N4        1.0  0.51200  0.52000  0.41600  1.0000
  N   N5        1.0  0.48800  0.48000  0.58400  1.0000
  N   N6        1.0  0.01200  0.98000  0.58400  1.0000
  N   N7        1.0  0.98800  0.48000  0.91600  1.0000
  N   N8        1.0  0.51200  0.98000  0.91600  1.0000
  Si  Si1       1.0  0.00000  0.00000  0.00000  1.0000
  Si  Si2       1.0  0.50000  0.50000  0.00000  1.0000
  Si  Si3       1.0  0.50000  0.00000  0.50000  1.0000
  Si  Si4       1.0  0.00000  0.50000  0.50000  1.0000
