data_image0
_chemical_formula_structural       As4H22Mn5O26
_chemical_formula_sum              "As4 H22 Mn5 O26"
_cell_length_a       7.75623
_cell_length_b       10.5141
_cell_length_c       6.73347
_cell_angle_alpha    80.7078
_cell_angle_beta     83.9098
_cell_angle_gamma    81.073

_space_group_name_H-M_alt    "P 1"
_space_group_IT_number       1

loop_
  _space_group_symop_operation_xyz
  'x, y, z'

loop_
  _atom_site_type_symbol
  _atom_site_label
  _atom_site_symmetry_multiplicity
  _atom_site_fract_x
  _atom_site_fract_y
  _atom_site_fract_z
  _atom_site_occupancy
  As  As1       1.0  0.04420  0.66600  0.07740  1.0000
  As  As2       1.0  0.37600  0.35300  0.40600  1.0000
  As  As3       1.0  0.62400  0.64700  0.59400  1.0000
  As  As4       1.0  0.95600  0.33400  0.92300  1.0000
  H   H1        1.0  0.33400  0.78000  0.09970  1.0000
  H   H2        1.0  0.46700  0.12400  0.10300  1.0000
  H   H3        1.0  0.76300  0.85000  0.13000  1.0000
  H   H4        1.0  0.64900  0.97700  0.20400  1.0000
  H   H5        1.0  0.18500  0.28800  0.20500  1.0000
  H   H6        1.0  0.47600  0.79200  0.25200  1.0000
  H   H7        1.0  0.21400  0.06040  0.27300  1.0000
  H   H8        1.0  0.47100  0.11200  0.34100  1.0000
  H   H9        1.0  0.01200  0.09790  0.36000  1.0000
  H   H10       1.0  0.12800  0.82800  0.37300  1.0000
  H   H11       1.0  0.72000  0.20500  0.47500  1.0000
  H   H12       1.0  0.28000  0.79500  0.52500  1.0000
  H   H13       1.0  0.87200  0.17200  0.62700  1.0000
  H   H14       1.0  0.98800  0.90200  0.64000  1.0000
  H   H15       1.0  0.52900  0.88800  0.65900  1.0000
  H   H16       1.0  0.78600  0.94000  0.72700  1.0000
  H   H17       1.0  0.52400  0.20800  0.74800  1.0000
  H   H18       1.0  0.81500  0.71200  0.79500  1.0000
  H   H19       1.0  0.35100  0.02260  0.79600  1.0000
  H   H20       1.0  0.23700  0.15000  0.87000  1.0000
  H   H21       1.0  0.53300  0.87600  0.89700  1.0000
  H   H22       1.0  0.66600  0.22000  0.90000  1.0000
  Mn  Mn1       1.0  0.00000  0.00000  0.00000  1.0000
  Mn  Mn2       1.0  0.62900  0.57700  0.10800  1.0000
  Mn  Mn3       1.0  0.91200  0.40000  0.40400  1.0000
  Mn  Mn4       1.0  0.08830  0.60000  0.59600  1.0000
  Mn  Mn5       1.0  0.37100  0.42300  0.89200  1.0000
  O   O1        1.0  0.82900  0.70700  0.01650  1.0000
  O   O2        1.0  0.13000  0.80400  0.09470  1.0000
  O   O3        1.0  0.83900  0.41300  0.10800  1.0000
  O   O4        1.0  0.46600  0.77000  0.11400  1.0000
  O   O5        1.0  0.44900  0.43400  0.18000  1.0000
  O   O6        1.0  0.77100  0.93300  0.18000  1.0000
  O   O7        1.0  0.44700  0.06370  0.23200  1.0000
  O   O8        1.0  0.09190  0.04290  0.27300  1.0000
  O   O9        1.0  0.05320  0.56700  0.30500  1.0000
  O   O10       1.0  0.18400  0.29300  0.36000  1.0000
  O   O11       1.0  0.67800  0.54500  0.41800  1.0000
  O   O12       1.0  0.85000  0.20500  0.48400  1.0000
  O   O13       1.0  0.51300  0.21700  0.49300  1.0000
  O   O14       1.0  0.48700  0.78300  0.50700  1.0000
  O   O15       1.0  0.15000  0.79500  0.51600  1.0000
  O   O16       1.0  0.32200  0.45500  0.58200  1.0000
  O   O17       1.0  0.81600  0.70700  0.64000  1.0000
  O   O18       1.0  0.94700  0.43300  0.69500  1.0000
  O   O19       1.0  0.90800  0.95700  0.72700  1.0000
  O   O20       1.0  0.55300  0.93600  0.76800  1.0000
  O   O21       1.0  0.22900  0.06750  0.82000  1.0000
  O   O22       1.0  0.55100  0.56600  0.82000  1.0000
  O   O23       1.0  0.53400  0.23000  0.88600  1.0000
  O   O24       1.0  0.16100  0.58700  0.89200  1.0000
  O   O25       1.0  0.87000  0.19600  0.90500  1.0000
  O   O26       1.0  0.17100  0.29300  0.98400  1.0000
