data_image0
_chemical_formula_structural       Ba4Ca2H12O32P8
_chemical_formula_sum              "Ba4 Ca2 H12 O32 P8"
_cell_length_a       5.45286
_cell_length_b       10.0862
_cell_length_c       12.2907
_cell_angle_alpha    90
_cell_angle_beta     100.877
_cell_angle_gamma    90

_space_group_name_H-M_alt    "P 1"
_space_group_IT_number       1

loop_
  _space_group_symop_operation_xyz
  'x, y, z'

loop_
  _atom_site_type_symbol
  _atom_site_label
  _atom_site_symmetry_multiplicity
  _atom_site_fract_x
  _atom_site_fract_y
  _atom_site_fract_z
  _atom_site_occupancy
  Ba  Ba1       1.0  0.85800  0.65600  0.17600  1.0000
  Ba  Ba2       1.0  0.14200  0.15600  0.32400  1.0000
  Ba  Ba3       1.0  0.85800  0.84400  0.67600  1.0000
  Ba  Ba4       1.0  0.14200  0.34400  0.82400  1.0000
  Ca  Ca1       1.0  0.00000  0.00000  0.00000  1.0000
  Ca  Ca2       1.0  0.00000  0.50000  0.50000  1.0000
  H   H1        1.0  0.43300  0.18200  0.06410  1.0000
  H   H2        1.0  0.29400  0.53200  0.06820  1.0000
  H   H3        1.0  0.62600  0.32500  0.24100  1.0000
  H   H4        1.0  0.37400  0.82500  0.25900  1.0000
  H   H5        1.0  0.70600  0.03150  0.43200  1.0000
  H   H6        1.0  0.56700  0.68200  0.43600  1.0000
  H   H7        1.0  0.43300  0.31800  0.56400  1.0000
  H   H8        1.0  0.29400  0.96800  0.56800  1.0000
  H   H9        1.0  0.62600  0.17500  0.74100  1.0000
  H   H10       1.0  0.37400  0.67500  0.75900  1.0000
  H   H11       1.0  0.70600  0.46800  0.93200  1.0000
  H   H12       1.0  0.56700  0.81800  0.93600  1.0000
  O   O1        1.0  0.06900  0.77200  0.00694  1.0000
  O   O2        1.0  0.75900  0.45800  0.01770  1.0000
  O   O3        1.0  0.48000  0.26200  0.01950  1.0000
  O   O4        1.0  0.36400  0.05900  0.12700  1.0000
  O   O5        1.0  0.82500  0.98800  0.15300  1.0000
  O   O6        1.0  0.83700  0.30800  0.18000  1.0000
  O   O7        1.0  0.36800  0.56000  0.18400  1.0000
  O   O8        1.0  0.52000  0.84000  0.21800  1.0000
  O   O9        1.0  0.48000  0.34000  0.28200  1.0000
  O   O10       1.0  0.63200  0.05990  0.31600  1.0000
  O   O11       1.0  0.16300  0.80800  0.32000  1.0000
  O   O12       1.0  0.17500  0.48800  0.34700  1.0000
  O   O13       1.0  0.63600  0.55900  0.37300  1.0000
  O   O14       1.0  0.52000  0.76200  0.48000  1.0000
  O   O15       1.0  0.24100  0.95800  0.48200  1.0000
  O   O16       1.0  0.93100  0.27200  0.49300  1.0000
  O   O17       1.0  0.06900  0.72800  0.50700  1.0000
  O   O18       1.0  0.75900  0.04220  0.51800  1.0000
  O   O19       1.0  0.48000  0.23800  0.52000  1.0000
  O   O20       1.0  0.36400  0.44100  0.62700  1.0000
  O   O21       1.0  0.82500  0.51200  0.65300  1.0000
  O   O22       1.0  0.83700  0.19200  0.68000  1.0000
  O   O23       1.0  0.36800  0.94000  0.68400  1.0000
  O   O24       1.0  0.52000  0.66000  0.71800  1.0000
  O   O25       1.0  0.48000  0.16000  0.78200  1.0000
  O   O26       1.0  0.63200  0.44000  0.81600  1.0000
  O   O27       1.0  0.16300  0.69200  0.82000  1.0000
  O   O28       1.0  0.17500  0.01190  0.84700  1.0000
  O   O29       1.0  0.63600  0.94100  0.87300  1.0000
  O   O30       1.0  0.52000  0.73800  0.98000  1.0000
  O   O31       1.0  0.24100  0.54200  0.98200  1.0000
  O   O32       1.0  0.93100  0.22800  0.99300  1.0000
  P   P1        1.0  0.76300  0.30700  0.05410  1.0000
  P   P2        1.0  0.58800  0.99000  0.20200  1.0000
  P   P3        1.0  0.41200  0.49000  0.29800  1.0000
  P   P4        1.0  0.23700  0.80700  0.44600  1.0000
  P   P5        1.0  0.76300  0.19300  0.55400  1.0000
  P   P6        1.0  0.58800  0.51000  0.70200  1.0000
  P   P7        1.0  0.41200  0.00953  0.79800  1.0000
  P   P8        1.0  0.23700  0.69300  0.94600  1.0000
