data_image0
_chemical_formula_structural       H32Ni2O20P4
_chemical_formula_sum              "H32 Ni2 O20 P4"
_cell_length_a       6.95653
_cell_length_b       6.95653
_cell_length_c       9.93697
_cell_angle_alpha    92.4061
_cell_angle_beta     92.4061
_cell_angle_gamma    90.3965

_space_group_name_H-M_alt    "P 1"
_space_group_IT_number       1

loop_
  _space_group_symop_operation_xyz
  'x, y, z'

loop_
  _atom_site_type_symbol
  _atom_site_label
  _atom_site_symmetry_multiplicity
  _atom_site_fract_x
  _atom_site_fract_y
  _atom_site_fract_z
  _atom_site_occupancy
  H   H1        1.0  0.71800  0.36400  0.00086  1.0000
  H   H2        1.0  0.28000  0.86900  0.00179  1.0000
  H   H3        1.0  0.96900  0.76200  0.07540  1.0000
  H   H4        1.0  0.65000  0.75900  0.10400  1.0000
  H   H5        1.0  0.04950  0.47100  0.18200  1.0000
  H   H6        1.0  0.40800  0.47400  0.18700  1.0000
  H   H7        1.0  0.04830  0.06040  0.19100  1.0000
  H   H8        1.0  0.41400  0.05990  0.19500  1.0000
  H   H9        1.0  0.94000  0.58600  0.30500  1.0000
  H   H10       1.0  0.94000  0.95200  0.30900  1.0000
  H   H11       1.0  0.52600  0.59200  0.31300  1.0000
  H   H12       1.0  0.52900  0.95000  0.31800  1.0000
  H   H13       1.0  0.24100  0.35000  0.39600  1.0000
  H   H14       1.0  0.23800  0.03090  0.42500  1.0000
  H   H15       1.0  0.13100  0.72000  0.49800  1.0000
  H   H16       1.0  0.63600  0.28200  0.49900  1.0000
  H   H17       1.0  0.36400  0.71800  0.50100  1.0000
  H   H18       1.0  0.86900  0.28000  0.50200  1.0000
  H   H19       1.0  0.76200  0.96900  0.57500  1.0000
  H   H20       1.0  0.75900  0.65000  0.60400  1.0000
  H   H21       1.0  0.47100  0.04950  0.68200  1.0000
  H   H22       1.0  0.47400  0.40800  0.68700  1.0000
  H   H23       1.0  0.06040  0.04830  0.69100  1.0000
  H   H24       1.0  0.05990  0.41400  0.69500  1.0000
  H   H25       1.0  0.58600  0.94000  0.80500  1.0000
  H   H26       1.0  0.95200  0.94000  0.80900  1.0000
  H   H27       1.0  0.59200  0.52600  0.81300  1.0000
  H   H28       1.0  0.95000  0.52900  0.81800  1.0000
  H   H29       1.0  0.35000  0.24100  0.89600  1.0000
  H   H30       1.0  0.03090  0.23800  0.92500  1.0000
  H   H31       1.0  0.72000  0.13100  0.99800  1.0000
  H   H32       1.0  0.28200  0.63600  0.99900  1.0000
  Ni  Ni1       1.0  0.72700  0.27300  0.25000  1.0000
  Ni  Ni2       1.0  0.27300  0.72700  0.75000  1.0000
  O   O1        1.0  0.67300  0.24900  0.04710  1.0000
  O   O2        1.0  0.22500  0.44000  0.07620  1.0000
  O   O3        1.0  0.22700  0.07060  0.08190  1.0000
  O   O4        1.0  0.92800  0.48500  0.23200  1.0000
  O   O5        1.0  0.93600  0.06370  0.25000  1.0000
  O   O6        1.0  0.52200  0.47800  0.25000  1.0000
  O   O7        1.0  0.51500  0.07180  0.26800  1.0000
  O   O8        1.0  0.92900  0.77300  0.41800  1.0000
  O   O9        1.0  0.56000  0.77500  0.42400  1.0000
  O   O10       1.0  0.75100  0.32700  0.45300  1.0000
  O   O11       1.0  0.24900  0.67300  0.54700  1.0000
  O   O12       1.0  0.44000  0.22500  0.57600  1.0000
  O   O13       1.0  0.07060  0.22700  0.58200  1.0000
  O   O14       1.0  0.48500  0.92800  0.73200  1.0000
  O   O15       1.0  0.47800  0.52200  0.75000  1.0000
  O   O16       1.0  0.06370  0.93600  0.75000  1.0000
  O   O17       1.0  0.07180  0.51500  0.76800  1.0000
  O   O18       1.0  0.77300  0.92900  0.91800  1.0000
  O   O19       1.0  0.77500  0.56000  0.92400  1.0000
  O   O20       1.0  0.32700  0.75100  0.95300  1.0000
  P   P1        1.0  0.79000  0.75200  0.00522  1.0000
  P   P2        1.0  0.24800  0.21000  0.49500  1.0000
  P   P3        1.0  0.75200  0.79000  0.50500  1.0000
  P   P4        1.0  0.21000  0.24800  0.99500  1.0000
