data_image0
_chemical_formula_structural       Bi2Cl10O40Rb4
_chemical_formula_sum              "Bi2 Cl10 O40 Rb4"
_cell_length_a       7.66754
_cell_length_b       10.0414
_cell_length_c       11.298
_cell_angle_alpha    75.5275
_cell_angle_beta     70.0301
_cell_angle_gamma    77.1944

_space_group_name_H-M_alt    "P 1"
_space_group_IT_number       1

loop_
  _space_group_symop_operation_xyz
  'x, y, z'

loop_
  _atom_site_type_symbol
  _atom_site_label
  _atom_site_symmetry_multiplicity
  _atom_site_fract_x
  _atom_site_fract_y
  _atom_site_fract_z
  _atom_site_occupancy
  Bi  Bi1       1.0  0.46600  0.21100  0.27900  1.0000
  Bi  Bi2       1.0  0.53400  0.78900  0.72100  1.0000
  Cl  Cl1       1.0  0.32700  0.30800  0.03650  1.0000
  Cl  Cl2       1.0  0.85200  0.19600  0.05590  1.0000
  Cl  Cl3       1.0  0.65800  0.89100  0.35500  1.0000
  Cl  Cl4       1.0  0.33700  0.53500  0.37400  1.0000
  Cl  Cl5       1.0  0.02270  0.20600  0.41900  1.0000
  Cl  Cl6       1.0  0.97700  0.79400  0.58100  1.0000
  Cl  Cl7       1.0  0.66300  0.46500  0.62600  1.0000
  Cl  Cl8       1.0  0.34200  0.10900  0.64500  1.0000
  Cl  Cl9       1.0  0.14800  0.80400  0.94400  1.0000
  Cl  Cl10      1.0  0.67300  0.69200  0.96400  1.0000
  O   O1        1.0  0.14400  0.38600  0.04260  1.0000
  O   O2        1.0  0.11400  0.71800  0.06970  1.0000
  O   O3        1.0  0.01770  0.10700  0.07370  1.0000
  O   O4        1.0  0.70300  0.11300  0.07810  1.0000
  O   O5        1.0  0.42800  0.38000  0.08820  1.0000
  O   O6        1.0  0.56900  0.70600  0.09340  1.0000
  O   O7        1.0  0.31500  0.17000  0.12100  1.0000
  O   O8        1.0  0.77300  0.28700  0.15400  1.0000
  O   O9        1.0  0.80000  0.80900  0.27000  1.0000
  O   O10       1.0  0.22500  0.58700  0.28800  1.0000
  O   O11       1.0  0.48900  0.93600  0.31200  1.0000
  O   O12       1.0  0.49300  0.42300  0.31900  1.0000
  O   O13       1.0  0.14300  0.31800  0.34000  1.0000
  O   O14       1.0  0.72400  0.01770  0.35400  1.0000
  O   O15       1.0  0.43400  0.64100  0.37800  1.0000
  O   O16       1.0  0.85800  0.23400  0.38000  1.0000
  O   O17       1.0  0.13900  0.07450  0.39200  1.0000
  O   O18       1.0  0.02110  0.78700  0.44800  1.0000
  O   O19       1.0  0.60500  0.81000  0.48500  1.0000
  O   O20       1.0  0.22700  0.47600  0.49900  1.0000
  O   O21       1.0  0.77300  0.52400  0.50100  1.0000
  O   O22       1.0  0.39500  0.19000  0.51500  1.0000
  O   O23       1.0  0.97900  0.21300  0.55200  1.0000
  O   O24       1.0  0.86100  0.92500  0.60800  1.0000
  O   O25       1.0  0.14200  0.76600  0.62000  1.0000
  O   O26       1.0  0.56600  0.35900  0.62200  1.0000
  O   O27       1.0  0.27600  0.98200  0.64600  1.0000
  O   O28       1.0  0.85700  0.68200  0.66000  1.0000
  O   O29       1.0  0.50700  0.57700  0.68100  1.0000
  O   O30       1.0  0.51100  0.06360  0.68800  1.0000
  O   O31       1.0  0.77500  0.41300  0.71200  1.0000
  O   O32       1.0  0.20000  0.19100  0.73000  1.0000
  O   O33       1.0  0.22700  0.71300  0.84600  1.0000
  O   O34       1.0  0.68500  0.83000  0.87900  1.0000
  O   O35       1.0  0.43100  0.29400  0.90700  1.0000
  O   O36       1.0  0.57200  0.62000  0.91200  1.0000
  O   O37       1.0  0.29700  0.88700  0.92200  1.0000
  O   O38       1.0  0.98200  0.89300  0.92600  1.0000
  O   O39       1.0  0.88600  0.28200  0.93000  1.0000
  O   O40       1.0  0.85600  0.61400  0.95700  1.0000
  Rb  Rb1       1.0  0.22800  0.88900  0.20200  1.0000
  Rb  Rb2       1.0  0.85800  0.52900  0.23500  1.0000
  Rb  Rb3       1.0  0.14200  0.47100  0.76500  1.0000
  Rb  Rb4       1.0  0.77200  0.11100  0.79800  1.0000
