data_image0
_chemical_formula_structural       Al4H22O26P6
_chemical_formula_sum              "Al4 H22 O26 P6"
_cell_length_a       7.40922
_cell_length_b       9.83554
_cell_length_c       7.84509
_cell_angle_alpha    90
_cell_angle_beta     111.463
_cell_angle_gamma    90

_space_group_name_H-M_alt    "P 1"
_space_group_IT_number       1

loop_
  _space_group_symop_operation_xyz
  'x, y, z'

loop_
  _atom_site_type_symbol
  _atom_site_label
  _atom_site_symmetry_multiplicity
  _atom_site_fract_x
  _atom_site_fract_y
  _atom_site_fract_z
  _atom_site_occupancy
  Al  Al1       1.0  0.56700  0.84900  0.01920  1.0000
  Al  Al2       1.0  0.09720  0.57900  0.38600  1.0000
  Al  Al3       1.0  0.90300  0.07930  0.61400  1.0000
  Al  Al4       1.0  0.43300  0.34900  0.98100  1.0000
  H   H1        1.0  0.11100  0.03760  0.08750  1.0000
  H   H2        1.0  0.85800  0.17900  0.09150  1.0000
  H   H3        1.0  0.04560  0.89100  0.20600  1.0000
  H   H4        1.0  0.22400  0.40500  0.22600  1.0000
  H   H5        1.0  0.74100  0.40800  0.24800  1.0000
  H   H6        1.0  0.66600  0.26200  0.30500  1.0000
  H   H7        1.0  0.59600  0.03190  0.31700  1.0000
  H   H8        1.0  0.60400  0.69000  0.35900  1.0000
  H   H9        1.0  0.24000  0.32100  0.40700  1.0000
  H   H10       1.0  0.52900  0.12200  0.45600  1.0000
  H   H11       1.0  0.23300  0.11000  0.48500  1.0000
  H   H12       1.0  0.76700  0.61000  0.51500  1.0000
  H   H13       1.0  0.47100  0.62200  0.54400  1.0000
  H   H14       1.0  0.76000  0.82100  0.59300  1.0000
  H   H15       1.0  0.39600  0.19000  0.64100  1.0000
  H   H16       1.0  0.40400  0.53200  0.68300  1.0000
  H   H17       1.0  0.33400  0.76200  0.69500  1.0000
  H   H18       1.0  0.25900  0.90800  0.75200  1.0000
  H   H19       1.0  0.77600  0.90500  0.77400  1.0000
  H   H20       1.0  0.95400  0.39100  0.79400  1.0000
  H   H21       1.0  0.14200  0.67900  0.90900  1.0000
  H   H22       1.0  0.88900  0.53800  0.91200  1.0000
  O   O1        1.0  0.29100  0.22300  0.06000  1.0000
  O   O2        1.0  0.29800  0.47800  0.06520  1.0000
  O   O3        1.0  0.41800  0.97900  0.08780  1.0000
  O   O4        1.0  0.46500  0.70800  0.11800  1.0000
  O   O5        1.0  0.85100  0.55000  0.20200  1.0000
  O   O6        1.0  0.63400  0.34000  0.21900  1.0000
  O   O7        1.0  0.19000  0.66200  0.22300  1.0000
  O   O8        1.0  0.74500  0.86800  0.25500  1.0000
  O   O9        1.0  0.17500  0.40100  0.32800  1.0000
  O   O10       1.0  0.64300  0.09950  0.41800  1.0000
  O   O11       1.0  0.01820  0.00995  0.45500  1.0000
  O   O12       1.0  0.05150  0.75300  0.45800  1.0000
  O   O13       1.0  0.65400  0.67100  0.49300  1.0000
  O   O14       1.0  0.34600  0.17100  0.50700  1.0000
  O   O15       1.0  0.94900  0.25300  0.54200  1.0000
  O   O16       1.0  0.98200  0.51000  0.54500  1.0000
  O   O17       1.0  0.35700  0.60000  0.58200  1.0000
  O   O18       1.0  0.82500  0.90100  0.67200  1.0000
  O   O19       1.0  0.25500  0.36800  0.74500  1.0000
  O   O20       1.0  0.81000  0.16200  0.77700  1.0000
  O   O21       1.0  0.36600  0.84000  0.78100  1.0000
  O   O22       1.0  0.14900  0.04960  0.79800  1.0000
  O   O23       1.0  0.53500  0.20800  0.88200  1.0000
  O   O24       1.0  0.58200  0.47900  0.91200  1.0000
  O   O25       1.0  0.70200  0.97800  0.93500  1.0000
  O   O26       1.0  0.70900  0.72300  0.94000  1.0000
  P   P1        1.0  0.24400  0.07440  0.00620  1.0000
  P   P2        1.0  0.27500  0.63200  0.07740  1.0000
  P   P3        1.0  0.96500  0.87800  0.34200  1.0000
  P   P4        1.0  0.03460  0.37800  0.65800  1.0000
  P   P5        1.0  0.72500  0.13200  0.92300  1.0000
  P   P6        1.0  0.75600  0.57400  0.99400  1.0000
