data_image0
_chemical_formula_structural       Al18B2Ca2O36Zr2
_chemical_formula_sum              "Al18 B2 Ca2 O36 Zr2"
_cell_length_a       8.72335
_cell_length_b       8.72351
_cell_length_c       8.47619
_cell_angle_alpha    90
_cell_angle_beta     90
_cell_angle_gamma    120

_space_group_name_H-M_alt    "P 1"
_space_group_IT_number       1

loop_
  _space_group_symop_operation_xyz
  'x, y, z'

loop_
  _atom_site_type_symbol
  _atom_site_label
  _atom_site_symmetry_multiplicity
  _atom_site_fract_x
  _atom_site_fract_y
  _atom_site_fract_z
  _atom_site_occupancy
  Al  Al1       1.0  0.64000  0.98200  0.07780  1.0000
  Al  Al2       1.0  0.34300  0.36000  0.07780  1.0000
  Al  Al3       1.0  0.01760  0.65700  0.07780  1.0000
  Al  Al4       1.0  0.66800  0.66300  0.24900  1.0000
  Al  Al5       1.0  0.33700  0.00451  0.24900  1.0000
  Al  Al6       1.0  0.99500  0.33200  0.24900  1.0000
  Al  Al7       1.0  0.01770  0.65700  0.42100  1.0000
  Al  Al8       1.0  0.34300  0.36100  0.42100  1.0000
  Al  Al9       1.0  0.63900  0.98200  0.42100  1.0000
  Al  Al10      1.0  0.36000  0.01760  0.57800  1.0000
  Al  Al11      1.0  0.65700  0.64000  0.57800  1.0000
  Al  Al12      1.0  0.98200  0.34300  0.57800  1.0000
  Al  Al13      1.0  0.33200  0.33700  0.74900  1.0000
  Al  Al14      1.0  0.00451  0.66800  0.74900  1.0000
  Al  Al15      1.0  0.66300  0.99500  0.74900  1.0000
  Al  Al16      1.0  0.98200  0.34300  0.92100  1.0000
  Al  Al17      1.0  0.65700  0.63900  0.92100  1.0000
  Al  Al18      1.0  0.36100  0.01770  0.92100  1.0000
  B   B1        1.0  0.33300  0.66700  0.24900  1.0000
  B   B2        1.0  0.66700  0.33300  0.74900  1.0000
  Ca  Ca1       1.0  0.00000  0.00000  0.49500  1.0000
  Ca  Ca2       1.0  0.00000  0.00000  0.99500  1.0000
  O   O1        1.0  0.10700  0.29800  0.08180  1.0000
  O   O2        1.0  0.70200  0.80800  0.08180  1.0000
  O   O3        1.0  0.19200  0.89300  0.08180  1.0000
  O   O4        1.0  0.59500  0.47700  0.09110  1.0000
  O   O5        1.0  0.52300  0.11800  0.09110  1.0000
  O   O6        1.0  0.88200  0.40500  0.09110  1.0000
  O   O7        1.0  0.39900  0.55200  0.25000  1.0000
  O   O8        1.0  0.44800  0.84700  0.25000  1.0000
  O   O9        1.0  0.15300  0.60100  0.25000  1.0000
  O   O10       1.0  0.78200  0.11000  0.25000  1.0000
  O   O11       1.0  0.32800  0.21800  0.25000  1.0000
  O   O12       1.0  0.89000  0.67200  0.25000  1.0000
  O   O13       1.0  0.52300  0.11800  0.40800  1.0000
  O   O14       1.0  0.88200  0.40500  0.40800  1.0000
  O   O15       1.0  0.59500  0.47700  0.40800  1.0000
  O   O16       1.0  0.70100  0.80800  0.41700  1.0000
  O   O17       1.0  0.19200  0.89300  0.41700  1.0000
  O   O18       1.0  0.10700  0.29900  0.41700  1.0000
  O   O19       1.0  0.29800  0.19200  0.58200  1.0000
  O   O20       1.0  0.89300  0.70200  0.58200  1.0000
  O   O21       1.0  0.80800  0.10700  0.58200  1.0000
  O   O22       1.0  0.40500  0.52300  0.59100  1.0000
  O   O23       1.0  0.11800  0.59500  0.59100  1.0000
  O   O24       1.0  0.47700  0.88200  0.59100  1.0000
  O   O25       1.0  0.55200  0.15300  0.75000  1.0000
  O   O26       1.0  0.84700  0.39900  0.75000  1.0000
  O   O27       1.0  0.60100  0.44800  0.75000  1.0000
  O   O28       1.0  0.11000  0.32800  0.75000  1.0000
  O   O29       1.0  0.67200  0.78200  0.75000  1.0000
  O   O30       1.0  0.21800  0.89000  0.75000  1.0000
  O   O31       1.0  0.47700  0.88200  0.90800  1.0000
  O   O32       1.0  0.11800  0.59500  0.90800  1.0000
  O   O33       1.0  0.40500  0.52300  0.90800  1.0000
  O   O34       1.0  0.80800  0.10700  0.91700  1.0000
  O   O35       1.0  0.29900  0.19200  0.91700  1.0000
  O   O36       1.0  0.89300  0.70100  0.91700  1.0000
  Zr  Zr1       1.0  0.66700  0.33300  0.25000  1.0000
  Zr  Zr2       1.0  0.33300  0.66700  0.75000  1.0000
