data_image0
_chemical_formula_structural       H8K4La2N10O34
_chemical_formula_sum              "H8 K4 La2 N10 O34"
_cell_length_a       8.07852
_cell_length_b       8.07852
_cell_length_c       11.7369
_cell_angle_alpha    108.505
_cell_angle_beta     108.505
_cell_angle_gamma    94.4605

_space_group_name_H-M_alt    "P 1"
_space_group_IT_number       1

loop_
  _space_group_symop_operation_xyz
  'x, y, z'

loop_
  _atom_site_type_symbol
  _atom_site_label
  _atom_site_symmetry_multiplicity
  _atom_site_fract_x
  _atom_site_fract_y
  _atom_site_fract_z
  _atom_site_occupancy
  H   H1        1.0  0.51900  0.10200  0.20100  1.0000
  H   H2        1.0  0.71500  0.13100  0.21200  1.0000
  H   H3        1.0  0.25300  0.16900  0.28800  1.0000
  H   H4        1.0  0.06880  0.15200  0.29900  1.0000
  H   H5        1.0  0.84800  0.93100  0.70100  1.0000
  H   H6        1.0  0.83100  0.74700  0.71200  1.0000
  H   H7        1.0  0.86900  0.28500  0.78800  1.0000
  H   H8        1.0  0.89800  0.48100  0.79900  1.0000
  K   K1        1.0  0.63800  0.69200  0.21100  1.0000
  K   K2        1.0  0.17800  0.73100  0.28900  1.0000
  K   K3        1.0  0.26900  0.82200  0.71100  1.0000
  K   K4        1.0  0.30800  0.36200  0.78900  1.0000
  La  La1       1.0  0.00211  0.99800  0.00000  1.0000
  La  La2       1.0  0.75200  0.24800  0.50000  1.0000
  N   N1        1.0  0.26200  0.73800  0.00000  1.0000
  N   N2        1.0  0.34000  0.21300  0.01820  1.0000
  N   N3        1.0  0.92000  0.35000  0.15200  1.0000
  N   N4        1.0  0.51700  0.44700  0.34800  1.0000
  N   N5        1.0  0.07210  0.44500  0.48200  1.0000
  N   N6        1.0  0.01220  0.98800  0.50000  1.0000
  N   N7        1.0  0.55500  0.92800  0.51800  1.0000
  N   N8        1.0  0.55300  0.48300  0.65200  1.0000
  N   N9        1.0  0.65000  0.08030  0.84800  1.0000
  N   N10       1.0  0.78700  0.66000  0.98200  1.0000
  O   O1        1.0  0.36700  0.63300  0.00000  1.0000
  O   O2        1.0  0.47500  0.31500  0.03610  1.0000
  O   O3        1.0  0.82900  0.80100  0.08270  1.0000
  O   O4        1.0  0.21400  0.80100  0.09550  1.0000
  O   O5        1.0  0.33300  0.14100  0.10000  1.0000
  O   O6        1.0  0.05280  0.35500  0.11700  1.0000
  O   O7        1.0  0.82800  0.19600  0.12300  1.0000
  O   O8        1.0  0.88100  0.48800  0.21300  1.0000
  O   O9        1.0  0.63600  0.08220  0.24900  1.0000
  O   O10       1.0  0.13800  0.08370  0.25100  1.0000
  O   O11       1.0  0.41800  0.52500  0.28700  1.0000
  O   O12       1.0  0.45500  0.32300  0.37700  1.0000
  O   O13       1.0  0.68600  0.48800  0.38300  1.0000
  O   O14       1.0  0.98200  0.29100  0.40000  1.0000
  O   O15       1.0  0.86800  0.95500  0.40500  1.0000
  O   O16       1.0  0.49600  0.96800  0.41700  1.0000
  O   O17       1.0  0.18900  0.52900  0.46400  1.0000
  O   O18       1.0  0.11700  0.88300  0.50000  1.0000
  O   O19       1.0  0.47100  0.81100  0.53600  1.0000
  O   O20       1.0  0.03180  0.50400  0.58300  1.0000
  O   O21       1.0  0.04460  0.13200  0.59500  1.0000
  O   O22       1.0  0.70900  0.01800  0.60000  1.0000
  O   O23       1.0  0.51200  0.31400  0.61700  1.0000
  O   O24       1.0  0.67700  0.54500  0.62300  1.0000
  O   O25       1.0  0.47500  0.58200  0.71300  1.0000
  O   O26       1.0  0.91600  0.86200  0.74900  1.0000
  O   O27       1.0  0.91800  0.36400  0.75100  1.0000
  O   O28       1.0  0.51200  0.11900  0.78700  1.0000
  O   O29       1.0  0.80400  0.17200  0.87700  1.0000
  O   O30       1.0  0.64500  0.94700  0.88300  1.0000
  O   O31       1.0  0.85900  0.66700  0.90000  1.0000
  O   O32       1.0  0.19900  0.78600  0.90500  1.0000
  O   O33       1.0  0.19900  0.17100  0.91700  1.0000
  O   O34       1.0  0.68500  0.52500  0.96400  1.0000
