data_image0
_chemical_formula_structural       C24Fe4N24Zn6
_chemical_formula_sum              "C24 Fe4 N24 Zn6"
_cell_length_a       12.4849
_cell_length_b       12.4849
_cell_length_c       12.9841
_cell_angle_alpha    118.736
_cell_angle_beta     118.736
_cell_angle_gamma    60

_space_group_name_H-M_alt    "P 1"
_space_group_IT_number       1

loop_
  _space_group_symop_operation_xyz
  'x, y, z'

loop_
  _atom_site_type_symbol
  _atom_site_label
  _atom_site_symmetry_multiplicity
  _atom_site_fract_x
  _atom_site_fract_y
  _atom_site_fract_z
  _atom_site_occupancy
  C   C1        1.0  0.79400  0.55200  0.04120  1.0000
  C   C2        1.0  0.55200  0.69500  0.04120  1.0000
  C   C3        1.0  0.69500  0.79400  0.04120  1.0000
  C   C4        1.0  0.50300  0.25400  0.15800  1.0000
  C   C5        1.0  0.25400  0.40100  0.15800  1.0000
  C   C6        1.0  0.40100  0.50300  0.15800  1.0000
  C   C7        1.0  0.99700  0.09850  0.34200  1.0000
  C   C8        1.0  0.09850  0.24600  0.34200  1.0000
  C   C9        1.0  0.24600  0.99700  0.34200  1.0000
  C   C10       1.0  0.94800  0.70600  0.45900  1.0000
  C   C11       1.0  0.70600  0.80500  0.45900  1.0000
  C   C12       1.0  0.80500  0.94800  0.45900  1.0000
  C   C13       1.0  0.19500  0.05180  0.54100  1.0000
  C   C14       1.0  0.29400  0.19500  0.54100  1.0000
  C   C15       1.0  0.05180  0.29400  0.54100  1.0000
  C   C16       1.0  0.75400  0.00291  0.65800  1.0000
  C   C17       1.0  0.90100  0.75400  0.65800  1.0000
  C   C18       1.0  0.00291  0.90100  0.65800  1.0000
  C   C19       1.0  0.59900  0.49700  0.84200  1.0000
  C   C20       1.0  0.74600  0.59900  0.84200  1.0000
  C   C21       1.0  0.49700  0.74600  0.84200  1.0000
  C   C22       1.0  0.30500  0.20600  0.95900  1.0000
  C   C23       1.0  0.44800  0.30500  0.95900  1.0000
  C   C24       1.0  0.20600  0.44800  0.95900  1.0000
  Fe  Fe1       1.0  0.35400  0.35400  0.06190  1.0000
  Fe  Fe2       1.0  0.14600  0.14600  0.43800  1.0000
  Fe  Fe3       1.0  0.85400  0.85400  0.56200  1.0000
  Fe  Fe4       1.0  0.64600  0.64600  0.93800  1.0000
  N   N1        1.0  0.88500  0.49700  0.10800  1.0000
  N   N2        1.0  0.49700  0.72600  0.10800  1.0000
  N   N3        1.0  0.72600  0.88500  0.10800  1.0000
  N   N4        1.0  0.59600  0.18700  0.21300  1.0000
  N   N5        1.0  0.18700  0.43000  0.21300  1.0000
  N   N6        1.0  0.43000  0.59600  0.21300  1.0000
  N   N7        1.0  0.90400  0.06990  0.28700  1.0000
  N   N8        1.0  0.06990  0.31300  0.28700  1.0000
  N   N9        1.0  0.31300  0.90400  0.28700  1.0000
  N   N10       1.0  0.77400  0.00313  0.39200  1.0000
  N   N11       1.0  0.00313  0.61500  0.39200  1.0000
  N   N12       1.0  0.61500  0.77400  0.39200  1.0000
  N   N13       1.0  0.38500  0.22600  0.60800  1.0000
  N   N14       1.0  0.99700  0.38500  0.60800  1.0000
  N   N15       1.0  0.22600  0.99700  0.60800  1.0000
  N   N16       1.0  0.68700  0.09630  0.71300  1.0000
  N   N17       1.0  0.93000  0.68700  0.71300  1.0000
  N   N18       1.0  0.09630  0.93000  0.71300  1.0000
  N   N19       1.0  0.57000  0.40400  0.78700  1.0000
  N   N20       1.0  0.81300  0.57000  0.78700  1.0000
  N   N21       1.0  0.40400  0.81300  0.78700  1.0000
  N   N22       1.0  0.27400  0.11500  0.89200  1.0000
  N   N23       1.0  0.50300  0.27400  0.89200  1.0000
  N   N24       1.0  0.11500  0.50300  0.89200  1.0000
  Zn  Zn1       1.0  0.75000  0.03880  0.25000  1.0000
  Zn  Zn2       1.0  0.03880  0.46100  0.25000  1.0000
  Zn  Zn3       1.0  0.46100  0.75000  0.25000  1.0000
  Zn  Zn4       1.0  0.53900  0.25000  0.75000  1.0000
  Zn  Zn5       1.0  0.96100  0.53900  0.75000  1.0000
  Zn  Zn6       1.0  0.25000  0.96100  0.75000  1.0000
