data_image0
_chemical_formula_structural       Br30Gd22Ir6
_chemical_formula_sum              "Br30 Gd22 Ir6"
_cell_length_a       12.8447
_cell_length_b       12.8447
_cell_length_c       12.8394
_cell_angle_alpha    90
_cell_angle_beta     90
_cell_angle_gamma    120

_space_group_name_H-M_alt    "P 1"
_space_group_IT_number       1

loop_
  _space_group_symop_operation_xyz
  'x, y, z'

loop_
  _atom_site_type_symbol
  _atom_site_label
  _atom_site_symmetry_multiplicity
  _atom_site_fract_x
  _atom_site_fract_y
  _atom_site_fract_z
  _atom_site_occupancy
  Br  Br1       1.0  0.27600  0.08480  0.06560  1.0000
  Br  Br2       1.0  0.80900  0.72400  0.06560  1.0000
  Br  Br3       1.0  0.91500  0.19100  0.06560  1.0000
  Br  Br4       1.0  0.13000  0.52700  0.08850  1.0000
  Br  Br5       1.0  0.47300  0.60300  0.08850  1.0000
  Br  Br6       1.0  0.39700  0.87000  0.08850  1.0000
  Br  Br7       1.0  0.19500  0.31200  0.25000  1.0000
  Br  Br8       1.0  0.11700  0.80500  0.25000  1.0000
  Br  Br9       1.0  0.68800  0.88300  0.25000  1.0000
  Br  Br10      1.0  0.39700  0.87000  0.41200  1.0000
  Br  Br11      1.0  0.13000  0.52700  0.41200  1.0000
  Br  Br12      1.0  0.47300  0.60300  0.41200  1.0000
  Br  Br13      1.0  0.91500  0.19100  0.43400  1.0000
  Br  Br14      1.0  0.80900  0.72400  0.43400  1.0000
  Br  Br15      1.0  0.27600  0.08480  0.43400  1.0000
  Br  Br16      1.0  0.72400  0.91500  0.56600  1.0000
  Br  Br17      1.0  0.19100  0.27600  0.56600  1.0000
  Br  Br18      1.0  0.08480  0.80900  0.56600  1.0000
  Br  Br19      1.0  0.52700  0.39700  0.58800  1.0000
  Br  Br20      1.0  0.87000  0.47300  0.58800  1.0000
  Br  Br21      1.0  0.60300  0.13000  0.58800  1.0000
  Br  Br22      1.0  0.31200  0.11700  0.75000  1.0000
  Br  Br23      1.0  0.88300  0.19500  0.75000  1.0000
  Br  Br24      1.0  0.80500  0.68800  0.75000  1.0000
  Br  Br25      1.0  0.60300  0.13000  0.91200  1.0000
  Br  Br26      1.0  0.52700  0.39700  0.91200  1.0000
  Br  Br27      1.0  0.87000  0.47300  0.91200  1.0000
  Br  Br28      1.0  0.08480  0.80900  0.93400  1.0000
  Br  Br29      1.0  0.19100  0.27600  0.93400  1.0000
  Br  Br30      1.0  0.72400  0.91500  0.93400  1.0000
  Gd  Gd1       1.0  0.66700  0.33300  0.08050  1.0000
  Gd  Gd2       1.0  0.96000  0.62100  0.10800  1.0000
  Gd  Gd3       1.0  0.66100  0.03970  0.10800  1.0000
  Gd  Gd4       1.0  0.37900  0.33900  0.10800  1.0000
  Gd  Gd5       1.0  0.40700  0.08180  0.25000  1.0000
  Gd  Gd6       1.0  0.91800  0.32500  0.25000  1.0000
  Gd  Gd7       1.0  0.67500  0.59300  0.25000  1.0000
  Gd  Gd8       1.0  0.66100  0.03970  0.39200  1.0000
  Gd  Gd9       1.0  0.37900  0.33900  0.39200  1.0000
  Gd  Gd10      1.0  0.96000  0.62100  0.39200  1.0000
  Gd  Gd11      1.0  0.66700  0.33300  0.41900  1.0000
  Gd  Gd12      1.0  0.33300  0.66700  0.58100  1.0000
  Gd  Gd13      1.0  0.03970  0.37900  0.60800  1.0000
  Gd  Gd14      1.0  0.62100  0.66100  0.60800  1.0000
  Gd  Gd15      1.0  0.33900  0.96000  0.60800  1.0000
  Gd  Gd16      1.0  0.32500  0.40700  0.75000  1.0000
  Gd  Gd17      1.0  0.08180  0.67500  0.75000  1.0000
  Gd  Gd18      1.0  0.59300  0.91800  0.75000  1.0000
  Gd  Gd19      1.0  0.62100  0.66100  0.89200  1.0000
  Gd  Gd20      1.0  0.33900  0.96000  0.89200  1.0000
  Gd  Gd21      1.0  0.03970  0.37900  0.89200  1.0000
  Gd  Gd22      1.0  0.33300  0.66700  0.91900  1.0000
  Ir  Ir1       1.0  0.66100  0.19500  0.25000  1.0000
  Ir  Ir2       1.0  0.53400  0.33900  0.25000  1.0000
  Ir  Ir3       1.0  0.80500  0.46600  0.25000  1.0000
  Ir  Ir4       1.0  0.19500  0.53400  0.75000  1.0000
  Ir  Ir5       1.0  0.46600  0.66100  0.75000  1.0000
  Ir  Ir6       1.0  0.33900  0.80500  0.75000  1.0000
