data_image0
_chemical_formula_structural       Al2H8Mn9O32Si8
_chemical_formula_sum              "Al2 H8 Mn9 O32 Si8"
_cell_length_a       8.31003
_cell_length_b       10.3103
_cell_length_c       7.59364
_cell_angle_alpha    104.589
_cell_angle_beta     93.5504
_cell_angle_gamma    104.174

_space_group_name_H-M_alt    "P 1"
_space_group_IT_number       1

loop_
  _space_group_symop_operation_xyz
  'x, y, z'

loop_
  _atom_site_type_symbol
  _atom_site_label
  _atom_site_symmetry_multiplicity
  _atom_site_fract_x
  _atom_site_fract_y
  _atom_site_fract_z
  _atom_site_occupancy
  Al  Al1       1.0  0.22000  0.36900  0.23500  1.0000
  Al  Al2       1.0  0.78000  0.63100  0.76500  1.0000
  H   H1        1.0  0.02490  0.13000  0.00221  1.0000
  H   H2        1.0  0.42100  0.51600  0.11100  1.0000
  H   H3        1.0  0.01200  0.22500  0.36400  1.0000
  H   H4        1.0  0.67800  0.69200  0.46800  1.0000
  H   H5        1.0  0.32200  0.30800  0.53200  1.0000
  H   H6        1.0  0.98800  0.77500  0.63600  1.0000
  H   H7        1.0  0.57900  0.48400  0.88900  1.0000
  H   H8        1.0  0.97500  0.87000  0.99800  1.0000
  Mn  Mn1       1.0  0.57000  0.77000  0.05040  1.0000
  Mn  Mn2       1.0  0.83700  0.29700  0.08170  1.0000
  Mn  Mn3       1.0  0.60700  0.42900  0.36200  1.0000
  Mn  Mn4       1.0  0.82900  0.94500  0.38600  1.0000
  Mn  Mn5       1.0  0.00000  0.50000  0.50000  1.0000
  Mn  Mn6       1.0  0.17100  0.05480  0.61400  1.0000
  Mn  Mn7       1.0  0.39300  0.57100  0.63800  1.0000
  Mn  Mn8       1.0  0.16300  0.70300  0.91800  1.0000
  Mn  Mn9       1.0  0.43000  0.23000  0.95000  1.0000
  O   O1        1.0  0.09500  0.38500  0.02840  1.0000
  O   O2        1.0  0.10100  0.90100  0.03200  1.0000
  O   O3        1.0  0.21200  0.17900  0.11000  1.0000
  O   O4        1.0  0.33600  0.69200  0.13200  1.0000
  O   O5        1.0  0.42400  0.43000  0.14500  1.0000
  O   O6        1.0  0.60100  0.22200  0.18700  1.0000
  O   O7        1.0  0.65300  0.97800  0.22000  1.0000
  O   O8        1.0  0.75100  0.73400  0.25100  1.0000
  O   O9        1.0  0.83600  0.50000  0.25600  1.0000
  O   O10       1.0  0.36200  0.02970  0.27600  1.0000
  O   O11       1.0  0.07230  0.73600  0.30500  1.0000
  O   O12       1.0  0.01510  0.30900  0.32500  1.0000
  O   O13       1.0  0.06750  0.06070  0.36100  1.0000
  O   O14       1.0  0.23300  0.55800  0.38200  1.0000
  O   O15       1.0  0.36100  0.36400  0.44700  1.0000
  O   O16       1.0  0.37500  0.83000  0.48700  1.0000
  O   O17       1.0  0.62500  0.17000  0.51300  1.0000
  O   O18       1.0  0.63900  0.63600  0.55300  1.0000
  O   O19       1.0  0.76700  0.44200  0.61800  1.0000
  O   O20       1.0  0.93300  0.93900  0.63900  1.0000
  O   O21       1.0  0.98500  0.69100  0.67500  1.0000
  O   O22       1.0  0.92800  0.26400  0.69500  1.0000
  O   O23       1.0  0.63800  0.97000  0.72400  1.0000
  O   O24       1.0  0.16400  0.50000  0.74400  1.0000
  O   O25       1.0  0.24900  0.26600  0.74900  1.0000
  O   O26       1.0  0.34700  0.02220  0.78000  1.0000
  O   O27       1.0  0.39900  0.77800  0.81300  1.0000
  O   O28       1.0  0.57600  0.57000  0.85500  1.0000
  O   O29       1.0  0.66400  0.30800  0.86800  1.0000
  O   O30       1.0  0.78800  0.82100  0.89000  1.0000
  O   O31       1.0  0.89900  0.09910  0.96800  1.0000
  O   O32       1.0  0.90500  0.61500  0.97200  1.0000
  Si  Si1       1.0  0.88400  0.64300  0.18900  1.0000
  Si  Si2       1.0  0.18500  0.04620  0.19600  1.0000
  Si  Si3       1.0  0.56400  0.10000  0.29300  1.0000
  Si  Si4       1.0  0.25700  0.70300  0.32100  1.0000
  Si  Si5       1.0  0.74300  0.29700  0.67900  1.0000
  Si  Si6       1.0  0.43600  0.90000  0.70700  1.0000
  Si  Si7       1.0  0.81500  0.95400  0.80400  1.0000
  Si  Si8       1.0  0.11600  0.35700  0.81100  1.0000
