data_image0
_chemical_formula_structural       C8Cl12H32N4Ti2
_chemical_formula_sum              "C8 Cl12 H32 N4 Ti2"
_cell_length_a       7.27282
_cell_length_b       14.2747
_cell_length_c       7.02656
_cell_angle_alpha    90
_cell_angle_beta     90
_cell_angle_gamma    90

_space_group_name_H-M_alt    "P 1"
_space_group_IT_number       1

loop_
  _space_group_symop_operation_xyz
  'x, y, z'

loop_
  _atom_site_type_symbol
  _atom_site_label
  _atom_site_symmetry_multiplicity
  _atom_site_fract_x
  _atom_site_fract_y
  _atom_site_fract_z
  _atom_site_occupancy
  C   C1        1.0  0.59600  0.27300  0.00000  1.0000
  C   C2        1.0  0.88900  0.36100  0.00000  1.0000
  C   C3        1.0  0.11100  0.63900  0.00000  1.0000
  C   C4        1.0  0.40400  0.72700  0.00000  1.0000
  C   C5        1.0  0.38900  0.13900  0.50000  1.0000
  C   C6        1.0  0.09630  0.22700  0.50000  1.0000
  C   C7        1.0  0.90400  0.77300  0.50000  1.0000
  C   C8        1.0  0.61100  0.86100  0.50000  1.0000
  Cl  Cl1       1.0  0.17500  0.13900  0.00000  1.0000
  Cl  Cl2       1.0  0.82500  0.86100  0.00000  1.0000
  Cl  Cl3       1.0  0.80800  0.06250  0.23800  1.0000
  Cl  Cl4       1.0  0.19200  0.93800  0.23800  1.0000
  Cl  Cl5       1.0  0.30800  0.43800  0.26200  1.0000
  Cl  Cl6       1.0  0.69200  0.56200  0.26200  1.0000
  Cl  Cl7       1.0  0.67500  0.36100  0.50000  1.0000
  Cl  Cl8       1.0  0.32500  0.63900  0.50000  1.0000
  Cl  Cl9       1.0  0.30800  0.43800  0.73800  1.0000
  Cl  Cl10      1.0  0.69200  0.56200  0.73800  1.0000
  Cl  Cl11      1.0  0.80800  0.06250  0.76200  1.0000
  Cl  Cl12      1.0  0.19200  0.93800  0.76200  1.0000
  H   H1        1.0  0.44700  0.28300  0.00000  1.0000
  H   H2        1.0  0.94500  0.43200  0.00000  1.0000
  H   H3        1.0  0.05470  0.56800  0.00000  1.0000
  H   H4        1.0  0.55300  0.71700  0.00000  1.0000
  H   H5        1.0  0.64200  0.40500  0.11800  1.0000
  H   H6        1.0  0.35800  0.59500  0.11800  1.0000
  H   H7        1.0  0.64100  0.23500  0.12700  1.0000
  H   H8        1.0  0.35900  0.76500  0.12700  1.0000
  H   H9        1.0  0.93400  0.32400  0.12800  1.0000
  H   H10       1.0  0.06640  0.67600  0.12800  1.0000
  H   H11       1.0  0.43400  0.17600  0.37200  1.0000
  H   H12       1.0  0.56600  0.82400  0.37200  1.0000
  H   H13       1.0  0.14100  0.26500  0.37300  1.0000
  H   H14       1.0  0.85900  0.73500  0.37300  1.0000
  H   H15       1.0  0.14200  0.09520  0.38200  1.0000
  H   H16       1.0  0.85800  0.90500  0.38200  1.0000
  H   H17       1.0  0.44500  0.06760  0.50000  1.0000
  H   H18       1.0  0.94700  0.21700  0.50000  1.0000
  H   H19       1.0  0.05300  0.78300  0.50000  1.0000
  H   H20       1.0  0.55500  0.93200  0.50000  1.0000
  H   H21       1.0  0.14200  0.09520  0.61800  1.0000
  H   H22       1.0  0.85800  0.90500  0.61800  1.0000
  H   H23       1.0  0.14100  0.26500  0.62700  1.0000
  H   H24       1.0  0.85900  0.73500  0.62700  1.0000
  H   H25       1.0  0.43400  0.17600  0.62800  1.0000
  H   H26       1.0  0.56600  0.82400  0.62800  1.0000
  H   H27       1.0  0.93400  0.32400  0.87200  1.0000
  H   H28       1.0  0.06640  0.67600  0.87200  1.0000
  H   H29       1.0  0.64100  0.23500  0.87300  1.0000
  H   H30       1.0  0.35900  0.76500  0.87300  1.0000
  H   H31       1.0  0.64200  0.40500  0.88200  1.0000
  H   H32       1.0  0.35800  0.59500  0.88200  1.0000
  N   N1        1.0  0.68600  0.36700  0.00000  1.0000
  N   N2        1.0  0.31400  0.63300  0.00000  1.0000
  N   N3        1.0  0.18600  0.13300  0.50000  1.0000
  N   N4        1.0  0.81400  0.86700  0.50000  1.0000
  Ti  Ti1       1.0  0.00000  0.00000  0.00000  1.0000
  Ti  Ti2       1.0  0.50000  0.50000  0.50000  1.0000
