data_image0
_chemical_formula_structural       HgK4P2
_chemical_formula_sum              "Hg1 K4 P2"
_cell_length_a       5.67542
_cell_length_b       5.67542
_cell_length_c       9.66038
_cell_angle_alpha    72.9176
_cell_angle_beta     107.082
_cell_angle_gamma    120

_space_group_name_H-M_alt    "P 1"
_space_group_IT_number       1

loop_
  _space_group_symop_operation_xyz
  'x, y, z'

loop_
  _atom_site_type_symbol
  _atom_site_label
  _atom_site_symmetry_multiplicity
  _atom_site_fract_x
  _atom_site_fract_y
  _atom_site_fract_z
  _atom_site_occupancy
  Hg  Hg1       1.0  0.00000  0.00000  0.00000  1.0000
  K   K1        1.0  0.38900  0.61100  0.16800  1.0000
  K   K2        1.0  0.79200  0.20800  0.37600  1.0000
  K   K3        1.0  0.20800  0.79200  0.62400  1.0000
  K   K4        1.0  0.61100  0.38900  0.83200  1.0000
  P   P1        1.0  0.08880  0.91100  0.26600  1.0000
  P   P2        1.0  0.91100  0.08880  0.73400  1.0000
