data_image0
_chemical_formula_structural       ClFe24K6S26
_chemical_formula_sum              "Cl1 Fe24 K6 S26"
_cell_length_a       9.88202
_cell_length_b       9.88202
_cell_length_c       12.0701
_cell_angle_alpha    114.165
_cell_angle_beta     114.165
_cell_angle_gamma    90

_space_group_name_H-M_alt    "P 1"
_space_group_IT_number       1

loop_
  _space_group_symop_operation_xyz
  'x, y, z'

loop_
  _atom_site_type_symbol
  _atom_site_label
  _atom_site_symmetry_multiplicity
  _atom_site_fract_x
  _atom_site_fract_y
  _atom_site_fract_z
  _atom_site_occupancy
  Cl  Cl1       1.0  0.00000  0.00000  0.00000  1.0000
  Fe  Fe1       1.0  0.43400  0.43400  0.13400  1.0000
  Fe  Fe2       1.0  0.69900  0.43400  0.13400  1.0000
  Fe  Fe3       1.0  0.43400  0.69900  0.13400  1.0000
  Fe  Fe4       1.0  0.69900  0.69900  0.13400  1.0000
  Fe  Fe5       1.0  0.55000  0.05120  0.36600  1.0000
  Fe  Fe6       1.0  0.81600  0.05120  0.36600  1.0000
  Fe  Fe7       1.0  0.55000  0.31500  0.36600  1.0000
  Fe  Fe8       1.0  0.81600  0.31500  0.36600  1.0000
  Fe  Fe9       1.0  0.05120  0.55000  0.36600  1.0000
  Fe  Fe10      1.0  0.31500  0.55000  0.36600  1.0000
  Fe  Fe11      1.0  0.05120  0.81600  0.36600  1.0000
  Fe  Fe12      1.0  0.31500  0.81600  0.36600  1.0000
  Fe  Fe13      1.0  0.68500  0.18400  0.63400  1.0000
  Fe  Fe14      1.0  0.94900  0.18400  0.63400  1.0000
  Fe  Fe15      1.0  0.68500  0.45000  0.63400  1.0000
  Fe  Fe16      1.0  0.94900  0.45000  0.63400  1.0000
  Fe  Fe17      1.0  0.18400  0.68500  0.63400  1.0000
  Fe  Fe18      1.0  0.45000  0.68500  0.63400  1.0000
  Fe  Fe19      1.0  0.18400  0.94900  0.63400  1.0000
  Fe  Fe20      1.0  0.45000  0.94900  0.63400  1.0000
  Fe  Fe21      1.0  0.30100  0.30100  0.86600  1.0000
  Fe  Fe22      1.0  0.56600  0.30100  0.86600  1.0000
  Fe  Fe23      1.0  0.30100  0.56600  0.86600  1.0000
  Fe  Fe24      1.0  0.56600  0.56600  0.86600  1.0000
  K   K1        1.0  0.30000  0.00000  0.00000  1.0000
  K   K2        1.0  0.70000  0.00000  0.00000  1.0000
  K   K3        1.0  0.00000  0.30000  0.00000  1.0000
  K   K4        1.0  0.00000  0.70000  0.00000  1.0000
  K   K5        1.0  0.15300  0.15300  0.30600  1.0000
  K   K6        1.0  0.84700  0.84700  0.69400  1.0000
  S   S1        1.0  0.50000  0.25100  0.00000  1.0000
  S   S2        1.0  0.25100  0.50000  0.00000  1.0000
  S   S3        1.0  0.74900  0.50000  0.00000  1.0000
  S   S4        1.0  0.50000  0.74900  0.00000  1.0000
  S   S5        1.0  0.34400  0.34400  0.22800  1.0000
  S   S6        1.0  0.88400  0.34400  0.22800  1.0000
  S   S7        1.0  0.34400  0.88400  0.22800  1.0000
  S   S8        1.0  0.88400  0.88400  0.22800  1.0000
  S   S9        1.0  0.62400  0.12400  0.24700  1.0000
  S   S10       1.0  0.12400  0.62400  0.24700  1.0000
  S   S11       1.0  0.62500  0.62500  0.25000  1.0000
  S   S12       1.0  0.74900  0.00174  0.49800  1.0000
  S   S13       1.0  0.74900  0.49700  0.49800  1.0000
  S   S14       1.0  0.00174  0.74900  0.49800  1.0000
  S   S15       1.0  0.49700  0.74900  0.49800  1.0000
  S   S16       1.0  0.50300  0.25100  0.50200  1.0000
  S   S17       1.0  0.99800  0.25100  0.50200  1.0000
  S   S18       1.0  0.25100  0.50300  0.50200  1.0000
  S   S19       1.0  0.25100  0.99800  0.50200  1.0000
  S   S20       1.0  0.37500  0.37500  0.75000  1.0000
  S   S21       1.0  0.87600  0.37600  0.75300  1.0000
  S   S22       1.0  0.37600  0.87600  0.75300  1.0000
  S   S23       1.0  0.11600  0.11600  0.77200  1.0000
  S   S24       1.0  0.65600  0.11600  0.77200  1.0000
  S   S25       1.0  0.11600  0.65600  0.77200  1.0000
  S   S26       1.0  0.65600  0.65600  0.77200  1.0000
