data_image0
_chemical_formula_structural       H36K4O20
_chemical_formula_sum              "H36 K4 O20"
_cell_length_a       6.70507
_cell_length_b       10.9496
_cell_length_c       6.89079
_cell_angle_alpha    90
_cell_angle_beta     97.6169
_cell_angle_gamma    90

_space_group_name_H-M_alt    "P 1"
_space_group_IT_number       1

loop_
  _space_group_symop_operation_xyz
  'x, y, z'

loop_
  _atom_site_type_symbol
  _atom_site_label
  _atom_site_symmetry_multiplicity
  _atom_site_fract_x
  _atom_site_fract_y
  _atom_site_fract_z
  _atom_site_occupancy
  H   H1        1.0  0.06570  0.75600  0.01780  1.0000
  H   H2        1.0  0.75700  0.76500  0.03410  1.0000
  H   H3        1.0  0.87900  0.11600  0.07610  1.0000
  H   H4        1.0  0.76800  0.90300  0.10400  1.0000
  H   H5        1.0  0.09440  0.40900  0.10800  1.0000
  H   H6        1.0  0.94900  0.58800  0.12800  1.0000
  H   H7        1.0  0.03840  0.95200  0.15700  1.0000
  H   H8        1.0  0.45500  0.10300  0.15700  1.0000
  H   H9        1.0  0.67200  0.05400  0.24100  1.0000
  H   H10       1.0  0.32800  0.55400  0.25900  1.0000
  H   H11       1.0  0.54500  0.60300  0.34300  1.0000
  H   H12       1.0  0.96200  0.45200  0.34300  1.0000
  H   H13       1.0  0.05110  0.08840  0.37200  1.0000
  H   H14       1.0  0.90600  0.90900  0.39200  1.0000
  H   H15       1.0  0.23200  0.40300  0.39600  1.0000
  H   H16       1.0  0.12100  0.61600  0.42400  1.0000
  H   H17       1.0  0.24300  0.26500  0.46600  1.0000
  H   H18       1.0  0.93400  0.25600  0.48200  1.0000
  H   H19       1.0  0.06570  0.74400  0.51800  1.0000
  H   H20       1.0  0.75700  0.73500  0.53400  1.0000
  H   H21       1.0  0.87900  0.38400  0.57600  1.0000
  H   H22       1.0  0.76800  0.59700  0.60400  1.0000
  H   H23       1.0  0.09440  0.09090  0.60800  1.0000
  H   H24       1.0  0.94900  0.91200  0.62800  1.0000
  H   H25       1.0  0.03840  0.54800  0.65700  1.0000
  H   H26       1.0  0.45500  0.39700  0.65700  1.0000
  H   H27       1.0  0.67200  0.44600  0.74100  1.0000
  H   H28       1.0  0.32800  0.94600  0.75900  1.0000
  H   H29       1.0  0.54500  0.89700  0.84300  1.0000
  H   H30       1.0  0.96200  0.04780  0.84300  1.0000
  H   H31       1.0  0.05110  0.41200  0.87200  1.0000
  H   H32       1.0  0.90600  0.59100  0.89200  1.0000
  H   H33       1.0  0.23200  0.09680  0.89600  1.0000
  H   H34       1.0  0.12100  0.88400  0.92400  1.0000
  H   H35       1.0  0.24300  0.23500  0.96600  1.0000
  H   H36       1.0  0.93400  0.24400  0.98200  1.0000
  K   K1        1.0  0.57200  0.34100  0.14700  1.0000
  K   K2        1.0  0.42800  0.84100  0.35300  1.0000
  K   K3        1.0  0.57200  0.15900  0.64700  1.0000
  K   K4        1.0  0.42800  0.65900  0.85300  1.0000
  O   O1        1.0  0.89300  0.64300  0.01240  1.0000
  O   O2        1.0  0.16900  0.82200  0.02800  1.0000
  O   O3        1.0  0.67100  0.83900  0.04580  1.0000
  O   O4        1.0  0.93800  0.99900  0.21800  1.0000
  O   O5        1.0  0.45900  0.57400  0.22100  1.0000
  O   O6        1.0  0.54100  0.07430  0.27900  1.0000
  O   O7        1.0  0.06200  0.49900  0.28200  1.0000
  O   O8        1.0  0.32900  0.33900  0.45400  1.0000
  O   O9        1.0  0.83100  0.32200  0.47200  1.0000
  O   O10       1.0  0.10700  0.14300  0.48800  1.0000
  O   O11       1.0  0.89300  0.85700  0.51200  1.0000
  O   O12       1.0  0.16900  0.67800  0.52800  1.0000
  O   O13       1.0  0.67100  0.66100  0.54600  1.0000
  O   O14       1.0  0.93800  0.50100  0.71800  1.0000
  O   O15       1.0  0.45900  0.92600  0.72100  1.0000
  O   O16       1.0  0.54100  0.42600  0.77900  1.0000
  O   O17       1.0  0.06200  0.00096  0.78200  1.0000
  O   O18       1.0  0.32900  0.16100  0.95400  1.0000
  O   O19       1.0  0.83100  0.17800  0.97200  1.0000
  O   O20       1.0  0.10700  0.35700  0.98800  1.0000
