data_image0
_chemical_formula_structural       B8Bi16O36
_chemical_formula_sum              "B8 Bi16 O36"
_cell_length_a       11.1052
_cell_length_b       6.56122
_cell_length_c       11.0687
_cell_angle_alpha    90
_cell_angle_beta     90.8605
_cell_angle_gamma    90

_space_group_name_H-M_alt    "P 1"
_space_group_IT_number       1

loop_
  _space_group_symop_operation_xyz
  'x, y, z'

loop_
  _atom_site_type_symbol
  _atom_site_label
  _atom_site_symmetry_multiplicity
  _atom_site_fract_x
  _atom_site_fract_y
  _atom_site_fract_z
  _atom_site_occupancy
  B   B1        1.0  0.25000  0.73300  0.23300  1.0000
  B   B2        1.0  0.77600  0.75000  0.24600  1.0000
  B   B3        1.0  0.22400  0.25000  0.25400  1.0000
  B   B4        1.0  0.75000  0.23300  0.26700  1.0000
  B   B5        1.0  0.25000  0.76700  0.73300  1.0000
  B   B6        1.0  0.77600  0.75000  0.74600  1.0000
  B   B7        1.0  0.22400  0.25000  0.75400  1.0000
  B   B8        1.0  0.75000  0.26700  0.76700  1.0000
  Bi  Bi1       1.0  0.19300  0.54000  0.00713  1.0000
  Bi  Bi2       1.0  0.65700  0.94600  0.01830  1.0000
  Bi  Bi3       1.0  0.01070  0.98200  0.15400  1.0000
  Bi  Bi4       1.0  0.50300  0.43300  0.16100  1.0000
  Bi  Bi5       1.0  0.49700  0.93300  0.33900  1.0000
  Bi  Bi6       1.0  0.98900  0.48200  0.34600  1.0000
  Bi  Bi7       1.0  0.34300  0.44600  0.48200  1.0000
  Bi  Bi8       1.0  0.80700  0.03960  0.49300  1.0000
  Bi  Bi9       1.0  0.19300  0.96000  0.50700  1.0000
  Bi  Bi10      1.0  0.65700  0.55400  0.51800  1.0000
  Bi  Bi11      1.0  0.01070  0.51800  0.65400  1.0000
  Bi  Bi12      1.0  0.50300  0.06730  0.66100  1.0000
  Bi  Bi13      1.0  0.49700  0.56700  0.83900  1.0000
  Bi  Bi14      1.0  0.98900  0.01840  0.84600  1.0000
  Bi  Bi15      1.0  0.34300  0.05430  0.98200  1.0000
  Bi  Bi16      1.0  0.80700  0.46000  0.99300  1.0000
  O   O1        1.0  0.61600  0.60500  0.00566  1.0000
  O   O2        1.0  0.92200  0.16000  0.01500  1.0000
  O   O3        1.0  0.49900  0.09660  0.11200  1.0000
  O   O4        1.0  0.32600  0.72800  0.13400  1.0000
  O   O5        1.0  0.18700  0.20400  0.13800  1.0000
  O   O6        1.0  0.85600  0.72900  0.15000  1.0000
  O   O7        1.0  0.71100  0.31800  0.15900  1.0000
  O   O8        1.0  0.13600  0.65500  0.21600  1.0000
  O   O9        1.0  0.66200  0.82200  0.22100  1.0000
  O   O10       1.0  0.33800  0.32200  0.27900  1.0000
  O   O11       1.0  0.86400  0.15500  0.28400  1.0000
  O   O12       1.0  0.28900  0.81800  0.34100  1.0000
  O   O13       1.0  0.14400  0.22900  0.35000  1.0000
  O   O14       1.0  0.81300  0.70400  0.36200  1.0000
  O   O15       1.0  0.67400  0.22800  0.36600  1.0000
  O   O16       1.0  0.50100  0.59700  0.38800  1.0000
  O   O17       1.0  0.07820  0.66000  0.48500  1.0000
  O   O18       1.0  0.38400  0.10500  0.49400  1.0000
  O   O19       1.0  0.61600  0.89500  0.50600  1.0000
  O   O20       1.0  0.92200  0.34000  0.51500  1.0000
  O   O21       1.0  0.49900  0.40300  0.61200  1.0000
  O   O22       1.0  0.32600  0.77200  0.63400  1.0000
  O   O23       1.0  0.18700  0.29600  0.63800  1.0000
  O   O24       1.0  0.85600  0.77100  0.65000  1.0000
  O   O25       1.0  0.71100  0.18200  0.65900  1.0000
  O   O26       1.0  0.13600  0.84500  0.71600  1.0000
  O   O27       1.0  0.66200  0.67800  0.72100  1.0000
  O   O28       1.0  0.33800  0.17800  0.77900  1.0000
  O   O29       1.0  0.86400  0.34500  0.78400  1.0000
  O   O30       1.0  0.28900  0.68200  0.84100  1.0000
  O   O31       1.0  0.14400  0.27100  0.85000  1.0000
  O   O32       1.0  0.81300  0.79600  0.86200  1.0000
  O   O33       1.0  0.67400  0.27200  0.86600  1.0000
  O   O34       1.0  0.50100  0.90300  0.88800  1.0000
  O   O35       1.0  0.07820  0.84000  0.98500  1.0000
  O   O36       1.0  0.38400  0.39500  0.99400  1.0000
