data_image0
_chemical_formula_structural       C16Cs8N16S16U2
_chemical_formula_sum              "C16 Cs8 N16 S16 U2"
_cell_length_a       11.9041
_cell_length_b       11.9041
_cell_length_c       11.1373
_cell_angle_alpha    90
_cell_angle_beta     90
_cell_angle_gamma    90

_space_group_name_H-M_alt    "P 1"
_space_group_IT_number       1

loop_
  _space_group_symop_operation_xyz
  'x, y, z'

loop_
  _atom_site_type_symbol
  _atom_site_label
  _atom_site_symmetry_multiplicity
  _atom_site_fract_x
  _atom_site_fract_y
  _atom_site_fract_z
  _atom_site_occupancy
  C   C1        1.0  0.66900  0.52500  0.00214  1.0000
  C   C2        1.0  0.97500  0.66900  0.00214  1.0000
  C   C3        1.0  0.52500  0.83100  0.00214  1.0000
  C   C4        1.0  0.83100  0.97500  0.00214  1.0000
  C   C5        1.0  0.34200  0.00695  0.36000  1.0000
  C   C6        1.0  0.00695  0.15800  0.36000  1.0000
  C   C7        1.0  0.49300  0.34200  0.36000  1.0000
  C   C8        1.0  0.15800  0.49300  0.36000  1.0000
  C   C9        1.0  0.84200  0.50700  0.64000  1.0000
  C   C10       1.0  0.50700  0.65800  0.64000  1.0000
  C   C11       1.0  0.99300  0.84200  0.64000  1.0000
  C   C12       1.0  0.65800  0.99300  0.64000  1.0000
  C   C13       1.0  0.16900  0.02460  0.99800  1.0000
  C   C14       1.0  0.47500  0.16900  0.99800  1.0000
  C   C15       1.0  0.02460  0.33100  0.99800  1.0000
  C   C16       1.0  0.33100  0.47500  0.99800  1.0000
  Cs  Cs1       1.0  0.60800  0.08410  0.25300  1.0000
  Cs  Cs2       1.0  0.89200  0.41600  0.25300  1.0000
  Cs  Cs3       1.0  0.41600  0.60800  0.25300  1.0000
  Cs  Cs4       1.0  0.08410  0.89200  0.25300  1.0000
  Cs  Cs5       1.0  0.91600  0.10800  0.74700  1.0000
  Cs  Cs6       1.0  0.58400  0.39200  0.74700  1.0000
  Cs  Cs7       1.0  0.10800  0.58400  0.74700  1.0000
  Cs  Cs8       1.0  0.39200  0.91600  0.74700  1.0000
  N   N1        1.0  0.19800  0.08810  0.07480  1.0000
  N   N2        1.0  0.41200  0.19800  0.07480  1.0000
  N   N3        1.0  0.08810  0.30200  0.07480  1.0000
  N   N4        1.0  0.30200  0.41200  0.07480  1.0000
  N   N5        1.0  0.32100  0.09220  0.30900  1.0000
  N   N6        1.0  0.09220  0.17900  0.30900  1.0000
  N   N7        1.0  0.40800  0.32100  0.30900  1.0000
  N   N8        1.0  0.17900  0.40800  0.30900  1.0000
  N   N9        1.0  0.82100  0.59200  0.69100  1.0000
  N   N10       1.0  0.59200  0.67900  0.69100  1.0000
  N   N11       1.0  0.90800  0.82100  0.69100  1.0000
  N   N12       1.0  0.67900  0.90800  0.69100  1.0000
  N   N13       1.0  0.69800  0.58800  0.92500  1.0000
  N   N14       1.0  0.91200  0.69800  0.92500  1.0000
  N   N15       1.0  0.58800  0.80200  0.92500  1.0000
  N   N16       1.0  0.80200  0.91200  0.92500  1.0000
  S   S1        1.0  0.87300  0.06360  0.10300  1.0000
  S   S2        1.0  0.62700  0.43600  0.10300  1.0000
  S   S3        1.0  0.06360  0.62700  0.10300  1.0000
  S   S4        1.0  0.43600  0.87300  0.10300  1.0000
  S   S5        1.0  0.88900  0.12900  0.42500  1.0000
  S   S6        1.0  0.61100  0.37100  0.42500  1.0000
  S   S7        1.0  0.12900  0.61100  0.42500  1.0000
  S   S8        1.0  0.37100  0.88900  0.42500  1.0000
  S   S9        1.0  0.62900  0.11100  0.57500  1.0000
  S   S10       1.0  0.87100  0.38900  0.57500  1.0000
  S   S11       1.0  0.38900  0.62900  0.57500  1.0000
  S   S12       1.0  0.11100  0.87100  0.57500  1.0000
  S   S13       1.0  0.56400  0.12700  0.89700  1.0000
  S   S14       1.0  0.93600  0.37300  0.89700  1.0000
  S   S15       1.0  0.37300  0.56400  0.89700  1.0000
  S   S16       1.0  0.12700  0.93600  0.89700  1.0000
  U   U1        1.0  0.25000  0.25000  0.19200  1.0000
  U   U2        1.0  0.75000  0.75000  0.80800  1.0000
