data_image0
_chemical_formula_structural       Cd4F16H24O12Zr2
_chemical_formula_sum              "Cd4 F16 H24 O12 Zr2"
_cell_length_a       6.90771
_cell_length_b       6.90771
_cell_length_c       12.1323
_cell_angle_alpha    105.778
_cell_angle_beta     96.4212
_cell_angle_gamma    109.027

_space_group_name_H-M_alt    "P 1"
_space_group_IT_number       1

loop_
  _space_group_symop_operation_xyz
  'x, y, z'

loop_
  _atom_site_type_symbol
  _atom_site_label
  _atom_site_symmetry_multiplicity
  _atom_site_fract_x
  _atom_site_fract_y
  _atom_site_fract_z
  _atom_site_occupancy
  Cd  Cd1       1.0  0.54800  0.91300  0.21100  1.0000
  Cd  Cd2       1.0  0.20200  0.33600  0.28900  1.0000
  Cd  Cd3       1.0  0.79800  0.66400  0.71100  1.0000
  Cd  Cd4       1.0  0.45200  0.08660  0.78900  1.0000
  F   F1        1.0  0.73700  0.49600  0.07430  1.0000
  F   F2        1.0  0.52800  0.18200  0.13700  1.0000
  F   F3        1.0  0.45900  0.54400  0.20600  1.0000
  F   F4        1.0  0.04950  0.55600  0.22600  1.0000
  F   F5        1.0  0.83100  0.82400  0.27400  1.0000
  F   F6        1.0  0.83800  0.25300  0.29400  1.0000
  F   F7        1.0  0.54500  0.39100  0.36300  1.0000
  F   F8        1.0  0.92200  0.66300  0.42600  1.0000
  F   F9        1.0  0.07830  0.33700  0.57400  1.0000
  F   F10       1.0  0.45500  0.60900  0.63700  1.0000
  F   F11       1.0  0.16200  0.74700  0.70600  1.0000
  F   F12       1.0  0.16900  0.17600  0.72600  1.0000
  F   F13       1.0  0.95100  0.44400  0.77400  1.0000
  F   F14       1.0  0.54100  0.45600  0.79400  1.0000
  F   F15       1.0  0.47200  0.81800  0.86300  1.0000
  F   F16       1.0  0.26300  0.50400  0.92600  1.0000
  H   H1        1.0  0.39600  0.18000  0.02290  1.0000
  H   H2        1.0  0.21900  0.66600  0.02370  1.0000
  H   H3        1.0  0.70100  0.69100  0.04680  1.0000
  H   H4        1.0  0.92400  0.00617  0.09330  1.0000
  H   H5        1.0  0.13700  0.97000  0.10500  1.0000
  H   H6        1.0  0.13000  0.67700  0.14100  1.0000
  H   H7        1.0  0.03580  0.98900  0.35900  1.0000
  H   H8        1.0  0.36500  0.03200  0.39500  1.0000
  H   H9        1.0  0.41300  0.83000  0.40700  1.0000
  H   H10       1.0  0.14500  0.65400  0.45300  1.0000
  H   H11       1.0  0.14200  0.19500  0.47600  1.0000
  H   H12       1.0  0.65700  0.37400  0.47700  1.0000
  H   H13       1.0  0.34300  0.62600  0.52300  1.0000
  H   H14       1.0  0.85800  0.80500  0.52400  1.0000
  H   H15       1.0  0.85500  0.34600  0.54700  1.0000
  H   H16       1.0  0.58700  0.17000  0.59300  1.0000
  H   H17       1.0  0.63500  0.96800  0.60500  1.0000
  H   H18       1.0  0.96400  0.01120  0.64100  1.0000
  H   H19       1.0  0.87000  0.32300  0.85900  1.0000
  H   H20       1.0  0.86300  0.03030  0.89500  1.0000
  H   H21       1.0  0.07620  0.99400  0.90700  1.0000
  H   H22       1.0  0.29900  0.30900  0.95300  1.0000
  H   H23       1.0  0.78100  0.33400  0.97600  1.0000
  H   H24       1.0  0.60400  0.82000  0.97700  1.0000
  O   O1        1.0  0.68400  0.83200  0.05390  1.0000
  O   O2        1.0  0.20900  0.76900  0.09740  1.0000
  O   O3        1.0  0.07950  0.08820  0.11800  1.0000
  O   O4        1.0  0.47000  0.96100  0.38200  1.0000
  O   O5        1.0  0.17100  0.11200  0.40300  1.0000
  O   O6        1.0  0.27800  0.63000  0.44600  1.0000
  O   O7        1.0  0.72200  0.37000  0.55400  1.0000
  O   O8        1.0  0.82900  0.88800  0.59700  1.0000
  O   O9        1.0  0.53000  0.03860  0.61800  1.0000
  O   O10       1.0  0.92100  0.91200  0.88200  1.0000
  O   O11       1.0  0.79100  0.23100  0.90300  1.0000
  O   O12       1.0  0.31600  0.16800  0.94600  1.0000
  Zr  Zr1       1.0  0.74100  0.49100  0.25000  1.0000
  Zr  Zr2       1.0  0.25900  0.50900  0.75000  1.0000
