data_image0
_chemical_formula_structural       Al8B12H4O32
_chemical_formula_sum              "Al8 B12 H4 O32"
_cell_length_a       6.77478
_cell_length_b       10.6213
_cell_length_c       7.90321
_cell_angle_alpha    90
_cell_angle_beta     90
_cell_angle_gamma    90

_space_group_name_H-M_alt    "P 1"
_space_group_IT_number       1

loop_
  _space_group_symop_operation_xyz
  'x, y, z'

loop_
  _atom_site_type_symbol
  _atom_site_label
  _atom_site_symmetry_multiplicity
  _atom_site_fract_x
  _atom_site_fract_y
  _atom_site_fract_z
  _atom_site_occupancy
  Al  Al1       1.0  0.02180  0.11800  0.07850  1.0000
  Al  Al2       1.0  0.02180  0.38200  0.07850  1.0000
  Al  Al3       1.0  0.52200  0.11800  0.42100  1.0000
  Al  Al4       1.0  0.52200  0.38200  0.42100  1.0000
  Al  Al5       1.0  0.47800  0.61800  0.57900  1.0000
  Al  Al6       1.0  0.47800  0.88200  0.57900  1.0000
  Al  Al7       1.0  0.97800  0.61800  0.92100  1.0000
  Al  Al8       1.0  0.97800  0.88200  0.92100  1.0000
  B   B1        1.0  0.66500  0.75000  0.11200  1.0000
  B   B2        1.0  0.66400  0.51800  0.14300  1.0000
  B   B3        1.0  0.66400  0.98200  0.14300  1.0000
  B   B4        1.0  0.16400  0.51800  0.35700  1.0000
  B   B5        1.0  0.16400  0.98200  0.35700  1.0000
  B   B6        1.0  0.16500  0.75000  0.38800  1.0000
  B   B7        1.0  0.83500  0.25000  0.61200  1.0000
  B   B8        1.0  0.83600  0.01830  0.64300  1.0000
  B   B9        1.0  0.83600  0.48200  0.64300  1.0000
  B   B10       1.0  0.33600  0.01830  0.85700  1.0000
  B   B11       1.0  0.33600  0.48200  0.85700  1.0000
  B   B12       1.0  0.33500  0.25000  0.88800  1.0000
  H   H1        1.0  0.72200  0.25000  0.12000  1.0000
  H   H2        1.0  0.22200  0.25000  0.38000  1.0000
  H   H3        1.0  0.77800  0.75000  0.62000  1.0000
  H   H4        1.0  0.27800  0.75000  0.88000  1.0000
  O   O1        1.0  0.19300  0.25000  0.01330  1.0000
  O   O2        1.0  0.83000  0.50500  0.04100  1.0000
  O   O3        1.0  0.83000  0.99500  0.04100  1.0000
  O   O4        1.0  0.85500  0.25000  0.07210  1.0000
  O   O5        1.0  0.59100  0.63900  0.17700  1.0000
  O   O6        1.0  0.59100  0.86100  0.17700  1.0000
  O   O7        1.0  0.58000  0.08540  0.20900  1.0000
  O   O8        1.0  0.58000  0.41500  0.20900  1.0000
  O   O9        1.0  0.08030  0.08540  0.29100  1.0000
  O   O10       1.0  0.08030  0.41500  0.29100  1.0000
  O   O11       1.0  0.09100  0.63900  0.32300  1.0000
  O   O12       1.0  0.09100  0.86100  0.32300  1.0000
  O   O13       1.0  0.35500  0.25000  0.42800  1.0000
  O   O14       1.0  0.33000  0.50500  0.45900  1.0000
  O   O15       1.0  0.33000  0.99500  0.45900  1.0000
  O   O16       1.0  0.69300  0.25000  0.48700  1.0000
  O   O17       1.0  0.30700  0.75000  0.51300  1.0000
  O   O18       1.0  0.67000  0.00516  0.54100  1.0000
  O   O19       1.0  0.67000  0.49500  0.54100  1.0000
  O   O20       1.0  0.64500  0.75000  0.57200  1.0000
  O   O21       1.0  0.90900  0.13900  0.67700  1.0000
  O   O22       1.0  0.90900  0.36100  0.67700  1.0000
  O   O23       1.0  0.92000  0.58500  0.70900  1.0000
  O   O24       1.0  0.92000  0.91500  0.70900  1.0000
  O   O25       1.0  0.42000  0.58500  0.79100  1.0000
  O   O26       1.0  0.42000  0.91500  0.79100  1.0000
  O   O27       1.0  0.40900  0.13900  0.82300  1.0000
  O   O28       1.0  0.40900  0.36100  0.82300  1.0000
  O   O29       1.0  0.14500  0.75000  0.92800  1.0000
  O   O30       1.0  0.17000  0.00516  0.95900  1.0000
  O   O31       1.0  0.17000  0.49500  0.95900  1.0000
  O   O32       1.0  0.80700  0.75000  0.98700  1.0000
