data_image0
_chemical_formula_structural       Ba4Na4Nd4O36Si12
_chemical_formula_sum              "Ba4 Na4 Nd4 O36 Si12"
_cell_length_a       5.64455
_cell_length_b       11.4394
_cell_length_c       12.5812
_cell_angle_alpha    90
_cell_angle_beta     90
_cell_angle_gamma    90

_space_group_name_H-M_alt    "P 1"
_space_group_IT_number       1

loop_
  _space_group_symop_operation_xyz
  'x, y, z'

loop_
  _atom_site_type_symbol
  _atom_site_label
  _atom_site_symmetry_multiplicity
  _atom_site_fract_x
  _atom_site_fract_y
  _atom_site_fract_z
  _atom_site_occupancy
  Ba  Ba1       1.0  0.10200  0.61800  0.08010  1.0000
  Ba  Ba2       1.0  0.89800  0.11800  0.42000  1.0000
  Ba  Ba3       1.0  0.39800  0.38200  0.58000  1.0000
  Ba  Ba4       1.0  0.60200  0.88200  0.92000  1.0000
  Na  Na1       1.0  0.07850  0.28900  0.10600  1.0000
  Na  Na2       1.0  0.92200  0.78900  0.39400  1.0000
  Na  Na3       1.0  0.42200  0.71100  0.60600  1.0000
  Na  Na4       1.0  0.57800  0.21100  0.89400  1.0000
  Nd  Nd1       1.0  0.11800  0.97300  0.14000  1.0000
  Nd  Nd2       1.0  0.88200  0.47300  0.36000  1.0000
  Nd  Nd3       1.0  0.38200  0.02650  0.64000  1.0000
  Nd  Nd4       1.0  0.61800  0.52700  0.86000  1.0000
  O   O1        1.0  0.51200  0.50900  0.03810  1.0000
  O   O2        1.0  0.47500  0.05650  0.06680  1.0000
  O   O3        1.0  0.60000  0.28000  0.07060  1.0000
  O   O4        1.0  0.37400  0.80900  0.11200  1.0000
  O   O5        1.0  0.84900  0.81500  0.12200  1.0000
  O   O6        1.0  0.85900  0.43900  0.17500  1.0000
  O   O7        1.0  0.86200  0.13100  0.18500  1.0000
  O   O8        1.0  0.39900  0.40600  0.21900  1.0000
  O   O9        1.0  0.40100  0.17900  0.24000  1.0000
  O   O10       1.0  0.59900  0.67900  0.26000  1.0000
  O   O11       1.0  0.60100  0.90600  0.28100  1.0000
  O   O12       1.0  0.13800  0.63100  0.31500  1.0000
  O   O13       1.0  0.14100  0.93900  0.32500  1.0000
  O   O14       1.0  0.15100  0.31500  0.37800  1.0000
  O   O15       1.0  0.62600  0.30900  0.38800  1.0000
  O   O16       1.0  0.40000  0.78000  0.42900  1.0000
  O   O17       1.0  0.52500  0.55600  0.43300  1.0000
  O   O18       1.0  0.48800  0.00916  0.46200  1.0000
  O   O19       1.0  0.98800  0.49100  0.53800  1.0000
  O   O20       1.0  0.02510  0.94400  0.56700  1.0000
  O   O21       1.0  0.90000  0.72000  0.57100  1.0000
  O   O22       1.0  0.12600  0.19100  0.61200  1.0000
  O   O23       1.0  0.65100  0.18500  0.62200  1.0000
  O   O24       1.0  0.64100  0.56100  0.67500  1.0000
  O   O25       1.0  0.63800  0.86900  0.68500  1.0000
  O   O26       1.0  0.10100  0.59400  0.71900  1.0000
  O   O27       1.0  0.09860  0.82100  0.74000  1.0000
  O   O28       1.0  0.90100  0.32100  0.76000  1.0000
  O   O29       1.0  0.89900  0.09350  0.78100  1.0000
  O   O30       1.0  0.36200  0.36900  0.81500  1.0000
  O   O31       1.0  0.35900  0.06070  0.82500  1.0000
  O   O32       1.0  0.34900  0.68500  0.87800  1.0000
  O   O33       1.0  0.87400  0.69100  0.88800  1.0000
  O   O34       1.0  0.10000  0.22000  0.92900  1.0000
  O   O35       1.0  0.97500  0.44400  0.93300  1.0000
  O   O36       1.0  0.01180  0.99100  0.96200  1.0000
  Si  Si1       1.0  0.60300  0.41500  0.12300  1.0000
  Si  Si2       1.0  0.59700  0.15300  0.14100  1.0000
  Si  Si3       1.0  0.60600  0.80200  0.18700  1.0000
  Si  Si4       1.0  0.39400  0.30200  0.31300  1.0000
  Si  Si5       1.0  0.40300  0.65300  0.35900  1.0000
  Si  Si6       1.0  0.39700  0.91500  0.37700  1.0000
  Si  Si7       1.0  0.89700  0.58500  0.62300  1.0000
  Si  Si8       1.0  0.90300  0.84700  0.64100  1.0000
  Si  Si9       1.0  0.89400  0.19800  0.68700  1.0000
  Si  Si10      1.0  0.10600  0.69800  0.81300  1.0000
  Si  Si11      1.0  0.09720  0.34700  0.85900  1.0000
  Si  Si12      1.0  0.10300  0.08480  0.87700  1.0000
