data_image0
_chemical_formula_structural       H8K8Mo6O34
_chemical_formula_sum              "H8 K8 Mo6 O34"
_cell_length_a       8.23969
_cell_length_b       11.8524
_cell_length_c       8.33969
_cell_angle_alpha    104.415
_cell_angle_beta     103.756
_cell_angle_gamma    102.944

_space_group_name_H-M_alt    "P 1"
_space_group_IT_number       1

loop_
  _space_group_symop_operation_xyz
  'x, y, z'

loop_
  _atom_site_type_symbol
  _atom_site_label
  _atom_site_symmetry_multiplicity
  _atom_site_fract_x
  _atom_site_fract_y
  _atom_site_fract_z
  _atom_site_occupancy
  H   H1        1.0  0.51400  0.65000  0.04180  1.0000
  H   H2        1.0  0.67500  0.71800  0.20300  1.0000
  H   H3        1.0  0.83700  0.93900  0.42100  1.0000
  H   H4        1.0  0.23800  0.15500  0.49800  1.0000
  H   H5        1.0  0.76200  0.84500  0.50200  1.0000
  H   H6        1.0  0.16300  0.06060  0.57900  1.0000
  H   H7        1.0  0.32500  0.28200  0.79700  1.0000
  H   H8        1.0  0.48600  0.35000  0.95800  1.0000
  K   K1        1.0  0.23900  0.48000  0.07320  1.0000
  K   K2        1.0  0.01720  0.91200  0.15700  1.0000
  K   K3        1.0  0.54800  0.95600  0.23600  1.0000
  K   K4        1.0  0.69300  0.58400  0.43000  1.0000
  K   K5        1.0  0.30700  0.41600  0.57000  1.0000
  K   K6        1.0  0.45200  0.04410  0.76400  1.0000
  K   K7        1.0  0.98300  0.08830  0.84300  1.0000
  K   K8        1.0  0.76100  0.52000  0.92700  1.0000
  Mo  Mo1       1.0  0.86300  0.26000  0.19900  1.0000
  Mo  Mo2       1.0  0.41300  0.22600  0.22700  1.0000
  Mo  Mo3       1.0  0.18400  0.73000  0.41100  1.0000
  Mo  Mo4       1.0  0.81600  0.27000  0.58900  1.0000
  Mo  Mo5       1.0  0.58700  0.77400  0.77300  1.0000
  Mo  Mo6       1.0  0.13700  0.74000  0.80100  1.0000
  O   O1        1.0  0.67000  0.83400  0.00101  1.0000
  O   O2        1.0  0.74200  0.09810  0.02070  1.0000
  O   O3        1.0  0.70500  0.32800  0.05780  1.0000
  O   O4        1.0  0.60100  0.63500  0.12900  1.0000
  O   O5        1.0  0.04950  0.29500  0.14000  1.0000
  O   O6        1.0  0.84800  0.08610  0.17900  1.0000
  O   O7        1.0  0.03690  0.67600  0.20300  1.0000
  O   O8        1.0  0.80700  0.41700  0.23100  1.0000
  O   O9        1.0  0.42800  0.38200  0.29000  1.0000
  O   O10       1.0  0.63100  0.20400  0.30000  1.0000
  O   O11       1.0  0.26700  0.14400  0.31500  1.0000
  O   O12       1.0  0.38100  0.66900  0.37600  1.0000
  O   O13       1.0  0.78700  0.85100  0.39100  1.0000
  O   O14       1.0  0.31900  0.89000  0.40800  1.0000
  O   O15       1.0  0.25100  0.58100  0.41400  1.0000
  O   O16       1.0  0.96700  0.30700  0.45100  1.0000
  O   O17       1.0  0.17100  0.90200  0.47500  1.0000
  O   O18       1.0  0.82900  0.09780  0.52500  1.0000
  O   O19       1.0  0.03260  0.69300  0.54900  1.0000
  O   O20       1.0  0.74900  0.41900  0.58600  1.0000
  O   O21       1.0  0.68100  0.11000  0.59200  1.0000
  O   O22       1.0  0.21300  0.14900  0.60900  1.0000
  O   O23       1.0  0.61900  0.33100  0.62400  1.0000
  O   O24       1.0  0.73300  0.85600  0.68500  1.0000
  O   O25       1.0  0.36900  0.79600  0.70000  1.0000
  O   O26       1.0  0.57200  0.61800  0.71000  1.0000
  O   O27       1.0  0.19300  0.58300  0.76900  1.0000
  O   O28       1.0  0.96300  0.32400  0.79700  1.0000
  O   O29       1.0  0.15200  0.91400  0.82100  1.0000
  O   O30       1.0  0.95100  0.70500  0.86000  1.0000
  O   O31       1.0  0.39900  0.36500  0.87100  1.0000
  O   O32       1.0  0.29500  0.67200  0.94200  1.0000
  O   O33       1.0  0.25800  0.90200  0.97900  1.0000
  O   O34       1.0  0.33000  0.16600  0.99900  1.0000
