data_image0
_chemical_formula_structural       Cl32Mo4N8S12
_chemical_formula_sum              "Cl32 Mo4 N8 S12"
_cell_length_a       7.45781
_cell_length_b       16.5695
_cell_length_c       11.9932
_cell_angle_alpha    90
_cell_angle_beta     101.19
_cell_angle_gamma    90

_space_group_name_H-M_alt    "P 1"
_space_group_IT_number       1

loop_
  _space_group_symop_operation_xyz
  'x, y, z'

loop_
  _atom_site_type_symbol
  _atom_site_label
  _atom_site_symmetry_multiplicity
  _atom_site_fract_x
  _atom_site_fract_y
  _atom_site_fract_z
  _atom_site_occupancy
  Cl  Cl1       1.0  0.27000  0.96200  0.01800  1.0000
  Cl  Cl2       1.0  0.77000  0.51900  0.03260  1.0000
  Cl  Cl3       1.0  0.36600  0.15100  0.09590  1.0000
  Cl  Cl4       1.0  0.62800  0.33000  0.11800  1.0000
  Cl  Cl5       1.0  0.08280  0.68900  0.13000  1.0000
  Cl  Cl6       1.0  0.55300  0.70200  0.15700  1.0000
  Cl  Cl7       1.0  0.17100  0.31800  0.19100  1.0000
  Cl  Cl8       1.0  0.35800  0.54100  0.23600  1.0000
  Cl  Cl9       1.0  0.14200  0.04120  0.26400  1.0000
  Cl  Cl10      1.0  0.32900  0.81800  0.30900  1.0000
  Cl  Cl11      1.0  0.94700  0.20200  0.34300  1.0000
  Cl  Cl12      1.0  0.41700  0.18900  0.37000  1.0000
  Cl  Cl13      1.0  0.87200  0.83000  0.38200  1.0000
  Cl  Cl14      1.0  0.13400  0.65100  0.40400  1.0000
  Cl  Cl15      1.0  0.73000  0.01870  0.46700  1.0000
  Cl  Cl16      1.0  0.23000  0.46200  0.48200  1.0000
  Cl  Cl17      1.0  0.77000  0.53800  0.51800  1.0000
  Cl  Cl18      1.0  0.27000  0.98100  0.53300  1.0000
  Cl  Cl19      1.0  0.86600  0.34900  0.59600  1.0000
  Cl  Cl20      1.0  0.12800  0.17000  0.61800  1.0000
  Cl  Cl21      1.0  0.58300  0.81100  0.63000  1.0000
  Cl  Cl22      1.0  0.05270  0.79800  0.65700  1.0000
  Cl  Cl23      1.0  0.67100  0.18200  0.69100  1.0000
  Cl  Cl24      1.0  0.85800  0.95900  0.73600  1.0000
  Cl  Cl25      1.0  0.64200  0.45900  0.76400  1.0000
  Cl  Cl26      1.0  0.82900  0.68200  0.80900  1.0000
  Cl  Cl27      1.0  0.44700  0.29800  0.84300  1.0000
  Cl  Cl28      1.0  0.91700  0.31100  0.87000  1.0000
  Cl  Cl29      1.0  0.37200  0.67000  0.88200  1.0000
  Cl  Cl30      1.0  0.63400  0.84900  0.90400  1.0000
  Cl  Cl31      1.0  0.23000  0.48100  0.96700  1.0000
  Cl  Cl32      1.0  0.73000  0.03800  0.98200  1.0000
  Mo  Mo1       1.0  0.14700  0.17800  0.21000  1.0000
  Mo  Mo2       1.0  0.35300  0.67800  0.29000  1.0000
  Mo  Mo3       1.0  0.64700  0.32200  0.71000  1.0000
  Mo  Mo4       1.0  0.85300  0.82200  0.79000  1.0000
  N   N1        1.0  0.96800  0.16600  0.08800  1.0000
  N   N2        1.0  0.69000  0.95900  0.23300  1.0000
  N   N3        1.0  0.81000  0.45900  0.26700  1.0000
  N   N4        1.0  0.53200  0.66600  0.41200  1.0000
  N   N5        1.0  0.46800  0.33400  0.58800  1.0000
  N   N6        1.0  0.19000  0.54100  0.73300  1.0000
  N   N7        1.0  0.31000  0.04080  0.76700  1.0000
  N   N8        1.0  0.03220  0.83400  0.91200  1.0000
  S   S1        1.0  0.16500  0.84500  0.02880  1.0000
  S   S2        1.0  0.85300  0.53500  0.20200  1.0000
  S   S3        1.0  0.76400  0.87300  0.22600  1.0000
  S   S4        1.0  0.73600  0.37300  0.27400  1.0000
  S   S5        1.0  0.64700  0.03520  0.29800  1.0000
  S   S6        1.0  0.33500  0.34500  0.47100  1.0000
  S   S7        1.0  0.66500  0.65500  0.52900  1.0000
  S   S8        1.0  0.35300  0.96500  0.70200  1.0000
  S   S9        1.0  0.26400  0.62700  0.72600  1.0000
  S   S10       1.0  0.23600  0.12700  0.77400  1.0000
  S   S11       1.0  0.14700  0.46500  0.79800  1.0000
  S   S12       1.0  0.83500  0.15500  0.97100  1.0000
