data_image0
_chemical_formula_structural       Ba2Cs8O36V12
_chemical_formula_sum              "Ba2 Cs8 O36 V12"
_cell_length_a       10.3866
_cell_length_b       10.3866
_cell_length_c       10.3866
_cell_angle_alpha    95.9116
_cell_angle_beta     95.9116
_cell_angle_gamma    84.0884

_space_group_name_H-M_alt    "P 1"
_space_group_IT_number       1

loop_
  _space_group_symop_operation_xyz
  'x, y, z'

loop_
  _atom_site_type_symbol
  _atom_site_label
  _atom_site_symmetry_multiplicity
  _atom_site_fract_x
  _atom_site_fract_y
  _atom_site_fract_z
  _atom_site_occupancy
  Ba  Ba1       1.0  0.76900  0.76900  0.23100  1.0000
  Ba  Ba2       1.0  0.26900  0.26900  0.73100  1.0000
  Cs  Cs1       1.0  0.99900  0.99900  0.00145  1.0000
  Cs  Cs2       1.0  0.58900  0.40500  0.01310  1.0000
  Cs  Cs3       1.0  0.08890  0.48700  0.09460  1.0000
  Cs  Cs4       1.0  0.40500  0.98700  0.41100  1.0000
  Cs  Cs5       1.0  0.49900  0.49900  0.50100  1.0000
  Cs  Cs6       1.0  0.90500  0.08890  0.51300  1.0000
  Cs  Cs7       1.0  0.98700  0.58900  0.59500  1.0000
  Cs  Cs8       1.0  0.48700  0.90500  0.91100  1.0000
  O   O1        1.0  0.91600  0.72400  0.01310  1.0000
  O   O2        1.0  0.72400  0.98700  0.08440  1.0000
  O   O3        1.0  0.27700  0.04530  0.08940  1.0000
  O   O4        1.0  0.50900  0.16600  0.14700  1.0000
  O   O5        1.0  0.50300  0.78000  0.21100  1.0000
  O   O6        1.0  0.78900  0.50300  0.22000  1.0000
  O   O7        1.0  0.41100  0.54500  0.22300  1.0000
  O   O8        1.0  0.23200  0.77400  0.22600  1.0000
  O   O9        1.0  0.77400  0.23200  0.22600  1.0000
  O   O10       1.0  0.27400  0.27400  0.26800  1.0000
  O   O11       1.0  0.98700  0.91600  0.27600  1.0000
  O   O12       1.0  0.02360  0.66800  0.32900  1.0000
  O   O13       1.0  0.67100  0.02360  0.33200  1.0000
  O   O14       1.0  0.00891  0.35300  0.33400  1.0000
  O   O15       1.0  0.77700  0.41100  0.45500  1.0000
  O   O16       1.0  0.17100  0.16800  0.47600  1.0000
  O   O17       1.0  0.16600  0.85300  0.49100  1.0000
  O   O18       1.0  0.78000  0.78900  0.49700  1.0000
  O   O19       1.0  0.22400  0.41600  0.51300  1.0000
  O   O20       1.0  0.48700  0.22400  0.58400  1.0000
  O   O21       1.0  0.54500  0.77700  0.58900  1.0000
  O   O22       1.0  0.66600  0.00891  0.64700  1.0000
  O   O23       1.0  0.28000  0.00350  0.71100  1.0000
  O   O24       1.0  0.00350  0.28900  0.72000  1.0000
  O   O25       1.0  0.04530  0.91100  0.72300  1.0000
  O   O26       1.0  0.27400  0.73200  0.72600  1.0000
  O   O27       1.0  0.73200  0.27400  0.72600  1.0000
  O   O28       1.0  0.77400  0.77400  0.76800  1.0000
  O   O29       1.0  0.41600  0.48700  0.77600  1.0000
  O   O30       1.0  0.16800  0.52400  0.82900  1.0000
  O   O31       1.0  0.52400  0.17100  0.83200  1.0000
  O   O32       1.0  0.85300  0.50900  0.83400  1.0000
  O   O33       1.0  0.91100  0.27700  0.95500  1.0000
  O   O34       1.0  0.66800  0.67100  0.97600  1.0000
  O   O35       1.0  0.35300  0.66600  0.99100  1.0000
  O   O36       1.0  0.28900  0.28000  0.99700  1.0000
  V   V1        1.0  0.33400  0.19000  0.12200  1.0000
  V   V2        1.0  0.37800  0.69000  0.16600  1.0000
  V   V3        1.0  0.67100  0.09980  0.19900  1.0000
  V   V4        1.0  0.83400  0.37800  0.31000  1.0000
  V   V5        1.0  0.09980  0.80100  0.32900  1.0000
  V   V6        1.0  0.17100  0.30100  0.40000  1.0000
  V   V7        1.0  0.69000  0.83400  0.62200  1.0000
  V   V8        1.0  0.19000  0.87800  0.66600  1.0000
  V   V9        1.0  0.60000  0.17100  0.69900  1.0000
  V   V10       1.0  0.87800  0.33400  0.81000  1.0000
  V   V11       1.0  0.30100  0.60000  0.82900  1.0000
  V   V12       1.0  0.80100  0.67100  0.90000  1.0000
