data_image0
_chemical_formula_structural       Cd8Cl12O26Te12
_chemical_formula_sum              "Cd8 Cl12 O26 Te12"
_cell_length_a       7.91259
_cell_length_b       9.82983
_cell_length_c       13.9802
_cell_angle_alpha    75.687
_cell_angle_beta     74.1551
_cell_angle_gamma    90.1061

_space_group_name_H-M_alt    "P 1"
_space_group_IT_number       1

loop_
  _space_group_symop_operation_xyz
  'x, y, z'

loop_
  _atom_site_type_symbol
  _atom_site_label
  _atom_site_symmetry_multiplicity
  _atom_site_fract_x
  _atom_site_fract_y
  _atom_site_fract_z
  _atom_site_occupancy
  Cd  Cd1       1.0  0.11000  0.15900  0.03380  1.0000
  Cd  Cd2       1.0  0.60600  0.16100  0.03630  1.0000
  Cd  Cd3       1.0  0.40400  0.35100  0.46100  1.0000
  Cd  Cd4       1.0  0.90100  0.35300  0.46600  1.0000
  Cd  Cd5       1.0  0.09890  0.64700  0.53400  1.0000
  Cd  Cd6       1.0  0.59600  0.64900  0.53900  1.0000
  Cd  Cd7       1.0  0.39400  0.83900  0.96400  1.0000
  Cd  Cd8       1.0  0.89000  0.84100  0.96600  1.0000
  Cl  Cl1       1.0  0.11000  0.67100  0.03140  1.0000
  Cl  Cl2       1.0  0.60800  0.66600  0.03220  1.0000
  Cl  Cl3       1.0  0.31800  0.96300  0.11300  1.0000
  Cl  Cl4       1.0  0.82100  0.96100  0.11800  1.0000
  Cl  Cl5       1.0  0.02700  0.21700  0.20800  1.0000
  Cl  Cl6       1.0  0.51900  0.19600  0.21600  1.0000
  Cl  Cl7       1.0  0.48100  0.80400  0.78400  1.0000
  Cl  Cl8       1.0  0.97300  0.78300  0.79200  1.0000
  Cl  Cl9       1.0  0.17900  0.03870  0.88200  1.0000
  Cl  Cl10      1.0  0.68200  0.03730  0.88700  1.0000
  Cl  Cl11      1.0  0.39200  0.33400  0.96800  1.0000
  Cl  Cl12      1.0  0.89000  0.32900  0.96900  1.0000
  O   O1        1.0  0.00675  0.49400  0.26000  1.0000
  O   O2        1.0  0.25500  0.62900  0.26500  1.0000
  O   O3        1.0  0.50100  0.48100  0.27000  1.0000
  O   O4        1.0  0.74800  0.62800  0.27200  1.0000
  O   O5        1.0  0.24500  0.82200  0.36600  1.0000
  O   O6        1.0  0.93000  0.91400  0.36900  1.0000
  O   O7        1.0  0.70100  0.32400  0.37300  1.0000
  O   O8        1.0  0.19800  0.33000  0.37300  1.0000
  O   O9        1.0  0.60300  0.82700  0.38900  1.0000
  O   O10       1.0  0.91900  0.60300  0.43000  1.0000
  O   O11       1.0  0.39900  0.59400  0.43900  1.0000
  O   O12       1.0  0.36400  0.06310  0.45900  1.0000
  O   O13       1.0  0.92700  0.11100  0.46800  1.0000
  O   O14       1.0  0.07280  0.88900  0.53200  1.0000
  O   O15       1.0  0.63600  0.93700  0.54100  1.0000
  O   O16       1.0  0.60100  0.40600  0.56100  1.0000
  O   O17       1.0  0.08060  0.39700  0.57000  1.0000
  O   O18       1.0  0.39700  0.17300  0.61100  1.0000
  O   O19       1.0  0.80200  0.67000  0.62700  1.0000
  O   O20       1.0  0.29900  0.67600  0.62700  1.0000
  O   O21       1.0  0.07010  0.08590  0.63100  1.0000
  O   O22       1.0  0.75500  0.17800  0.63400  1.0000
  O   O23       1.0  0.25200  0.37200  0.72800  1.0000
  O   O24       1.0  0.49900  0.51900  0.73000  1.0000
  O   O25       1.0  0.74500  0.37100  0.73500  1.0000
  O   O26       1.0  0.99300  0.50600  0.74000  1.0000
  Te  Te1       1.0  0.27900  0.43800  0.23600  1.0000
  Te  Te2       1.0  0.75500  0.44100  0.23800  1.0000
  Te  Te3       1.0  0.98800  0.68500  0.28700  1.0000
  Te  Te4       1.0  0.46000  0.72700  0.31100  1.0000
  Te  Te5       1.0  0.14600  0.00645  0.38900  1.0000
  Te  Te6       1.0  0.70500  0.00453  0.39400  1.0000
  Te  Te7       1.0  0.29500  0.99500  0.60600  1.0000
  Te  Te8       1.0  0.85400  0.99400  0.61100  1.0000
  Te  Te9       1.0  0.54000  0.27300  0.68900  1.0000
  Te  Te10      1.0  0.01170  0.31500  0.71300  1.0000
  Te  Te11      1.0  0.24500  0.55900  0.76200  1.0000
  Te  Te12      1.0  0.72100  0.56200  0.76400  1.0000
