data_image0
_chemical_formula_structural       F8H32O16Zn4
_chemical_formula_sum              "F8 H32 O16 Zn4"
_cell_length_a       12.3314
_cell_length_b       5.11586
_cell_length_c       7.26902
_cell_angle_alpha    90
_cell_angle_beta     90
_cell_angle_gamma    90

_space_group_name_H-M_alt    "P 1"
_space_group_IT_number       1

loop_
  _space_group_symop_operation_xyz
  'x, y, z'

loop_
  _atom_site_type_symbol
  _atom_site_label
  _atom_site_symmetry_multiplicity
  _atom_site_fract_x
  _atom_site_fract_y
  _atom_site_fract_z
  _atom_site_occupancy
  F   F1        1.0  0.09730  0.45400  0.03590  1.0000
  F   F2        1.0  0.59700  0.54600  0.03590  1.0000
  F   F3        1.0  0.65300  0.07810  0.45400  1.0000
  F   F4        1.0  0.15300  0.92200  0.45400  1.0000
  F   F5        1.0  0.40300  0.45400  0.53600  1.0000
  F   F6        1.0  0.90300  0.54600  0.53600  1.0000
  F   F7        1.0  0.84700  0.07810  0.95400  1.0000
  F   F8        1.0  0.34700  0.92200  0.95400  1.0000
  H   H1        1.0  0.73400  0.07850  0.00906  1.0000
  H   H2        1.0  0.23400  0.92200  0.00906  1.0000
  H   H3        1.0  0.63500  0.26500  0.06980  1.0000
  H   H4        1.0  0.13500  0.73500  0.06980  1.0000
  H   H5        1.0  0.92100  0.05630  0.13800  1.0000
  H   H6        1.0  0.42100  0.94400  0.13800  1.0000
  H   H7        1.0  0.32900  0.37200  0.13900  1.0000
  H   H8        1.0  0.82900  0.62800  0.13900  1.0000
  H   H9        1.0  0.32700  0.37600  0.35800  1.0000
  H   H10       1.0  0.82700  0.62400  0.35800  1.0000
  H   H11       1.0  0.92000  0.04950  0.35900  1.0000
  H   H12       1.0  0.42000  0.95000  0.35900  1.0000
  H   H13       1.0  0.62400  0.36400  0.43400  1.0000
  H   H14       1.0  0.12400  0.63600  0.43400  1.0000
  H   H15       1.0  0.01740  0.48200  0.49000  1.0000
  H   H16       1.0  0.51700  0.51800  0.49000  1.0000
  H   H17       1.0  0.76600  0.07850  0.50900  1.0000
  H   H18       1.0  0.26600  0.92200  0.50900  1.0000
  H   H19       1.0  0.86500  0.26500  0.57000  1.0000
  H   H20       1.0  0.36500  0.73500  0.57000  1.0000
  H   H21       1.0  0.57900  0.05630  0.63800  1.0000
  H   H22       1.0  0.07920  0.94400  0.63800  1.0000
  H   H23       1.0  0.17100  0.37200  0.63900  1.0000
  H   H24       1.0  0.67100  0.62800  0.63900  1.0000
  H   H25       1.0  0.17300  0.37600  0.85800  1.0000
  H   H26       1.0  0.67300  0.62400  0.85800  1.0000
  H   H27       1.0  0.58000  0.04950  0.85900  1.0000
  H   H28       1.0  0.08020  0.95000  0.85900  1.0000
  H   H29       1.0  0.87600  0.36400  0.93400  1.0000
  H   H30       1.0  0.37600  0.63600  0.93400  1.0000
  H   H31       1.0  0.48300  0.48200  0.99000  1.0000
  H   H32       1.0  0.98300  0.51800  0.99000  1.0000
  O   O1        1.0  0.65500  0.07760  0.04740  1.0000
  O   O2        1.0  0.15500  0.92200  0.04740  1.0000
  O   O3        1.0  0.96800  0.04590  0.24800  1.0000
  O   O4        1.0  0.46800  0.95400  0.24800  1.0000
  O   O5        1.0  0.28100  0.34700  0.24900  1.0000
  O   O6        1.0  0.78100  0.65300  0.24900  1.0000
  O   O7        1.0  0.09620  0.45400  0.45700  1.0000
  O   O8        1.0  0.59600  0.54600  0.45700  1.0000
  O   O9        1.0  0.84500  0.07760  0.54700  1.0000
  O   O10       1.0  0.34500  0.92200  0.54700  1.0000
  O   O11       1.0  0.53200  0.04590  0.74800  1.0000
  O   O12       1.0  0.03190  0.95400  0.74800  1.0000
  O   O13       1.0  0.21900  0.34700  0.74900  1.0000
  O   O14       1.0  0.71900  0.65300  0.74900  1.0000
  O   O15       1.0  0.40400  0.45400  0.95700  1.0000
  O   O16       1.0  0.90400  0.54600  0.95700  1.0000
  Zn  Zn1       1.0  0.12400  0.19300  0.24800  1.0000
  Zn  Zn2       1.0  0.62400  0.80700  0.24800  1.0000
  Zn  Zn3       1.0  0.37600  0.19300  0.74800  1.0000
  Zn  Zn4       1.0  0.87600  0.80700  0.74800  1.0000
