data_image0
_chemical_formula_structural       Ba6Cr8F40Na4
_chemical_formula_sum              "Ba6 Cr8 F40 Na4"
_cell_length_a       7.11661
_cell_length_b       20.1985
_cell_length_c       5.2457
_cell_angle_alpha    90.0001
_cell_angle_beta     90.6293
_cell_angle_gamma    90

_space_group_name_H-M_alt    "P 1"
_space_group_IT_number       1

loop_
  _space_group_symop_operation_xyz
  'x, y, z'

loop_
  _atom_site_type_symbol
  _atom_site_label
  _atom_site_symmetry_multiplicity
  _atom_site_fract_x
  _atom_site_fract_y
  _atom_site_fract_z
  _atom_site_occupancy
  Ba  Ba1       1.0  0.00000  0.00000  0.00000  1.0000
  Ba  Ba2       1.0  0.99600  0.22400  0.02240  1.0000
  Ba  Ba3       1.0  0.50400  0.72400  0.47800  1.0000
  Ba  Ba4       1.0  0.50000  0.50000  0.50000  1.0000
  Ba  Ba5       1.0  0.49600  0.27600  0.52200  1.0000
  Ba  Ba6       1.0  0.00383  0.77600  0.97800  1.0000
  Cr  Cr1       1.0  0.70600  0.60300  0.02280  1.0000
  Cr  Cr2       1.0  0.53000  0.86300  0.02910  1.0000
  Cr  Cr3       1.0  0.97000  0.36300  0.47100  1.0000
  Cr  Cr4       1.0  0.79400  0.10300  0.47700  1.0000
  Cr  Cr5       1.0  0.20600  0.89700  0.52300  1.0000
  Cr  Cr6       1.0  0.03040  0.63700  0.52900  1.0000
  Cr  Cr7       1.0  0.47000  0.13700  0.97100  1.0000
  Cr  Cr8       1.0  0.29400  0.39700  0.97700  1.0000
  F   F1        1.0  0.68200  0.51000  0.00180  1.0000
  F   F2        1.0  0.31500  0.06170  0.00968  1.0000
  F   F3        1.0  0.72100  0.69600  0.05030  1.0000
  F   F4        1.0  0.37400  0.78700  0.05960  1.0000
  F   F5        1.0  0.65800  0.08830  0.16200  1.0000
  F   F6        1.0  0.06370  0.40600  0.16300  1.0000
  F   F7        1.0  0.48500  0.60900  0.21800  1.0000
  F   F8        1.0  0.05610  0.88800  0.22800  1.0000
  F   F9        1.0  0.71100  0.82300  0.24600  1.0000
  F   F10       1.0  0.14600  0.67800  0.24900  1.0000
  F   F11       1.0  0.35400  0.17800  0.25100  1.0000
  F   F12       1.0  0.78900  0.32300  0.25400  1.0000
  F   F13       1.0  0.44400  0.38800  0.27200  1.0000
  F   F14       1.0  0.01450  0.10900  0.28200  1.0000
  F   F15       1.0  0.43600  0.90600  0.33700  1.0000
  F   F16       1.0  0.84200  0.58800  0.33800  1.0000
  F   F17       1.0  0.12600  0.28700  0.44000  1.0000
  F   F18       1.0  0.77900  0.19600  0.45000  1.0000
  F   F19       1.0  0.18500  0.56200  0.49000  1.0000
  F   F20       1.0  0.81800  0.00995  0.49800  1.0000
  F   F21       1.0  0.18200  0.99000  0.50200  1.0000
  F   F22       1.0  0.81500  0.43800  0.51000  1.0000
  F   F23       1.0  0.22100  0.80400  0.55000  1.0000
  F   F24       1.0  0.87400  0.71300  0.56000  1.0000
  F   F25       1.0  0.15800  0.41200  0.66200  1.0000
  F   F26       1.0  0.56400  0.09440  0.66300  1.0000
  F   F27       1.0  0.98500  0.89100  0.71800  1.0000
  F   F28       1.0  0.55600  0.61200  0.72800  1.0000
  F   F29       1.0  0.21100  0.67700  0.74600  1.0000
  F   F30       1.0  0.64600  0.82200  0.74900  1.0000
  F   F31       1.0  0.85400  0.32200  0.75100  1.0000
  F   F32       1.0  0.28900  0.17700  0.75400  1.0000
  F   F33       1.0  0.94400  0.11200  0.77200  1.0000
  F   F34       1.0  0.51500  0.39100  0.78200  1.0000
  F   F35       1.0  0.93600  0.59400  0.83700  1.0000
  F   F36       1.0  0.34200  0.91200  0.83800  1.0000
  F   F37       1.0  0.62600  0.21300  0.94000  1.0000
  F   F38       1.0  0.27900  0.30400  0.95000  1.0000
  F   F39       1.0  0.68500  0.93800  0.99000  1.0000
  F   F40       1.0  0.31800  0.49000  0.99800  1.0000
  Na  Na1       1.0  0.22000  0.58900  0.01680  1.0000
  Na  Na2       1.0  0.28000  0.08910  0.48300  1.0000
  Na  Na3       1.0  0.72000  0.91100  0.51700  1.0000
  Na  Na4       1.0  0.78000  0.41100  0.98300  1.0000
