data_image0
_chemical_formula_structural       I28N8Na4Nd16
_chemical_formula_sum              "I28 N8 Na4 Nd16"
_cell_length_a       14.291
_cell_length_b       11.0536
_cell_length_c       12.0645
_cell_angle_alpha    90
_cell_angle_beta     90
_cell_angle_gamma    90

_space_group_name_H-M_alt    "P 1"
_space_group_IT_number       1

loop_
  _space_group_symop_operation_xyz
  'x, y, z'

loop_
  _atom_site_type_symbol
  _atom_site_label
  _atom_site_symmetry_multiplicity
  _atom_site_fract_x
  _atom_site_fract_y
  _atom_site_fract_z
  _atom_site_occupancy
  I   I1        1.0  0.74900  0.06700  0.03870  1.0000
  I   I2        1.0  0.24900  0.43300  0.03870  1.0000
  I   I3        1.0  0.77400  0.63300  0.09690  1.0000
  I   I4        1.0  0.27400  0.86700  0.09690  1.0000
  I   I5        1.0  0.05010  0.18000  0.11400  1.0000
  I   I6        1.0  0.55000  0.32000  0.11400  1.0000
  I   I7        1.0  0.52500  0.68700  0.29300  1.0000
  I   I8        1.0  0.02540  0.81300  0.29300  1.0000
  I   I9        1.0  0.29400  0.18800  0.29800  1.0000
  I   I10       1.0  0.79400  0.31200  0.29800  1.0000
  I   I11       1.0  0.23300  0.59500  0.33800  1.0000
  I   I12       1.0  0.73300  0.90500  0.33800  1.0000
  I   I13       1.0  0.01450  0.15000  0.46200  1.0000
  I   I14       1.0  0.51500  0.35000  0.46200  1.0000
  I   I15       1.0  0.75100  0.56700  0.53900  1.0000
  I   I16       1.0  0.25100  0.93300  0.53900  1.0000
  I   I17       1.0  0.72600  0.13300  0.59700  1.0000
  I   I18       1.0  0.22600  0.36700  0.59700  1.0000
  I   I19       1.0  0.45000  0.68000  0.61400  1.0000
  I   I20       1.0  0.95000  0.82000  0.61400  1.0000
  I   I21       1.0  0.97500  0.18700  0.79300  1.0000
  I   I22       1.0  0.47500  0.31300  0.79300  1.0000
  I   I23       1.0  0.20600  0.68800  0.79800  1.0000
  I   I24       1.0  0.70600  0.81200  0.79800  1.0000
  I   I25       1.0  0.26700  0.09510  0.83800  1.0000
  I   I26       1.0  0.76700  0.40500  0.83800  1.0000
  I   I27       1.0  0.48500  0.65000  0.96200  1.0000
  I   I28       1.0  0.98500  0.85000  0.96200  1.0000
  N   N1        1.0  0.49700  0.00469  0.19700  1.0000
  N   N2        1.0  0.99700  0.49500  0.19700  1.0000
  N   N3        1.0  0.49700  0.01450  0.44800  1.0000
  N   N4        1.0  0.99700  0.48500  0.44800  1.0000
  N   N5        1.0  0.00288  0.50500  0.69700  1.0000
  N   N6        1.0  0.50300  0.99500  0.69700  1.0000
  N   N7        1.0  0.00346  0.51500  0.94800  1.0000
  N   N8        1.0  0.50300  0.98500  0.94800  1.0000
  Na  Na1       1.0  0.90400  0.04840  0.25200  1.0000
  Na  Na2       1.0  0.40400  0.45200  0.25200  1.0000
  Na  Na3       1.0  0.59600  0.54800  0.75200  1.0000
  Na  Na4       1.0  0.09640  0.95200  0.75200  1.0000
  Nd  Nd1       1.0  0.41200  0.10500  0.06230  1.0000
  Nd  Nd2       1.0  0.91200  0.39500  0.06230  1.0000
  Nd  Nd3       1.0  0.08390  0.62500  0.08390  1.0000
  Nd  Nd4       1.0  0.58400  0.87500  0.08390  1.0000
  Nd  Nd5       1.0  0.58600  0.12300  0.31900  1.0000
  Nd  Nd6       1.0  0.08550  0.37700  0.31900  1.0000
  Nd  Nd7       1.0  0.89800  0.58600  0.32500  1.0000
  Nd  Nd8       1.0  0.39800  0.91400  0.32500  1.0000
  Nd  Nd9       1.0  0.08770  0.60500  0.56200  1.0000
  Nd  Nd10      1.0  0.58800  0.89500  0.56200  1.0000
  Nd  Nd11      1.0  0.41600  0.12500  0.58400  1.0000
  Nd  Nd12      1.0  0.91600  0.37500  0.58400  1.0000
  Nd  Nd13      1.0  0.91400  0.62300  0.81900  1.0000
  Nd  Nd14      1.0  0.41400  0.87700  0.81900  1.0000
  Nd  Nd15      1.0  0.60200  0.08570  0.82500  1.0000
  Nd  Nd16      1.0  0.10200  0.41400  0.82500  1.0000
