data_image0
_chemical_formula_structural       K12N12O24Se12
_chemical_formula_sum              "K12 N12 O24 Se12"
_cell_length_a       7.40267
_cell_length_b       12.6359
_cell_length_c       11.7363
_cell_angle_alpha    90
_cell_angle_beta     114.293
_cell_angle_gamma    90

_space_group_name_H-M_alt    "P 1"
_space_group_IT_number       1

loop_
  _space_group_symop_operation_xyz
  'x, y, z'

loop_
  _atom_site_type_symbol
  _atom_site_label
  _atom_site_symmetry_multiplicity
  _atom_site_fract_x
  _atom_site_fract_y
  _atom_site_fract_z
  _atom_site_occupancy
  K   K1        1.0  0.39900  0.64100  0.07140  1.0000
  K   K2        1.0  0.19100  0.25100  0.09350  1.0000
  K   K3        1.0  0.28100  0.92000  0.13300  1.0000
  K   K4        1.0  0.71900  0.42000  0.36700  1.0000
  K   K5        1.0  0.80900  0.75100  0.40600  1.0000
  K   K6        1.0  0.60100  0.14100  0.42900  1.0000
  K   K7        1.0  0.39900  0.85900  0.57100  1.0000
  K   K8        1.0  0.19100  0.24900  0.59400  1.0000
  K   K9        1.0  0.28100  0.58000  0.63300  1.0000
  K   K10       1.0  0.71900  0.07990  0.86700  1.0000
  K   K11       1.0  0.80900  0.74900  0.90600  1.0000
  K   K12       1.0  0.60100  0.35900  0.92900  1.0000
  N   N1        1.0  0.62500  0.04320  0.14900  1.0000
  N   N2        1.0  0.04890  0.66800  0.16300  1.0000
  N   N3        1.0  0.99800  0.43300  0.18500  1.0000
  N   N4        1.0  0.00202  0.93300  0.31500  1.0000
  N   N5        1.0  0.95100  0.16800  0.33700  1.0000
  N   N6        1.0  0.37500  0.54300  0.35100  1.0000
  N   N7        1.0  0.62500  0.45700  0.64900  1.0000
  N   N8        1.0  0.04890  0.83200  0.66300  1.0000
  N   N9        1.0  0.99800  0.06700  0.68500  1.0000
  N   N10       1.0  0.00202  0.56700  0.81500  1.0000
  N   N11       1.0  0.95100  0.33200  0.83700  1.0000
  N   N12       1.0  0.37500  0.95700  0.85100  1.0000
  O   O1        1.0  0.72400  0.55900  0.00225  1.0000
  O   O2        1.0  0.86600  0.92900  0.04970  1.0000
  O   O3        1.0  0.82200  0.20300  0.07080  1.0000
  O   O4        1.0  0.65500  0.83000  0.16600  1.0000
  O   O5        1.0  0.59100  0.25300  0.19800  1.0000
  O   O6        1.0  0.75900  0.58400  0.24100  1.0000
  O   O7        1.0  0.24100  0.08390  0.25900  1.0000
  O   O8        1.0  0.40900  0.75300  0.30200  1.0000
  O   O9        1.0  0.34500  0.33000  0.33400  1.0000
  O   O10       1.0  0.17800  0.70300  0.42900  1.0000
  O   O11       1.0  0.13400  0.42900  0.45000  1.0000
  O   O12       1.0  0.27600  0.05920  0.49800  1.0000
  O   O13       1.0  0.72400  0.94100  0.50200  1.0000
  O   O14       1.0  0.86600  0.57100  0.55000  1.0000
  O   O15       1.0  0.82200  0.29700  0.57100  1.0000
  O   O16       1.0  0.65500  0.67000  0.66600  1.0000
  O   O17       1.0  0.59100  0.24700  0.69800  1.0000
  O   O18       1.0  0.75900  0.91600  0.74100  1.0000
  O   O19       1.0  0.24100  0.41600  0.75900  1.0000
  O   O20       1.0  0.40900  0.74700  0.80200  1.0000
  O   O21       1.0  0.34500  0.17000  0.83400  1.0000
  O   O22       1.0  0.17800  0.79700  0.92900  1.0000
  O   O23       1.0  0.13400  0.07130  0.95000  1.0000
  O   O24       1.0  0.27600  0.44100  0.99800  1.0000
  Se  Se1       1.0  0.88100  0.56100  0.15200  1.0000
  Se  Se2       1.0  0.79000  0.93300  0.16400  1.0000
  Se  Se3       1.0  0.75100  0.16900  0.18300  1.0000
  Se  Se4       1.0  0.24900  0.66900  0.31700  1.0000
  Se  Se5       1.0  0.21000  0.43300  0.33600  1.0000
  Se  Se6       1.0  0.11900  0.06110  0.34800  1.0000
  Se  Se7       1.0  0.88100  0.93900  0.65200  1.0000
  Se  Se8       1.0  0.79000  0.56700  0.66400  1.0000
  Se  Se9       1.0  0.75100  0.33100  0.68300  1.0000
  Se  Se10      1.0  0.24900  0.83100  0.81700  1.0000
  Se  Se11      1.0  0.21000  0.06690  0.83600  1.0000
  Se  Se12      1.0  0.11900  0.43900  0.84800  1.0000
