data_image0
_chemical_formula_structural       La16Mn8O16Se16
_chemical_formula_sum              "La16 Mn8 O16 Se16"
_cell_length_a       17.6802
_cell_length_b       16.5268
_cell_length_c       4.00764
_cell_angle_alpha    90
_cell_angle_beta     89.9999
_cell_angle_gamma    90

_space_group_name_H-M_alt    "P 1"
_space_group_IT_number       1

loop_
  _space_group_symop_operation_xyz
  'x, y, z'

loop_
  _atom_site_type_symbol
  _atom_site_label
  _atom_site_symmetry_multiplicity
  _atom_site_fract_x
  _atom_site_fract_y
  _atom_site_fract_z
  _atom_site_occupancy
  La  La1       1.0  0.41700  0.82300  0.49300  1.0000
  La  La2       1.0  0.91700  0.67700  0.49300  1.0000
  La  La3       1.0  0.59000  0.98300  0.49500  1.0000
  La  La4       1.0  0.08960  0.51700  0.49500  1.0000
  La  La5       1.0  0.08620  0.82900  0.49600  1.0000
  La  La6       1.0  0.58600  0.67100  0.49600  1.0000
  La  La7       1.0  0.41000  0.52300  0.49700  1.0000
  La  La8       1.0  0.91000  0.97700  0.49700  1.0000
  La  La9       1.0  0.08340  0.32300  0.99300  1.0000
  La  La10      1.0  0.58300  0.17700  0.99300  1.0000
  La  La11      1.0  0.41000  0.01670  0.99500  1.0000
  La  La12      1.0  0.91000  0.48300  0.99500  1.0000
  La  La13      1.0  0.41400  0.32900  0.99600  1.0000
  La  La14      1.0  0.91400  0.17100  0.99600  1.0000
  La  La15      1.0  0.08960  0.02330  0.99700  1.0000
  La  La16      1.0  0.59000  0.47700  0.99700  1.0000
  Mn  Mn1       1.0  0.27700  0.16500  0.49300  1.0000
  Mn  Mn2       1.0  0.77700  0.33500  0.49300  1.0000
  Mn  Mn3       1.0  0.24900  0.38800  0.49400  1.0000
  Mn  Mn4       1.0  0.74900  0.11200  0.49400  1.0000
  Mn  Mn5       1.0  0.22300  0.66500  0.99300  1.0000
  Mn  Mn6       1.0  0.72300  0.83500  0.99300  1.0000
  Mn  Mn7       1.0  0.25100  0.88800  0.99400  1.0000
  Mn  Mn8       1.0  0.75100  0.61200  0.99400  1.0000
  O   O1        1.0  0.13400  0.37800  0.49300  1.0000
  O   O2        1.0  0.63400  0.12200  0.49300  1.0000
  O   O3        1.0  0.45700  0.95800  0.49400  1.0000
  O   O4        1.0  0.95700  0.54200  0.49400  1.0000
  O   O5        1.0  0.36300  0.38300  0.49600  1.0000
  O   O6        1.0  0.86300  0.11700  0.49600  1.0000
  O   O7        1.0  0.04550  0.96300  0.49700  1.0000
  O   O8        1.0  0.54600  0.53700  0.49700  1.0000
  O   O9        1.0  0.36600  0.87800  0.99300  1.0000
  O   O10       1.0  0.86600  0.62200  0.99300  1.0000
  O   O11       1.0  0.04320  0.45800  0.99400  1.0000
  O   O12       1.0  0.54300  0.04200  0.99400  1.0000
  O   O13       1.0  0.13700  0.88300  0.99600  1.0000
  O   O14       1.0  0.63700  0.61700  0.99600  1.0000
  O   O15       1.0  0.45400  0.46300  0.99700  1.0000
  O   O16       1.0  0.95400  0.03740  0.99700  1.0000
  Se  Se1       1.0  0.25100  0.01150  0.49200  1.0000
  Se  Se2       1.0  0.75100  0.48900  0.49200  1.0000
  Se  Se3       1.0  0.25200  0.75900  0.49400  1.0000
  Se  Se4       1.0  0.75200  0.74100  0.49400  1.0000
  Se  Se5       1.0  0.42600  0.17000  0.49400  1.0000
  Se  Se6       1.0  0.92600  0.33000  0.49400  1.0000
  Se  Se7       1.0  0.06340  0.17200  0.49700  1.0000
  Se  Se8       1.0  0.56300  0.32800  0.49700  1.0000
  Se  Se9       1.0  0.24900  0.51100  0.99200  1.0000
  Se  Se10      1.0  0.74900  0.98900  0.99200  1.0000
  Se  Se11      1.0  0.24800  0.25900  0.99400  1.0000
  Se  Se12      1.0  0.74800  0.24100  0.99400  1.0000
  Se  Se13      1.0  0.07450  0.67000  0.99400  1.0000
  Se  Se14      1.0  0.57400  0.83000  0.99400  1.0000
  Se  Se15      1.0  0.43700  0.67200  0.99700  1.0000
  Se  Se16      1.0  0.93700  0.82800  0.99700  1.0000
