data_image0
_chemical_formula_structural       Bi20Br36Pt3
_chemical_formula_sum              "Bi20 Br36 Pt3"
_cell_length_a       11.13
_cell_length_b       11.13
_cell_length_c       17.7845
_cell_angle_alpha    105.285
_cell_angle_beta     74.7149
_cell_angle_gamma    94.5989

_space_group_name_H-M_alt    "P 1"
_space_group_IT_number       1

loop_
  _space_group_symop_operation_xyz
  'x, y, z'

loop_
  _atom_site_type_symbol
  _atom_site_label
  _atom_site_symmetry_multiplicity
  _atom_site_fract_x
  _atom_site_fract_y
  _atom_site_fract_z
  _atom_site_occupancy
  Bi  Bi1       1.0  0.12700  0.87300  0.06830  1.0000
  Bi  Bi2       1.0  0.04580  0.21700  0.10800  1.0000
  Bi  Bi3       1.0  0.78300  0.95400  0.10800  1.0000
  Bi  Bi4       1.0  0.65900  0.34100  0.16900  1.0000
  Bi  Bi5       1.0  0.27100  0.46400  0.23100  1.0000
  Bi  Bi6       1.0  0.53600  0.72900  0.23100  1.0000
  Bi  Bi7       1.0  0.18700  0.81300  0.28000  1.0000
  Bi  Bi8       1.0  0.45000  0.55000  0.40700  1.0000
  Bi  Bi9       1.0  0.10400  0.63900  0.44900  1.0000
  Bi  Bi10      1.0  0.36100  0.89600  0.44900  1.0000
  Bi  Bi11      1.0  0.63900  0.10400  0.55100  1.0000
  Bi  Bi12      1.0  0.89600  0.36100  0.55100  1.0000
  Bi  Bi13      1.0  0.55000  0.45000  0.59300  1.0000
  Bi  Bi14      1.0  0.81300  0.18700  0.72000  1.0000
  Bi  Bi15      1.0  0.46400  0.27100  0.76900  1.0000
  Bi  Bi16      1.0  0.72900  0.53600  0.76900  1.0000
  Bi  Bi17      1.0  0.34100  0.65900  0.83100  1.0000
  Bi  Bi18      1.0  0.21700  0.04580  0.89200  1.0000
  Bi  Bi19      1.0  0.95400  0.78300  0.89200  1.0000
  Bi  Bi20      1.0  0.87300  0.12700  0.93200  1.0000
  Br  Br1       1.0  0.27300  0.27300  0.00000  1.0000
  Br  Br2       1.0  0.72700  0.72700  0.00000  1.0000
  Br  Br3       1.0  0.62200  0.10500  0.05070  1.0000
  Br  Br4       1.0  0.89500  0.37800  0.05070  1.0000
  Br  Br5       1.0  0.52800  0.47200  0.09880  1.0000
  Br  Br6       1.0  0.14300  0.58200  0.15400  1.0000
  Br  Br7       1.0  0.41800  0.85700  0.15400  1.0000
  Br  Br8       1.0  0.18000  0.09390  0.18200  1.0000
  Br  Br9       1.0  0.90600  0.82000  0.18200  1.0000
  Br  Br10      1.0  0.80200  0.19800  0.23400  1.0000
  Br  Br11      1.0  0.43800  0.29000  0.27800  1.0000
  Br  Br12      1.0  0.71000  0.56200  0.27800  1.0000
  Br  Br13      1.0  0.05490  0.39700  0.33500  1.0000
  Br  Br14      1.0  0.60300  0.94500  0.33500  1.0000
  Br  Br15      1.0  0.22900  0.04540  0.38700  1.0000
  Br  Br16      1.0  0.95500  0.77100  0.38700  1.0000
  Br  Br17      1.0  0.86100  0.13900  0.43200  1.0000
  Br  Br18      1.0  0.48600  0.23900  0.48400  1.0000
  Br  Br19      1.0  0.76100  0.51400  0.48400  1.0000
  Br  Br20      1.0  0.23900  0.48600  0.51600  1.0000
  Br  Br21      1.0  0.51400  0.76100  0.51600  1.0000
  Br  Br22      1.0  0.13900  0.86100  0.56800  1.0000
  Br  Br23      1.0  0.04540  0.22900  0.61300  1.0000
  Br  Br24      1.0  0.77100  0.95500  0.61300  1.0000
  Br  Br25      1.0  0.39700  0.05490  0.66500  1.0000
  Br  Br26      1.0  0.94500  0.60300  0.66500  1.0000
  Br  Br27      1.0  0.29000  0.43800  0.72200  1.0000
  Br  Br28      1.0  0.56200  0.71000  0.72200  1.0000
  Br  Br29      1.0  0.19800  0.80200  0.76600  1.0000
  Br  Br30      1.0  0.09390  0.18000  0.81800  1.0000
  Br  Br31      1.0  0.82000  0.90600  0.81800  1.0000
  Br  Br32      1.0  0.58200  0.14300  0.84600  1.0000
  Br  Br33      1.0  0.85700  0.41800  0.84600  1.0000
  Br  Br34      1.0  0.47200  0.52800  0.90100  1.0000
  Br  Br35      1.0  0.10500  0.62200  0.94900  1.0000
  Br  Br36      1.0  0.37800  0.89500  0.94900  1.0000
  Pt  Pt1       1.0  0.00000  0.00000  0.00000  1.0000
  Pt  Pt2       1.0  0.32200  0.67800  0.33900  1.0000
  Pt  Pt3       1.0  0.67800  0.32200  0.66100  1.0000
