data_image0
_chemical_formula_structural       Cs4H4Mo4O36P8
_chemical_formula_sum              "Cs4 H4 Mo4 O36 P8"
_cell_length_a       9.41156
_cell_length_b       13.8116
_cell_length_c       6.23947
_cell_angle_alpha    90
_cell_angle_beta     99.8471
_cell_angle_gamma    90

_space_group_name_H-M_alt    "P 1"
_space_group_IT_number       1

loop_
  _space_group_symop_operation_xyz
  'x, y, z'

loop_
  _atom_site_type_symbol
  _atom_site_label
  _atom_site_symmetry_multiplicity
  _atom_site_fract_x
  _atom_site_fract_y
  _atom_site_fract_z
  _atom_site_occupancy
  Cs  Cs1       1.0  0.32600  0.32600  0.18500  1.0000
  Cs  Cs2       1.0  0.82600  0.17400  0.18500  1.0000
  Cs  Cs3       1.0  0.17400  0.82600  0.81500  1.0000
  Cs  Cs4       1.0  0.67400  0.67400  0.81500  1.0000
  H   H1        1.0  0.40400  0.72100  0.30400  1.0000
  H   H2        1.0  0.90400  0.77900  0.30400  1.0000
  H   H3        1.0  0.09620  0.22100  0.69600  1.0000
  H   H4        1.0  0.59600  0.27900  0.69600  1.0000
  Mo  Mo1       1.0  0.70600  0.46600  0.29500  1.0000
  Mo  Mo2       1.0  0.20600  0.03360  0.29500  1.0000
  Mo  Mo3       1.0  0.79400  0.96600  0.70500  1.0000
  Mo  Mo4       1.0  0.29400  0.53400  0.70500  1.0000
  O   O1        1.0  0.27800  0.02250  0.01310  1.0000
  O   O2        1.0  0.77800  0.47700  0.01310  1.0000
  O   O3        1.0  0.77700  0.81200  0.17200  1.0000
  O   O4        1.0  0.27700  0.68800  0.17200  1.0000
  O   O5        1.0  0.04710  0.59500  0.19100  1.0000
  O   O6        1.0  0.54700  0.90500  0.19100  1.0000
  O   O7        1.0  0.55100  0.53400  0.22600  1.0000
  O   O8        1.0  0.05130  0.96600  0.22600  1.0000
  O   O9        1.0  0.14500  0.15200  0.25600  1.0000
  O   O10       1.0  0.64500  0.34800  0.25600  1.0000
  O   O11       1.0  0.32400  0.89800  0.35700  1.0000
  O   O12       1.0  0.82400  0.60200  0.35700  1.0000
  O   O13       1.0  0.78500  0.97200  0.38500  1.0000
  O   O14       1.0  0.28500  0.52800  0.38500  1.0000
  O   O15       1.0  0.92800  0.40600  0.39400  1.0000
  O   O16       1.0  0.42800  0.09380  0.39400  1.0000
  O   O17       1.0  0.99300  0.74500  0.40000  1.0000
  O   O18       1.0  0.49300  0.75500  0.40000  1.0000
  O   O19       1.0  0.00665  0.25500  0.60000  1.0000
  O   O20       1.0  0.50700  0.24500  0.60000  1.0000
  O   O21       1.0  0.07230  0.59400  0.60600  1.0000
  O   O22       1.0  0.57200  0.90600  0.60600  1.0000
  O   O23       1.0  0.71500  0.47200  0.61500  1.0000
  O   O24       1.0  0.21500  0.02850  0.61500  1.0000
  O   O25       1.0  0.17600  0.39800  0.64300  1.0000
  O   O26       1.0  0.67600  0.10200  0.64300  1.0000
  O   O27       1.0  0.35500  0.65200  0.74400  1.0000
  O   O28       1.0  0.85500  0.84800  0.74400  1.0000
  O   O29       1.0  0.44900  0.46600  0.77400  1.0000
  O   O30       1.0  0.94900  0.03370  0.77400  1.0000
  O   O31       1.0  0.95300  0.40500  0.80900  1.0000
  O   O32       1.0  0.45300  0.09520  0.80900  1.0000
  O   O33       1.0  0.72300  0.31200  0.82800  1.0000
  O   O34       1.0  0.22300  0.18800  0.82800  1.0000
  O   O35       1.0  0.72200  0.97700  0.98700  1.0000
  O   O36       1.0  0.22200  0.52300  0.98700  1.0000
  P   P1        1.0  0.71600  0.91200  0.18400  1.0000
  P   P2        1.0  0.21600  0.58800  0.18400  1.0000
  P   P3        1.0  0.98100  0.63300  0.40200  1.0000
  P   P4        1.0  0.48100  0.86700  0.40200  1.0000
  P   P5        1.0  0.01930  0.36700  0.59800  1.0000
  P   P6        1.0  0.51900  0.13300  0.59800  1.0000
  P   P7        1.0  0.28400  0.08820  0.81600  1.0000
  P   P8        1.0  0.78400  0.41200  0.81600  1.0000
