data_image0
_chemical_formula_structural       Ba2O36Rb8V12
_chemical_formula_sum              "Ba2 O36 Rb8 V12"
_cell_length_a       10.1523
_cell_length_b       10.1523
_cell_length_c       10.1523
_cell_angle_alpha    95.1379
_cell_angle_beta     84.8621
_cell_angle_gamma    95.1379

_space_group_name_H-M_alt    "P 1"
_space_group_IT_number       1

loop_
  _space_group_symop_operation_xyz
  'x, y, z'

loop_
  _atom_site_type_symbol
  _atom_site_label
  _atom_site_symmetry_multiplicity
  _atom_site_fract_x
  _atom_site_fract_y
  _atom_site_fract_z
  _atom_site_occupancy
  Ba  Ba1       1.0  0.26300  0.73700  0.26300  1.0000
  Ba  Ba2       1.0  0.76300  0.23700  0.76300  1.0000
  O   O1        1.0  0.35300  0.34100  0.00501  1.0000
  O   O2        1.0  0.66000  0.32500  0.02420  1.0000
  O   O3        1.0  0.96000  0.73900  0.07180  1.0000
  O   O4        1.0  0.85300  0.49500  0.15900  1.0000
  O   O5        1.0  0.52400  0.82500  0.16000  1.0000
  O   O6        1.0  0.16000  0.47600  0.17500  1.0000
  O   O7        1.0  0.41600  0.51500  0.22800  1.0000
  O   O8        1.0  0.77600  0.23200  0.23900  1.0000
  O   O9        1.0  0.07180  0.03960  0.26100  1.0000
  O   O10       1.0  0.27600  0.26100  0.26800  1.0000
  O   O11       1.0  0.73900  0.73200  0.27600  1.0000
  O   O12       1.0  0.32400  0.00215  0.31200  1.0000
  O   O13       1.0  0.99800  0.68800  0.32400  1.0000
  O   O14       1.0  0.65900  0.99500  0.35300  1.0000
  O   O15       1.0  0.48500  0.77200  0.41600  1.0000
  O   O16       1.0  0.57200  0.23900  0.46000  1.0000
  O   O17       1.0  0.22800  0.58400  0.48500  1.0000
  O   O18       1.0  0.82400  0.18800  0.49800  1.0000
  O   O19       1.0  0.15900  0.14700  0.50500  1.0000
  O   O20       1.0  0.17500  0.84000  0.52400  1.0000
  O   O21       1.0  0.76100  0.54000  0.57200  1.0000
  O   O22       1.0  0.00501  0.64700  0.65900  1.0000
  O   O23       1.0  0.67500  0.97600  0.66000  1.0000
  O   O24       1.0  0.02420  0.34000  0.67500  1.0000
  O   O25       1.0  0.98500  0.08400  0.72800  1.0000
  O   O26       1.0  0.26800  0.72400  0.73900  1.0000
  O   O27       1.0  0.46000  0.42800  0.76100  1.0000
  O   O28       1.0  0.23900  0.22400  0.76800  1.0000
  O   O29       1.0  0.76800  0.76100  0.77600  1.0000
  O   O30       1.0  0.49800  0.17600  0.81200  1.0000
  O   O31       1.0  0.81200  0.50200  0.82400  1.0000
  O   O32       1.0  0.50500  0.84100  0.85300  1.0000
  O   O33       1.0  0.72800  0.01450  0.91600  1.0000
  O   O34       1.0  0.26100  0.92800  0.96000  1.0000
  O   O35       1.0  0.91600  0.27200  0.98500  1.0000
  O   O36       1.0  0.31200  0.67600  0.99800  1.0000
  Rb  Rb1       1.0  0.49500  0.08800  0.08570  1.0000
  Rb  Rb2       1.0  0.99500  0.41400  0.41200  1.0000
  Rb  Rb3       1.0  0.91200  0.91400  0.49500  1.0000
  Rb  Rb4       1.0  0.49600  0.50400  0.49600  1.0000
  Rb  Rb5       1.0  0.41200  0.00536  0.58600  1.0000
  Rb  Rb6       1.0  0.08570  0.50500  0.91200  1.0000
  Rb  Rb7       1.0  0.58600  0.58800  0.99500  1.0000
  Rb  Rb8       1.0  0.99600  0.00390  0.99600  1.0000
  V   V1        1.0  0.80000  0.32900  0.09840  1.0000
  V   V2        1.0  0.30000  0.40200  0.17100  1.0000
  V   V3        1.0  0.89200  0.66800  0.20500  1.0000
  V   V4        1.0  0.59800  0.82900  0.30000  1.0000
  V   V5        1.0  0.20500  0.10800  0.33200  1.0000
  V   V6        1.0  0.70500  0.16800  0.39200  1.0000
  V   V7        1.0  0.17100  0.70000  0.59800  1.0000
  V   V8        1.0  0.09840  0.20000  0.67100  1.0000
  V   V9        1.0  0.83200  0.60800  0.70500  1.0000
  V   V10       1.0  0.67100  0.90200  0.80000  1.0000
  V   V11       1.0  0.39200  0.29500  0.83200  1.0000
  V   V12       1.0  0.33200  0.79500  0.89200  1.0000
