data_image0
_chemical_formula_structural       Ca2Na8O36P12
_chemical_formula_sum              "Ca2 Na8 O36 P12"
_cell_length_a       7.60897
_cell_length_b       7.60897
_cell_length_c       13.9402
_cell_angle_alpha    94.3254
_cell_angle_beta     94.3254
_cell_angle_gamma    63.0444

_space_group_name_H-M_alt    "P 1"
_space_group_IT_number       1

loop_
  _space_group_symop_operation_xyz
  'x, y, z'

loop_
  _atom_site_type_symbol
  _atom_site_label
  _atom_site_symmetry_multiplicity
  _atom_site_fract_x
  _atom_site_fract_y
  _atom_site_fract_z
  _atom_site_occupancy
  Ca  Ca1       1.0  0.38100  0.61900  0.25000  1.0000
  Ca  Ca2       1.0  0.61900  0.38100  0.75000  1.0000
  Na  Na1       1.0  0.46100  0.21100  0.04060  1.0000
  Na  Na2       1.0  0.95800  0.70700  0.08520  1.0000
  Na  Na3       1.0  0.29300  0.04180  0.41500  1.0000
  Na  Na4       1.0  0.78900  0.53900  0.45900  1.0000
  Na  Na5       1.0  0.21100  0.46100  0.54100  1.0000
  Na  Na6       1.0  0.70700  0.95800  0.58500  1.0000
  Na  Na7       1.0  0.04180  0.29300  0.91500  1.0000
  Na  Na8       1.0  0.53900  0.78900  0.95900  1.0000
  O   O1        1.0  0.81400  0.49600  0.03140  1.0000
  O   O2        1.0  0.24100  0.07960  0.03640  1.0000
  O   O3        1.0  0.90600  0.15700  0.09760  1.0000
  O   O4        1.0  0.56900  0.42800  0.12300  1.0000
  O   O5        1.0  0.18900  0.82900  0.13200  1.0000
  O   O6        1.0  0.62100  0.90300  0.14300  1.0000
  O   O7        1.0  0.18200  0.46200  0.19500  1.0000
  O   O8        1.0  0.85900  0.44400  0.21300  1.0000
  O   O9        1.0  0.17700  0.13400  0.21800  1.0000
  O   O10       1.0  0.86600  0.82300  0.28200  1.0000
  O   O11       1.0  0.55600  0.14100  0.28700  1.0000
  O   O12       1.0  0.53800  0.81800  0.30500  1.0000
  O   O13       1.0  0.09670  0.37900  0.35700  1.0000
  O   O14       1.0  0.17100  0.81100  0.36800  1.0000
  O   O15       1.0  0.57200  0.43100  0.37700  1.0000
  O   O16       1.0  0.84300  0.09420  0.40200  1.0000
  O   O17       1.0  0.92000  0.75900  0.46400  1.0000
  O   O18       1.0  0.50400  0.18600  0.46900  1.0000
  O   O19       1.0  0.49600  0.81400  0.53100  1.0000
  O   O20       1.0  0.07960  0.24100  0.53600  1.0000
  O   O21       1.0  0.15700  0.90600  0.59800  1.0000
  O   O22       1.0  0.42800  0.56900  0.62300  1.0000
  O   O23       1.0  0.82900  0.18900  0.63200  1.0000
  O   O24       1.0  0.90300  0.62100  0.64300  1.0000
  O   O25       1.0  0.46200  0.18200  0.69500  1.0000
  O   O26       1.0  0.44400  0.85900  0.71300  1.0000
  O   O27       1.0  0.13400  0.17700  0.71800  1.0000
  O   O28       1.0  0.82300  0.86600  0.78200  1.0000
  O   O29       1.0  0.14100  0.55600  0.78700  1.0000
  O   O30       1.0  0.81800  0.53800  0.80500  1.0000
  O   O31       1.0  0.37900  0.09670  0.85700  1.0000
  O   O32       1.0  0.81100  0.17100  0.86800  1.0000
  O   O33       1.0  0.43100  0.57200  0.87700  1.0000
  O   O34       1.0  0.09420  0.84300  0.90200  1.0000
  O   O35       1.0  0.75900  0.92000  0.96400  1.0000
  O   O36       1.0  0.18600  0.50400  0.96900  1.0000
  P   P1        1.0  0.77500  0.39400  0.10900  1.0000
  P   P2        1.0  0.14400  0.03690  0.11400  1.0000
  P   P3        1.0  0.63300  0.91200  0.25000  1.0000
  P   P4        1.0  0.08830  0.36700  0.25000  1.0000
  P   P5        1.0  0.96300  0.85600  0.38600  1.0000
  P   P6        1.0  0.60600  0.22500  0.39100  1.0000
  P   P7        1.0  0.39400  0.77500  0.60900  1.0000
  P   P8        1.0  0.03690  0.14400  0.61400  1.0000
  P   P9        1.0  0.91200  0.63300  0.75000  1.0000
  P   P10       1.0  0.36700  0.08830  0.75000  1.0000
  P   P11       1.0  0.85600  0.96300  0.88600  1.0000
  P   P12       1.0  0.22500  0.60600  0.89100  1.0000
