data_image0
_chemical_formula_structural       As2H10K8O32S6
_chemical_formula_sum              "As2 H10 K8 O32 S6"
_cell_length_a       8.82496
_cell_length_b       9.93203
_cell_length_c       10.4397
_cell_angle_alpha    72.3454
_cell_angle_beta     65.8125
_cell_angle_gamma    65.4194

_space_group_name_H-M_alt    "P 1"
_space_group_IT_number       1

loop_
  _space_group_symop_operation_xyz
  'x, y, z'

loop_
  _atom_site_type_symbol
  _atom_site_label
  _atom_site_symmetry_multiplicity
  _atom_site_fract_x
  _atom_site_fract_y
  _atom_site_fract_z
  _atom_site_occupancy
  As  As1       1.0  0.47400  0.31800  0.21900  1.0000
  As  As2       1.0  0.52600  0.68200  0.78100  1.0000
  H   H1        1.0  0.32600  0.23900  0.12600  1.0000
  H   H2        1.0  0.33200  0.61100  0.14500  1.0000
  H   H3        1.0  0.74800  0.23800  0.24400  1.0000
  H   H4        1.0  0.18100  0.91000  0.35400  1.0000
  H   H5        1.0  0.21200  0.27600  0.36800  1.0000
  H   H6        1.0  0.78800  0.72400  0.63200  1.0000
  H   H7        1.0  0.81900  0.09040  0.64600  1.0000
  H   H8        1.0  0.25200  0.76200  0.75600  1.0000
  H   H9        1.0  0.66800  0.38900  0.85500  1.0000
  H   H10       1.0  0.67400  0.76100  0.87400  1.0000
  K   K1        1.0  0.26700  0.97600  0.00787  1.0000
  K   K2        1.0  0.75700  0.57400  0.10200  1.0000
  K   K3        1.0  0.76600  0.92800  0.40400  1.0000
  K   K4        1.0  0.77900  0.45600  0.49700  1.0000
  K   K5        1.0  0.22100  0.54400  0.50300  1.0000
  K   K6        1.0  0.23400  0.07150  0.59600  1.0000
  K   K7        1.0  0.24300  0.42600  0.89800  1.0000
  K   K8        1.0  0.73300  0.02350  0.99200  1.0000
  O   O1        1.0  0.44400  0.26000  0.09330  1.0000
  O   O2        1.0  0.23100  0.70500  0.11500  1.0000
  O   O3        1.0  0.05470  0.56200  0.12700  1.0000
  O   O4        1.0  0.16900  0.21800  0.13300  1.0000
  O   O5        1.0  0.92600  0.83000  0.14500  1.0000
  O   O6        1.0  0.50100  0.86000  0.16200  1.0000
  O   O7        1.0  0.47800  0.49200  0.18300  1.0000
  O   O8        1.0  0.67400  0.18700  0.23100  1.0000
  O   O9        1.0  0.85500  0.30300  0.26800  1.0000
  O   O10       1.0  0.03260  0.03910  0.30000  1.0000
  O   O11       1.0  0.00996  0.64300  0.34100  1.0000
  O   O12       1.0  0.57200  0.67100  0.36200  1.0000
  O   O13       1.0  0.47300  0.93900  0.37200  1.0000
  O   O14       1.0  0.30900  0.29900  0.38000  1.0000
  O   O15       1.0  0.07020  0.22100  0.38700  1.0000
  O   O16       1.0  0.27100  0.81700  0.39000  1.0000
  O   O17       1.0  0.72900  0.18300  0.61000  1.0000
  O   O18       1.0  0.93000  0.77900  0.61300  1.0000
  O   O19       1.0  0.69100  0.70100  0.62000  1.0000
  O   O20       1.0  0.52700  0.06110  0.62800  1.0000
  O   O21       1.0  0.42800  0.32900  0.63800  1.0000
  O   O22       1.0  0.99000  0.35700  0.65900  1.0000
  O   O23       1.0  0.96700  0.96100  0.70000  1.0000
  O   O24       1.0  0.14500  0.69700  0.73200  1.0000
  O   O25       1.0  0.32600  0.81300  0.76900  1.0000
  O   O26       1.0  0.52200  0.50800  0.81700  1.0000
  O   O27       1.0  0.49900  0.14000  0.83800  1.0000
  O   O28       1.0  0.07440  0.17000  0.85500  1.0000
  O   O29       1.0  0.83100  0.78200  0.86700  1.0000
  O   O30       1.0  0.94500  0.43800  0.87300  1.0000
  O   O31       1.0  0.76900  0.29500  0.88500  1.0000
  O   O32       1.0  0.55600  0.74000  0.90700  1.0000
  S   S1        1.0  0.04540  0.68300  0.18600  1.0000
  S   S2        1.0  0.03220  0.19500  0.27200  1.0000
  S   S3        1.0  0.46600  0.82300  0.31700  1.0000
  S   S4        1.0  0.53400  0.17700  0.68300  1.0000
  S   S5        1.0  0.96800  0.80500  0.72800  1.0000
  S   S6        1.0  0.95500  0.31700  0.81400  1.0000
