data_image0
_chemical_formula_structural       F8K8Mn8O28P8
_chemical_formula_sum              "F8 K8 Mn8 O28 P8"
_cell_length_a       11.1819
_cell_length_b       6.85289
_cell_length_c       10.5296
_cell_angle_alpha    90
_cell_angle_beta     90
_cell_angle_gamma    90

_space_group_name_H-M_alt    "P 1"
_space_group_IT_number       1

loop_
  _space_group_symop_operation_xyz
  'x, y, z'

loop_
  _atom_site_type_symbol
  _atom_site_label
  _atom_site_symmetry_multiplicity
  _atom_site_fract_x
  _atom_site_fract_y
  _atom_site_fract_z
  _atom_site_occupancy
  F   F1        1.0  0.15800  0.12500  0.07010  1.0000
  F   F2        1.0  0.65800  0.37500  0.07010  1.0000
  F   F3        1.0  0.65800  0.62500  0.43000  1.0000
  F   F4        1.0  0.15800  0.87500  0.43000  1.0000
  F   F5        1.0  0.84200  0.12500  0.57000  1.0000
  F   F6        1.0  0.34200  0.37500  0.57000  1.0000
  F   F7        1.0  0.34200  0.62500  0.93000  1.0000
  F   F8        1.0  0.84200  0.87500  0.93000  1.0000
  K   K1        1.0  0.17200  0.50100  0.06540  1.0000
  K   K2        1.0  0.67200  0.99900  0.06540  1.0000
  K   K3        1.0  0.67200  0.00054  0.43500  1.0000
  K   K4        1.0  0.17200  0.49900  0.43500  1.0000
  K   K5        1.0  0.82800  0.50100  0.56500  1.0000
  K   K6        1.0  0.32800  0.99900  0.56500  1.0000
  K   K7        1.0  0.32800  0.00054  0.93500  1.0000
  K   K8        1.0  0.82800  0.49900  0.93500  1.0000
  Mn  Mn1       1.0  0.00000  0.00000  0.00000  1.0000
  Mn  Mn2       1.0  0.50000  0.50000  0.00000  1.0000
  Mn  Mn3       1.0  0.16700  0.00000  0.25000  1.0000
  Mn  Mn4       1.0  0.66700  0.50000  0.25000  1.0000
  Mn  Mn5       1.0  0.00000  0.00000  0.50000  1.0000
  Mn  Mn6       1.0  0.50000  0.50000  0.50000  1.0000
  Mn  Mn7       1.0  0.83300  0.00000  0.75000  1.0000
  Mn  Mn8       1.0  0.33300  0.50000  0.75000  1.0000
  O   O1        1.0  0.91200  0.22300  0.11000  1.0000
  O   O2        1.0  0.41200  0.27700  0.11000  1.0000
  O   O3        1.0  0.51500  0.67200  0.17300  1.0000
  O   O4        1.0  0.01540  0.82800  0.17300  1.0000
  O   O5        1.0  0.80000  0.70500  0.18500  1.0000
  O   O6        1.0  0.30000  0.79500  0.18500  1.0000
  O   O7        1.0  0.48200  0.00000  0.25000  1.0000
  O   O8        1.0  0.98200  0.50000  0.25000  1.0000
  O   O9        1.0  0.30000  0.20500  0.31500  1.0000
  O   O10       1.0  0.80000  0.29500  0.31500  1.0000
  O   O11       1.0  0.01540  0.17200  0.32700  1.0000
  O   O12       1.0  0.51500  0.32800  0.32700  1.0000
  O   O13       1.0  0.41200  0.72300  0.39000  1.0000
  O   O14       1.0  0.91200  0.77700  0.39000  1.0000
  O   O15       1.0  0.08820  0.22300  0.61000  1.0000
  O   O16       1.0  0.58800  0.27700  0.61000  1.0000
  O   O17       1.0  0.48500  0.67200  0.67300  1.0000
  O   O18       1.0  0.98500  0.82800  0.67300  1.0000
  O   O19       1.0  0.20000  0.70500  0.68500  1.0000
  O   O20       1.0  0.70000  0.79500  0.68500  1.0000
  O   O21       1.0  0.51800  0.00000  0.75000  1.0000
  O   O22       1.0  0.01830  0.50000  0.75000  1.0000
  O   O23       1.0  0.70000  0.20500  0.81500  1.0000
  O   O24       1.0  0.20000  0.29500  0.81500  1.0000
  O   O25       1.0  0.98500  0.17200  0.82700  1.0000
  O   O26       1.0  0.48500  0.32800  0.82700  1.0000
  O   O27       1.0  0.58800  0.72300  0.89000  1.0000
  O   O28       1.0  0.08820  0.77700  0.89000  1.0000
  P   P1        1.0  0.42100  0.21800  0.24900  1.0000
  P   P2        1.0  0.92100  0.28200  0.24900  1.0000
  P   P3        1.0  0.92100  0.71800  0.25100  1.0000
  P   P4        1.0  0.42100  0.78200  0.25100  1.0000
  P   P5        1.0  0.57900  0.21800  0.74900  1.0000
  P   P6        1.0  0.07910  0.28200  0.74900  1.0000
  P   P7        1.0  0.07910  0.71800  0.75100  1.0000
  P   P8        1.0  0.57900  0.78200  0.75100  1.0000
