data_image0
_chemical_formula_structural       Ba4Mn6O36Se12
_chemical_formula_sum              "Ba4 Mn6 O36 Se12"
_cell_length_a       5.478
_cell_length_b       9.10541
_cell_length_c       17.2412
_cell_angle_alpha    90
_cell_angle_beta     94.5099
_cell_angle_gamma    90

_space_group_name_H-M_alt    "P 1"
_space_group_IT_number       1

loop_
  _space_group_symop_operation_xyz
  'x, y, z'

loop_
  _atom_site_type_symbol
  _atom_site_label
  _atom_site_symmetry_multiplicity
  _atom_site_fract_x
  _atom_site_fract_y
  _atom_site_fract_z
  _atom_site_occupancy
  Ba  Ba1       1.0  0.98000  0.33100  0.20500  1.0000
  Ba  Ba2       1.0  0.01990  0.83100  0.29500  1.0000
  Ba  Ba3       1.0  0.98000  0.16900  0.70500  1.0000
  Ba  Ba4       1.0  0.01990  0.66900  0.79500  1.0000
  Mn  Mn1       1.0  0.00000  0.50000  0.00000  1.0000
  Mn  Mn2       1.0  0.51600  0.00075  0.16200  1.0000
  Mn  Mn3       1.0  0.48400  0.50100  0.33800  1.0000
  Mn  Mn4       1.0  0.00000  0.00000  0.50000  1.0000
  Mn  Mn5       1.0  0.51600  0.49900  0.66200  1.0000
  Mn  Mn6       1.0  0.48400  0.99900  0.83800  1.0000
  O   O1        1.0  0.69600  0.44300  0.06920  1.0000
  O   O2        1.0  0.28200  0.96200  0.07540  1.0000
  O   O3        1.0  0.22900  0.35500  0.07640  1.0000
  O   O4        1.0  0.11100  0.68000  0.07880  1.0000
  O   O5        1.0  0.62000  0.18000  0.11600  1.0000
  O   O6        1.0  0.85700  0.88900  0.14300  1.0000
  O   O7        1.0  0.44300  0.82400  0.21700  1.0000
  O   O8        1.0  0.27900  0.56500  0.23800  1.0000
  O   O9        1.0  0.73900  0.59600  0.24800  1.0000
  O   O10       1.0  0.26100  0.09600  0.25200  1.0000
  O   O11       1.0  0.72100  0.06490  0.26200  1.0000
  O   O12       1.0  0.55700  0.32400  0.28300  1.0000
  O   O13       1.0  0.14300  0.38900  0.35700  1.0000
  O   O14       1.0  0.38000  0.68000  0.38400  1.0000
  O   O15       1.0  0.88900  0.18000  0.42100  1.0000
  O   O16       1.0  0.77100  0.85500  0.42400  1.0000
  O   O17       1.0  0.71800  0.46200  0.42500  1.0000
  O   O18       1.0  0.30400  0.94300  0.43100  1.0000
  O   O19       1.0  0.69600  0.05710  0.56900  1.0000
  O   O20       1.0  0.28200  0.53800  0.57500  1.0000
  O   O21       1.0  0.22900  0.14500  0.57600  1.0000
  O   O22       1.0  0.11100  0.82000  0.57900  1.0000
  O   O23       1.0  0.62000  0.32000  0.61600  1.0000
  O   O24       1.0  0.85700  0.61100  0.64300  1.0000
  O   O25       1.0  0.44300  0.67600  0.71700  1.0000
  O   O26       1.0  0.27900  0.93500  0.73800  1.0000
  O   O27       1.0  0.73900  0.90400  0.74800  1.0000
  O   O28       1.0  0.26100  0.40400  0.75200  1.0000
  O   O29       1.0  0.72100  0.43500  0.76200  1.0000
  O   O30       1.0  0.55700  0.17600  0.78300  1.0000
  O   O31       1.0  0.14300  0.11100  0.85700  1.0000
  O   O32       1.0  0.38000  0.82000  0.88400  1.0000
  O   O33       1.0  0.88900  0.32000  0.92100  1.0000
  O   O34       1.0  0.77100  0.64500  0.92400  1.0000
  O   O35       1.0  0.71800  0.03780  0.92500  1.0000
  O   O36       1.0  0.30400  0.55700  0.93100  1.0000
  Se  Se1       1.0  0.50000  0.30000  0.04210  1.0000
  Se  Se2       1.0  0.01290  0.85700  0.06200  1.0000
  Se  Se3       1.0  0.49700  0.64500  0.18300  1.0000
  Se  Se4       1.0  0.50300  0.14500  0.31700  1.0000
  Se  Se5       1.0  0.98700  0.35700  0.43800  1.0000
  Se  Se6       1.0  0.50000  0.80000  0.45800  1.0000
  Se  Se7       1.0  0.50000  0.20000  0.54200  1.0000
  Se  Se8       1.0  0.01290  0.64300  0.56200  1.0000
  Se  Se9       1.0  0.49700  0.85500  0.68300  1.0000
  Se  Se10      1.0  0.50300  0.35500  0.81700  1.0000
  Se  Se11      1.0  0.98700  0.14300  0.93800  1.0000
  Se  Se12      1.0  0.50000  0.70000  0.95800  1.0000
