data_image0
_chemical_formula_structural       Pb10S34Sb16
_chemical_formula_sum              "Pb10 S34 Sb16"
_cell_length_a       9.03969
_cell_length_b       9.03969
_cell_length_c       20.7024
_cell_angle_alpha    101.741
_cell_angle_beta     78.2586
_cell_angle_gamma    97.8835

_space_group_name_H-M_alt    "P 1"
_space_group_IT_number       1

loop_
  _space_group_symop_operation_xyz
  'x, y, z'

loop_
  _atom_site_type_symbol
  _atom_site_label
  _atom_site_symmetry_multiplicity
  _atom_site_fract_x
  _atom_site_fract_y
  _atom_site_fract_z
  _atom_site_occupancy
  Pb  Pb1       1.0  0.32600  0.84700  0.04510  1.0000
  Pb  Pb2       1.0  0.60300  0.13800  0.17500  1.0000
  Pb  Pb3       1.0  0.82400  0.82400  0.25000  1.0000
  Pb  Pb4       1.0  0.13800  0.60300  0.32500  1.0000
  Pb  Pb5       1.0  0.84700  0.32600  0.45500  1.0000
  Pb  Pb6       1.0  0.15300  0.67400  0.54500  1.0000
  Pb  Pb7       1.0  0.86200  0.39700  0.67500  1.0000
  Pb  Pb8       1.0  0.17600  0.17600  0.75000  1.0000
  Pb  Pb9       1.0  0.39700  0.86200  0.82500  1.0000
  Pb  Pb10      1.0  0.67400  0.15300  0.95500  1.0000
  S   S1        1.0  0.30700  0.51900  0.00140  1.0000
  S   S2        1.0  0.84500  0.10600  0.06110  1.0000
  S   S3        1.0  0.43700  0.18100  0.06460  1.0000
  S   S4        1.0  0.97100  0.75100  0.10400  1.0000
  S   S5        1.0  0.56800  0.80600  0.12100  1.0000
  S   S6        1.0  0.08770  0.45000  0.17000  1.0000
  S   S7        1.0  0.68600  0.46400  0.17400  1.0000
  S   S8        1.0  0.13800  0.84800  0.24800  1.0000
  S   S9        1.0  0.26000  0.26000  0.25000  1.0000
  S   S10       1.0  0.84800  0.13800  0.25200  1.0000
  S   S11       1.0  0.46400  0.68600  0.32600  1.0000
  S   S12       1.0  0.45000  0.08770  0.33000  1.0000
  S   S13       1.0  0.80600  0.56800  0.37900  1.0000
  S   S14       1.0  0.75100  0.97100  0.39600  1.0000
  S   S15       1.0  0.18100  0.43700  0.43500  1.0000
  S   S16       1.0  0.10600  0.84500  0.43900  1.0000
  S   S17       1.0  0.51900  0.30700  0.49900  1.0000
  S   S18       1.0  0.48100  0.69300  0.50100  1.0000
  S   S19       1.0  0.89400  0.15500  0.56100  1.0000
  S   S20       1.0  0.81900  0.56300  0.56500  1.0000
  S   S21       1.0  0.24900  0.02920  0.60400  1.0000
  S   S22       1.0  0.19400  0.43200  0.62100  1.0000
  S   S23       1.0  0.55000  0.91200  0.67000  1.0000
  S   S24       1.0  0.53600  0.31400  0.67400  1.0000
  S   S25       1.0  0.15200  0.86200  0.74800  1.0000
  S   S26       1.0  0.74000  0.74000  0.75000  1.0000
  S   S27       1.0  0.86200  0.15200  0.75200  1.0000
  S   S28       1.0  0.31400  0.53600  0.82600  1.0000
  S   S29       1.0  0.91200  0.55000  0.83000  1.0000
  S   S30       1.0  0.43200  0.19400  0.87900  1.0000
  S   S31       1.0  0.02920  0.24900  0.89600  1.0000
  S   S32       1.0  0.56300  0.81900  0.93500  1.0000
  S   S33       1.0  0.15500  0.89400  0.93900  1.0000
  S   S34       1.0  0.69300  0.48100  0.99900  1.0000
  Sb  Sb1       1.0  0.79400  0.81800  0.03130  1.0000
  Sb  Sb2       1.0  0.91900  0.46300  0.08760  1.0000
  Sb  Sb3       1.0  0.48500  0.47800  0.09820  1.0000
  Sb  Sb4       1.0  0.07890  0.17100  0.16800  1.0000
  Sb  Sb5       1.0  0.17100  0.07890  0.33200  1.0000
  Sb  Sb6       1.0  0.47800  0.48500  0.40200  1.0000
  Sb  Sb7       1.0  0.46300  0.91900  0.41200  1.0000
  Sb  Sb8       1.0  0.81800  0.79400  0.46900  1.0000
  Sb  Sb9       1.0  0.18200  0.20600  0.53100  1.0000
  Sb  Sb10      1.0  0.53700  0.08080  0.58800  1.0000
  Sb  Sb11      1.0  0.52200  0.51500  0.59800  1.0000
  Sb  Sb12      1.0  0.82900  0.92100  0.66800  1.0000
  Sb  Sb13      1.0  0.92100  0.82900  0.83200  1.0000
  Sb  Sb14      1.0  0.51500  0.52200  0.90200  1.0000
  Sb  Sb15      1.0  0.08080  0.53700  0.91200  1.0000
  Sb  Sb16      1.0  0.20600  0.18200  0.96900  1.0000
