data_image0
_chemical_formula_structural       Cd2H12O32S8
_chemical_formula_sum              "Cd2 H12 O32 S8"
_cell_length_a       5.06858
_cell_length_b       15.5578
_cell_length_c       8.12518
_cell_angle_alpha    90
_cell_angle_beta     112.909
_cell_angle_gamma    90

_space_group_name_H-M_alt    "P 1"
_space_group_IT_number       1

loop_
  _space_group_symop_operation_xyz
  'x, y, z'

loop_
  _atom_site_type_symbol
  _atom_site_label
  _atom_site_symmetry_multiplicity
  _atom_site_fract_x
  _atom_site_fract_y
  _atom_site_fract_z
  _atom_site_occupancy
  Cd  Cd1       1.0  0.00000  0.00000  0.00000  1.0000
  Cd  Cd2       1.0  0.00000  0.50000  0.50000  1.0000
  H   H1        1.0  0.96100  0.16700  0.06300  1.0000
  H   H2        1.0  0.28200  0.28300  0.10500  1.0000
  H   H3        1.0  0.80900  0.79800  0.22700  1.0000
  H   H4        1.0  0.19100  0.29800  0.27300  1.0000
  H   H5        1.0  0.71800  0.78300  0.39500  1.0000
  H   H6        1.0  0.03890  0.66700  0.43700  1.0000
  H   H7        1.0  0.96100  0.33300  0.56300  1.0000
  H   H8        1.0  0.28200  0.21700  0.60500  1.0000
  H   H9        1.0  0.80900  0.70200  0.72700  1.0000
  H   H10       1.0  0.19100  0.20200  0.77300  1.0000
  H   H11       1.0  0.71800  0.71700  0.89500  1.0000
  H   H12       1.0  0.03880  0.83300  0.93700  1.0000
  O   O1        1.0  0.29000  0.64100  0.07840  1.0000
  O   O2        1.0  0.63500  0.19500  0.11500  1.0000
  O   O3        1.0  0.00646  0.76100  0.11900  1.0000
  O   O4        1.0  0.12600  0.13000  0.14200  1.0000
  O   O5        1.0  0.70900  0.96200  0.14400  1.0000
  O   O6        1.0  0.94600  0.61100  0.20200  1.0000
  O   O7        1.0  0.33400  0.31400  0.22000  1.0000
  O   O8        1.0  0.65300  0.45300  0.23200  1.0000
  O   O9        1.0  0.34700  0.95300  0.26800  1.0000
  O   O10       1.0  0.66600  0.81400  0.28000  1.0000
  O   O11       1.0  0.05450  0.11100  0.29800  1.0000
  O   O12       1.0  0.29100  0.46200  0.35600  1.0000
  O   O13       1.0  0.87400  0.63000  0.35800  1.0000
  O   O14       1.0  0.99400  0.26100  0.38100  1.0000
  O   O15       1.0  0.36500  0.69500  0.38500  1.0000
  O   O16       1.0  0.71000  0.14100  0.42200  1.0000
  O   O17       1.0  0.29000  0.85900  0.57800  1.0000
  O   O18       1.0  0.63500  0.30500  0.61500  1.0000
  O   O19       1.0  0.00649  0.73900  0.61900  1.0000
  O   O20       1.0  0.12600  0.37000  0.64200  1.0000
  O   O21       1.0  0.70900  0.53800  0.64400  1.0000
  O   O22       1.0  0.94600  0.88900  0.70200  1.0000
  O   O23       1.0  0.33400  0.18600  0.72000  1.0000
  O   O24       1.0  0.65300  0.04690  0.73200  1.0000
  O   O25       1.0  0.34700  0.54700  0.76800  1.0000
  O   O26       1.0  0.66600  0.68600  0.78000  1.0000
  O   O27       1.0  0.05440  0.38900  0.79800  1.0000
  O   O28       1.0  0.29100  0.03780  0.85600  1.0000
  O   O29       1.0  0.87400  0.87000  0.85800  1.0000
  O   O30       1.0  0.99400  0.23900  0.88100  1.0000
  O   O31       1.0  0.36500  0.80500  0.88500  1.0000
  O   O32       1.0  0.71000  0.35900  0.92200  1.0000
  S   S1        1.0  0.34500  0.44600  0.19400  1.0000
  S   S2        1.0  0.18400  0.68400  0.19700  1.0000
  S   S3        1.0  0.81600  0.18400  0.30300  1.0000
  S   S4        1.0  0.65500  0.94600  0.30600  1.0000
  S   S5        1.0  0.34500  0.05420  0.69400  1.0000
  S   S6        1.0  0.18400  0.81600  0.69700  1.0000
  S   S7        1.0  0.81600  0.31600  0.80300  1.0000
  S   S8        1.0  0.65500  0.55400  0.80600  1.0000
