data_image0
_chemical_formula_structural       Ba32Ga28
_chemical_formula_sum              "Ba32 Ga28"
_cell_length_a       13.036
_cell_length_b       13.036
_cell_length_c       13.036
_cell_angle_alpha    90
_cell_angle_beta     90
_cell_angle_gamma    90

_space_group_name_H-M_alt    "P 1"
_space_group_IT_number       1

loop_
  _space_group_symop_operation_xyz
  'x, y, z'

loop_
  _atom_site_type_symbol
  _atom_site_label
  _atom_site_symmetry_multiplicity
  _atom_site_fract_x
  _atom_site_fract_y
  _atom_site_fract_z
  _atom_site_occupancy
  Ba  Ba1       1.0  0.79800  0.55700  0.00081  1.0000
  Ba  Ba2       1.0  0.79800  0.06170  0.01940  1.0000
  Ba  Ba3       1.0  0.49900  0.20200  0.05730  1.0000
  Ba  Ba4       1.0  0.01940  0.79800  0.06170  1.0000
  Ba  Ba5       1.0  0.31400  0.68600  0.18600  1.0000
  Ba  Ba6       1.0  0.18700  0.18700  0.18700  1.0000
  Ba  Ba7       1.0  0.05730  0.49900  0.20200  1.0000
  Ba  Ba8       1.0  0.56200  0.48100  0.20200  1.0000
  Ba  Ba9       1.0  0.43800  0.98100  0.29800  1.0000
  Ba  Ba10      1.0  0.94300  0.99900  0.29800  1.0000
  Ba  Ba11      1.0  0.81300  0.68700  0.31300  1.0000
  Ba  Ba12      1.0  0.68600  0.18600  0.31400  1.0000
  Ba  Ba13      1.0  0.98100  0.29800  0.43800  1.0000
  Ba  Ba14      1.0  0.50100  0.70200  0.44300  1.0000
  Ba  Ba15      1.0  0.20200  0.56200  0.48100  1.0000
  Ba  Ba16      1.0  0.20200  0.05730  0.49900  1.0000
  Ba  Ba17      1.0  0.70200  0.44300  0.50100  1.0000
  Ba  Ba18      1.0  0.70200  0.93800  0.51900  1.0000
  Ba  Ba19      1.0  0.00081  0.79800  0.55700  1.0000
  Ba  Ba20      1.0  0.48100  0.20200  0.56200  1.0000
  Ba  Ba21      1.0  0.18600  0.31400  0.68600  1.0000
  Ba  Ba22      1.0  0.31300  0.81300  0.68700  1.0000
  Ba  Ba23      1.0  0.44300  0.50100  0.70200  1.0000
  Ba  Ba24      1.0  0.93800  0.51900  0.70200  1.0000
  Ba  Ba25      1.0  0.06170  0.01940  0.79800  1.0000
  Ba  Ba26      1.0  0.55700  0.00081  0.79800  1.0000
  Ba  Ba27      1.0  0.68700  0.31300  0.81300  1.0000
  Ba  Ba28      1.0  0.81400  0.81400  0.81400  1.0000
  Ba  Ba29      1.0  0.51900  0.70200  0.93800  1.0000
  Ba  Ba30      1.0  0.99900  0.29800  0.94300  1.0000
  Ba  Ba31      1.0  0.29800  0.43800  0.98100  1.0000
  Ba  Ba32      1.0  0.29800  0.94300  0.99900  1.0000
  Ga  Ga1       1.0  0.56800  0.93200  0.06790  1.0000
  Ga  Ga2       1.0  0.74000  0.80600  0.07570  1.0000
  Ga  Ga3       1.0  0.75300  0.31300  0.08250  1.0000
  Ga  Ga4       1.0  0.91800  0.25300  0.18700  1.0000
  Ga  Ga5       1.0  0.57600  0.76000  0.19400  1.0000
  Ga  Ga6       1.0  0.69400  0.92400  0.24000  1.0000
  Ga  Ga7       1.0  0.81300  0.41800  0.24700  1.0000
  Ga  Ga8       1.0  0.18700  0.91800  0.25300  1.0000
  Ga  Ga9       1.0  0.30600  0.42400  0.26000  1.0000
  Ga  Ga10      1.0  0.42400  0.26000  0.30600  1.0000
  Ga  Ga11      1.0  0.08250  0.75300  0.31300  1.0000
  Ga  Ga12      1.0  0.24700  0.81300  0.41800  1.0000
  Ga  Ga13      1.0  0.26000  0.30600  0.42400  1.0000
  Ga  Ga14      1.0  0.43200  0.43200  0.43200  1.0000
  Ga  Ga15      1.0  0.93200  0.06790  0.56800  1.0000
  Ga  Ga16      1.0  0.76000  0.19400  0.57600  1.0000
  Ga  Ga17      1.0  0.74700  0.68700  0.58200  1.0000
  Ga  Ga18      1.0  0.58200  0.74700  0.68700  1.0000
  Ga  Ga19      1.0  0.92400  0.24000  0.69400  1.0000
  Ga  Ga20      1.0  0.80600  0.07570  0.74000  1.0000
  Ga  Ga21      1.0  0.68700  0.58200  0.74700  1.0000
  Ga  Ga22      1.0  0.31300  0.08250  0.75300  1.0000
  Ga  Ga23      1.0  0.19400  0.57600  0.76000  1.0000
  Ga  Ga24      1.0  0.07570  0.74000  0.80600  1.0000
  Ga  Ga25      1.0  0.41800  0.24700  0.81300  1.0000
  Ga  Ga26      1.0  0.25300  0.18700  0.91800  1.0000
  Ga  Ga27      1.0  0.24000  0.69400  0.92400  1.0000
  Ga  Ga28      1.0  0.06790  0.56800  0.93200  1.0000
