data_image0
_chemical_formula_structural       Cl40O8P8Sn4
_chemical_formula_sum              "Cl40 O8 P8 Sn4"
_cell_length_a       14.7103
_cell_length_b       14.4976
_cell_length_c       8.04223
_cell_angle_alpha    90
_cell_angle_beta     90
_cell_angle_gamma    90

_space_group_name_H-M_alt    "P 1"
_space_group_IT_number       1

loop_
  _space_group_symop_operation_xyz
  'x, y, z'

loop_
  _atom_site_type_symbol
  _atom_site_label
  _atom_site_symmetry_multiplicity
  _atom_site_fract_x
  _atom_site_fract_y
  _atom_site_fract_z
  _atom_site_occupancy
  Cl  Cl1       1.0  0.65000  0.05100  0.00000  1.0000
  Cl  Cl2       1.0  0.02730  0.14500  0.00000  1.0000
  Cl  Cl3       1.0  0.48900  0.35700  0.00000  1.0000
  Cl  Cl4       1.0  0.08780  0.39600  0.00000  1.0000
  Cl  Cl5       1.0  0.91200  0.60400  0.00000  1.0000
  Cl  Cl6       1.0  0.51100  0.64300  0.00000  1.0000
  Cl  Cl7       1.0  0.97300  0.85500  0.00000  1.0000
  Cl  Cl8       1.0  0.35000  0.94900  0.00000  1.0000
  Cl  Cl9       1.0  0.34400  0.47500  0.19700  1.0000
  Cl  Cl10      1.0  0.65600  0.52500  0.19700  1.0000
  Cl  Cl11      1.0  0.41600  0.12600  0.19700  1.0000
  Cl  Cl12      1.0  0.58400  0.87400  0.19700  1.0000
  Cl  Cl13      1.0  0.68100  0.26100  0.20800  1.0000
  Cl  Cl14      1.0  0.31900  0.73900  0.20800  1.0000
  Cl  Cl15      1.0  0.18100  0.23900  0.29200  1.0000
  Cl  Cl16      1.0  0.81900  0.76100  0.29200  1.0000
  Cl  Cl17      1.0  0.91600  0.37400  0.30300  1.0000
  Cl  Cl18      1.0  0.08440  0.62600  0.30300  1.0000
  Cl  Cl19      1.0  0.84400  0.02450  0.30300  1.0000
  Cl  Cl20      1.0  0.15600  0.97500  0.30300  1.0000
  Cl  Cl21      1.0  0.58800  0.10400  0.50000  1.0000
  Cl  Cl22      1.0  0.98900  0.14300  0.50000  1.0000
  Cl  Cl23      1.0  0.52700  0.35500  0.50000  1.0000
  Cl  Cl24      1.0  0.15000  0.44900  0.50000  1.0000
  Cl  Cl25      1.0  0.85000  0.55100  0.50000  1.0000
  Cl  Cl26      1.0  0.47300  0.64500  0.50000  1.0000
  Cl  Cl27      1.0  0.01090  0.85700  0.50000  1.0000
  Cl  Cl28      1.0  0.41200  0.89600  0.50000  1.0000
  Cl  Cl29      1.0  0.84400  0.02450  0.69700  1.0000
  Cl  Cl30      1.0  0.15600  0.97500  0.69700  1.0000
  Cl  Cl31      1.0  0.91600  0.37400  0.69700  1.0000
  Cl  Cl32      1.0  0.08440  0.62600  0.69700  1.0000
  Cl  Cl33      1.0  0.18100  0.23900  0.70800  1.0000
  Cl  Cl34      1.0  0.81900  0.76100  0.70800  1.0000
  Cl  Cl35      1.0  0.68100  0.26100  0.79200  1.0000
  Cl  Cl36      1.0  0.31900  0.73900  0.79200  1.0000
  Cl  Cl37      1.0  0.41600  0.12600  0.80300  1.0000
  Cl  Cl38      1.0  0.58400  0.87400  0.80300  1.0000
  Cl  Cl39      1.0  0.34400  0.47500  0.80300  1.0000
  Cl  Cl40      1.0  0.65600  0.52500  0.80300  1.0000
  O   O1        1.0  0.24800  0.11700  0.00000  1.0000
  O   O2        1.0  0.29900  0.31200  0.00000  1.0000
  O   O3        1.0  0.70100  0.68800  0.00000  1.0000
  O   O4        1.0  0.75200  0.88300  0.00000  1.0000
  O   O5        1.0  0.79900  0.18800  0.50000  1.0000
  O   O6        1.0  0.74800  0.38300  0.50000  1.0000
  O   O7        1.0  0.25200  0.61700  0.50000  1.0000
  O   O8        1.0  0.20100  0.81200  0.50000  1.0000
  P   P1        1.0  0.34500  0.08550  0.00000  1.0000
  P   P2        1.0  0.36000  0.39400  0.00000  1.0000
  P   P3        1.0  0.64000  0.60600  0.00000  1.0000
  P   P4        1.0  0.65500  0.91500  0.00000  1.0000
  P   P5        1.0  0.86000  0.10600  0.50000  1.0000
  P   P6        1.0  0.84500  0.41500  0.50000  1.0000
  P   P7        1.0  0.15500  0.58500  0.50000  1.0000
  P   P8        1.0  0.14000  0.89400  0.50000  1.0000
  Sn  Sn1       1.0  0.15500  0.24600  0.00000  1.0000
  Sn  Sn2       1.0  0.84500  0.75400  0.00000  1.0000
  Sn  Sn3       1.0  0.65500  0.25400  0.50000  1.0000
  Sn  Sn4       1.0  0.34500  0.74600  0.50000  1.0000
