data_image0
_chemical_formula_structural       C8Cl18H24N2W6
_chemical_formula_sum              "C8 Cl18 H24 N2 W6"
_cell_length_a       10.9852
_cell_length_b       10.9846
_cell_length_c       8.63646
_cell_angle_alpha    90.0014
_cell_angle_beta     90.0021
_cell_angle_gamma    120

_space_group_name_H-M_alt    "P 1"
_space_group_IT_number       1

loop_
  _space_group_symop_operation_xyz
  'x, y, z'

loop_
  _atom_site_type_symbol
  _atom_site_label
  _atom_site_symmetry_multiplicity
  _atom_site_fract_x
  _atom_site_fract_y
  _atom_site_fract_z
  _atom_site_occupancy
  C   C1        1.0  0.33300  0.66700  0.13200  1.0000
  C   C2        1.0  0.40800  0.59200  0.36300  1.0000
  C   C3        1.0  0.40800  0.81600  0.36300  1.0000
  C   C4        1.0  0.18500  0.59200  0.36300  1.0000
  C   C5        1.0  0.81500  0.40800  0.63700  1.0000
  C   C6        1.0  0.59200  0.18400  0.63700  1.0000
  C   C7        1.0  0.59200  0.40800  0.63700  1.0000
  C   C8        1.0  0.66700  0.33300  0.86800  1.0000
  Cl  Cl1       1.0  0.31500  0.00000  0.00000  1.0000
  Cl  Cl2       1.0  0.68500  0.00000  0.00000  1.0000
  Cl  Cl3       1.0  0.00000  0.31500  0.00000  1.0000
  Cl  Cl4       1.0  0.31500  0.31500  0.00000  1.0000
  Cl  Cl5       1.0  0.68500  0.68500  0.00000  1.0000
  Cl  Cl6       1.0  0.00000  0.68500  0.00000  1.0000
  Cl  Cl7       1.0  0.38900  0.19500  0.29600  1.0000
  Cl  Cl8       1.0  0.80500  0.19500  0.29600  1.0000
  Cl  Cl9       1.0  0.80500  0.61100  0.29600  1.0000
  Cl  Cl10      1.0  0.10100  0.20200  0.31200  1.0000
  Cl  Cl11      1.0  0.10100  0.89900  0.31200  1.0000
  Cl  Cl12      1.0  0.79800  0.89900  0.31200  1.0000
  Cl  Cl13      1.0  0.20200  0.10100  0.68800  1.0000
  Cl  Cl14      1.0  0.89900  0.10100  0.68800  1.0000
  Cl  Cl15      1.0  0.89900  0.79800  0.68800  1.0000
  Cl  Cl16      1.0  0.19500  0.38900  0.70400  1.0000
  Cl  Cl17      1.0  0.19500  0.80500  0.70400  1.0000
  Cl  Cl18      1.0  0.61100  0.80500  0.70400  1.0000
  H   H1        1.0  0.27900  0.55800  0.09050  1.0000
  H   H2        1.0  0.27900  0.72100  0.09050  1.0000
  H   H3        1.0  0.44200  0.72100  0.09050  1.0000
  H   H4        1.0  0.13100  0.48400  0.32000  1.0000
  H   H5        1.0  0.13100  0.64700  0.32000  1.0000
  H   H6        1.0  0.35300  0.48400  0.32000  1.0000
  H   H7        1.0  0.35300  0.86900  0.32000  1.0000
  H   H8        1.0  0.51600  0.64700  0.32000  1.0000
  H   H9        1.0  0.51600  0.86900  0.32000  1.0000
  H   H10       1.0  0.18600  0.59300  0.49000  1.0000
  H   H11       1.0  0.40700  0.59300  0.49000  1.0000
  H   H12       1.0  0.40700  0.81400  0.49000  1.0000
  H   H13       1.0  0.59300  0.18600  0.51000  1.0000
  H   H14       1.0  0.59300  0.40700  0.51000  1.0000
  H   H15       1.0  0.81400  0.40700  0.51000  1.0000
  H   H16       1.0  0.48400  0.13100  0.68000  1.0000
  H   H17       1.0  0.48400  0.35300  0.68000  1.0000
  H   H18       1.0  0.64700  0.13100  0.68000  1.0000
  H   H19       1.0  0.64700  0.51600  0.68000  1.0000
  H   H20       1.0  0.86900  0.35300  0.68000  1.0000
  H   H21       1.0  0.86900  0.51600  0.68000  1.0000
  H   H22       1.0  0.55800  0.27900  0.91000  1.0000
  H   H23       1.0  0.72100  0.27900  0.91000  1.0000
  H   H24       1.0  0.72100  0.44200  0.91000  1.0000
  N   N1        1.0  0.33300  0.66700  0.30500  1.0000
  N   N2        1.0  0.66700  0.33300  0.69500  1.0000
  W   W1        1.0  0.18000  0.09020  0.12800  1.0000
  W   W2        1.0  0.91000  0.09020  0.12800  1.0000
  W   W3        1.0  0.91000  0.81900  0.12800  1.0000
  W   W4        1.0  0.09030  0.18100  0.87200  1.0000
  W   W5        1.0  0.09030  0.91000  0.87200  1.0000
  W   W6        1.0  0.82000  0.91000  0.87200  1.0000
