data_image0
_chemical_formula_structural       Se38Sm20
_chemical_formula_sum              "Se38 Sm20"
_cell_length_a       9.21367
_cell_length_b       9.21367
_cell_length_c       16.8383
_cell_angle_alpha    90
_cell_angle_beta     90
_cell_angle_gamma    90

_space_group_name_H-M_alt    "P 1"
_space_group_IT_number       1

loop_
  _space_group_symop_operation_xyz
  'x, y, z'

loop_
  _atom_site_type_symbol
  _atom_site_label
  _atom_site_symmetry_multiplicity
  _atom_site_fract_x
  _atom_site_fract_y
  _atom_site_fract_z
  _atom_site_occupancy
  Se  Se1       1.0  0.94800  0.65000  0.06320  1.0000
  Se  Se2       1.0  0.55200  0.85000  0.06320  1.0000
  Se  Se3       1.0  0.75000  0.25000  0.06380  1.0000
  Se  Se4       1.0  0.15200  0.04870  0.07020  1.0000
  Se  Se5       1.0  0.34800  0.45100  0.07020  1.0000
  Se  Se6       1.0  0.93700  0.12100  0.24900  1.0000
  Se  Se7       1.0  0.56300  0.37900  0.24900  1.0000
  Se  Se8       1.0  0.67100  0.02960  0.25000  1.0000
  Se  Se9       1.0  0.82900  0.47000  0.25000  1.0000
  Se  Se10      1.0  0.25000  0.25000  0.25000  1.0000
  Se  Se11      1.0  0.47000  0.67100  0.25000  1.0000
  Se  Se12      1.0  0.02960  0.82900  0.25000  1.0000
  Se  Se13      1.0  0.12100  0.56300  0.25100  1.0000
  Se  Se14      1.0  0.37900  0.93700  0.25100  1.0000
  Se  Se15      1.0  0.45100  0.15200  0.43000  1.0000
  Se  Se16      1.0  0.04870  0.34800  0.43000  1.0000
  Se  Se17      1.0  0.25000  0.75000  0.43600  1.0000
  Se  Se18      1.0  0.65000  0.55200  0.43700  1.0000
  Se  Se19      1.0  0.85000  0.94800  0.43700  1.0000
  Se  Se20      1.0  0.15000  0.05230  0.56300  1.0000
  Se  Se21      1.0  0.35000  0.44800  0.56300  1.0000
  Se  Se22      1.0  0.75000  0.25000  0.56400  1.0000
  Se  Se23      1.0  0.95100  0.65200  0.57000  1.0000
  Se  Se24      1.0  0.54900  0.84800  0.57000  1.0000
  Se  Se25      1.0  0.62100  0.06330  0.74900  1.0000
  Se  Se26      1.0  0.87900  0.43700  0.74900  1.0000
  Se  Se27      1.0  0.97000  0.17100  0.75000  1.0000
  Se  Se28      1.0  0.53000  0.32900  0.75000  1.0000
  Se  Se29      1.0  0.75000  0.75000  0.75000  1.0000
  Se  Se30      1.0  0.17100  0.53000  0.75000  1.0000
  Se  Se31      1.0  0.32900  0.97000  0.75000  1.0000
  Se  Se32      1.0  0.43700  0.62100  0.75100  1.0000
  Se  Se33      1.0  0.06330  0.87900  0.75100  1.0000
  Se  Se34      1.0  0.65200  0.54900  0.93000  1.0000
  Se  Se35      1.0  0.84800  0.95100  0.93000  1.0000
  Se  Se36      1.0  0.25000  0.75000  0.93600  1.0000
  Se  Se37      1.0  0.44800  0.15000  0.93700  1.0000
  Se  Se38      1.0  0.05230  0.35000  0.93700  1.0000
  Sm  Sm1       1.0  0.64800  0.55300  0.10700  1.0000
  Sm  Sm2       1.0  0.85200  0.94700  0.10700  1.0000
  Sm  Sm3       1.0  0.25000  0.75000  0.11700  1.0000
  Sm  Sm4       1.0  0.45600  0.15300  0.11900  1.0000
  Sm  Sm5       1.0  0.04370  0.34700  0.11900  1.0000
  Sm  Sm6       1.0  0.15300  0.04370  0.38100  1.0000
  Sm  Sm7       1.0  0.34700  0.45600  0.38100  1.0000
  Sm  Sm8       1.0  0.75000  0.25000  0.38300  1.0000
  Sm  Sm9       1.0  0.94700  0.64800  0.39300  1.0000
  Sm  Sm10      1.0  0.55300  0.85200  0.39300  1.0000
  Sm  Sm11      1.0  0.44700  0.14800  0.60700  1.0000
  Sm  Sm12      1.0  0.05300  0.35200  0.60700  1.0000
  Sm  Sm13      1.0  0.25000  0.75000  0.61700  1.0000
  Sm  Sm14      1.0  0.65300  0.54400  0.61900  1.0000
  Sm  Sm15      1.0  0.84700  0.95600  0.61900  1.0000
  Sm  Sm16      1.0  0.95600  0.65300  0.88100  1.0000
  Sm  Sm17      1.0  0.54400  0.84700  0.88100  1.0000
  Sm  Sm18      1.0  0.75000  0.25000  0.88300  1.0000
  Sm  Sm19      1.0  0.14800  0.05300  0.89300  1.0000
  Sm  Sm20      1.0  0.35200  0.44700  0.89300  1.0000
