data_image0
_chemical_formula_structural       F24K8O16S4Sb8
_chemical_formula_sum              "F24 K8 O16 S4 Sb8"
_cell_length_a       8.91541
_cell_length_b       5.49266
_cell_length_c       18.6402
_cell_angle_alpha    90
_cell_angle_beta     102.962
_cell_angle_gamma    90

_space_group_name_H-M_alt    "P 1"
_space_group_IT_number       1

loop_
  _space_group_symop_operation_xyz
  'x, y, z'

loop_
  _atom_site_type_symbol
  _atom_site_label
  _atom_site_symmetry_multiplicity
  _atom_site_fract_x
  _atom_site_fract_y
  _atom_site_fract_z
  _atom_site_occupancy
  F   F1        1.0  0.70300  0.46000  0.04200  1.0000
  F   F2        1.0  0.40000  0.21600  0.06040  1.0000
  F   F3        1.0  0.76200  0.94400  0.06660  1.0000
  F   F4        1.0  0.62500  0.51400  0.19300  1.0000
  F   F5        1.0  0.56400  0.98400  0.20500  1.0000
  F   F6        1.0  0.85400  0.84800  0.24600  1.0000
  F   F7        1.0  0.14600  0.34800  0.25400  1.0000
  F   F8        1.0  0.43600  0.48400  0.29500  1.0000
  F   F9        1.0  0.37500  0.01440  0.30700  1.0000
  F   F10       1.0  0.23800  0.44400  0.43300  1.0000
  F   F11       1.0  0.60000  0.71600  0.44000  1.0000
  F   F12       1.0  0.29700  0.96000  0.45800  1.0000
  F   F13       1.0  0.70300  0.03960  0.54200  1.0000
  F   F14       1.0  0.40000  0.28400  0.56000  1.0000
  F   F15       1.0  0.76200  0.55600  0.56700  1.0000
  F   F16       1.0  0.62500  0.98600  0.69300  1.0000
  F   F17       1.0  0.56400  0.51600  0.70500  1.0000
  F   F18       1.0  0.85400  0.65200  0.74600  1.0000
  F   F19       1.0  0.14600  0.15200  0.75400  1.0000
  F   F20       1.0  0.43600  0.01560  0.79500  1.0000
  F   F21       1.0  0.37500  0.48600  0.80700  1.0000
  F   F22       1.0  0.23800  0.05580  0.93300  1.0000
  F   F23       1.0  0.60000  0.78400  0.94000  1.0000
  F   F24       1.0  0.29700  0.54000  0.95800  1.0000
  K   K1        1.0  0.48600  0.75600  0.07180  1.0000
  K   K2        1.0  0.85600  0.25300  0.17400  1.0000
  K   K3        1.0  0.14400  0.75300  0.32600  1.0000
  K   K4        1.0  0.51400  0.25600  0.42800  1.0000
  K   K5        1.0  0.48600  0.74400  0.57200  1.0000
  K   K6        1.0  0.85600  0.24700  0.67400  1.0000
  K   K7        1.0  0.14400  0.74700  0.82600  1.0000
  K   K8        1.0  0.51400  0.24400  0.92800  1.0000
  O   O1        1.0  0.13100  0.88100  0.05020  1.0000
  O   O2        1.0  0.99200  0.59700  0.10900  1.0000
  O   O3        1.0  0.27200  0.61200  0.14400  1.0000
  O   O4        1.0  0.12000  0.94100  0.17900  1.0000
  O   O5        1.0  0.88000  0.44100  0.32100  1.0000
  O   O6        1.0  0.72800  0.11200  0.35600  1.0000
  O   O7        1.0  0.00834  0.09700  0.39100  1.0000
  O   O8        1.0  0.86900  0.38100  0.45000  1.0000
  O   O9        1.0  0.13100  0.61900  0.55000  1.0000
  O   O10       1.0  0.99200  0.90300  0.60900  1.0000
  O   O11       1.0  0.27200  0.88800  0.64400  1.0000
  O   O12       1.0  0.12000  0.55900  0.67900  1.0000
  O   O13       1.0  0.88000  0.05890  0.82100  1.0000
  O   O14       1.0  0.72800  0.38800  0.85600  1.0000
  O   O15       1.0  0.00834  0.40300  0.89100  1.0000
  O   O16       1.0  0.86900  0.11900  0.95000  1.0000
  S   S1        1.0  0.12900  0.76000  0.12200  1.0000
  S   S2        1.0  0.87100  0.26000  0.37800  1.0000
  S   S3        1.0  0.12900  0.74000  0.62200  1.0000
  S   S4        1.0  0.87100  0.24000  0.87800  1.0000
  Sb  Sb1       1.0  0.18400  0.28900  0.00313  1.0000
  Sb  Sb2       1.0  0.33000  0.23900  0.22000  1.0000
  Sb  Sb3       1.0  0.67000  0.73900  0.28000  1.0000
  Sb  Sb4       1.0  0.81600  0.78900  0.49700  1.0000
  Sb  Sb5       1.0  0.18400  0.21100  0.50300  1.0000
  Sb  Sb6       1.0  0.33000  0.26100  0.72000  1.0000
  Sb  Sb7       1.0  0.67000  0.76100  0.78000  1.0000
  Sb  Sb8       1.0  0.81600  0.71100  0.99700  1.0000
