data_image0
_chemical_formula_structural       As2H24NiO24U2
_chemical_formula_sum              "As2 H24 Ni1 O24 U2"
_cell_length_a       6.94974
_cell_length_b       6.96919
_cell_length_c       10.6729
_cell_angle_alpha    81.8516
_cell_angle_beta     82.1369
_cell_angle_gamma    88.8323

_space_group_name_H-M_alt    "P 1"
_space_group_IT_number       1

loop_
  _space_group_symop_operation_xyz
  'x, y, z'

loop_
  _atom_site_type_symbol
  _atom_site_label
  _atom_site_symmetry_multiplicity
  _atom_site_fract_x
  _atom_site_fract_y
  _atom_site_fract_z
  _atom_site_occupancy
  As  As1       1.0  0.26300  0.24100  0.00440  1.0000
  As  As2       1.0  0.73700  0.75900  0.99600  1.0000
  H   H1        1.0  0.81400  0.54200  0.23300  1.0000
  H   H2        1.0  0.56400  0.90900  0.23300  1.0000
  H   H3        1.0  0.05430  0.11000  0.24300  1.0000
  H   H4        1.0  0.38500  0.34200  0.26100  1.0000
  H   H5        1.0  0.53300  0.08980  0.31600  1.0000
  H   H6        1.0  0.92500  0.26600  0.32000  1.0000
  H   H7        1.0  0.56400  0.37800  0.33700  1.0000
  H   H8        1.0  0.81000  0.56100  0.37900  1.0000
  H   H9        1.0  0.73400  0.85400  0.39500  1.0000
  H   H10       1.0  0.18900  0.74000  0.40300  1.0000
  H   H11       1.0  0.35900  0.87700  0.41000  1.0000
  H   H12       1.0  0.26800  0.26000  0.46600  1.0000
  H   H13       1.0  0.73200  0.74000  0.53400  1.0000
  H   H14       1.0  0.64100  0.12300  0.59000  1.0000
  H   H15       1.0  0.81100  0.26000  0.59700  1.0000
  H   H16       1.0  0.26600  0.14600  0.60500  1.0000
  H   H17       1.0  0.19000  0.43900  0.62100  1.0000
  H   H18       1.0  0.43600  0.62200  0.66300  1.0000
  H   H19       1.0  0.07540  0.73400  0.68000  1.0000
  H   H20       1.0  0.46700  0.91000  0.68400  1.0000
  H   H21       1.0  0.61500  0.65800  0.73900  1.0000
  H   H22       1.0  0.94600  0.89000  0.75700  1.0000
  H   H23       1.0  0.43600  0.09070  0.76700  1.0000
  H   H24       1.0  0.18600  0.45800  0.76700  1.0000
  Ni  Ni1       1.0  0.00000  0.00000  0.50000  1.0000
  O   O1        1.0  0.73600  0.23300  0.08730  1.0000
  O   O2        1.0  0.90100  0.65200  0.08880  1.0000
  O   O3        1.0  0.53900  0.81200  0.09860  1.0000
  O   O4        1.0  0.16000  0.04170  0.09990  1.0000
  O   O5        1.0  0.32400  0.40000  0.10000  1.0000
  O   O6        1.0  0.18100  0.67000  0.25400  1.0000
  O   O7        1.0  0.56200  0.94600  0.32000  1.0000
  O   O8        1.0  0.78000  0.47000  0.32000  1.0000
  O   O9        1.0  0.02170  0.15900  0.32600  1.0000
  O   O10       1.0  0.44200  0.30000  0.34000  1.0000
  O   O11       1.0  0.82300  0.78200  0.45300  1.0000
  O   O12       1.0  0.23300  0.82600  0.45900  1.0000
  O   O13       1.0  0.76700  0.17400  0.54100  1.0000
  O   O14       1.0  0.17700  0.21800  0.54700  1.0000
  O   O15       1.0  0.55800  0.70000  0.66000  1.0000
  O   O16       1.0  0.97800  0.84100  0.67400  1.0000
  O   O17       1.0  0.22000  0.53000  0.68000  1.0000
  O   O18       1.0  0.43800  0.05360  0.68000  1.0000
  O   O19       1.0  0.81900  0.33000  0.74600  1.0000
  O   O20       1.0  0.67600  0.60000  0.90000  1.0000
  O   O21       1.0  0.84000  0.95800  0.90000  1.0000
  O   O22       1.0  0.46100  0.18800  0.90100  1.0000
  O   O23       1.0  0.09850  0.34800  0.91100  1.0000
  O   O24       1.0  0.26400  0.76700  0.91300  1.0000
  U   U1        1.0  0.22400  0.71900  0.08330  1.0000
  U   U2        1.0  0.77600  0.28100  0.91700  1.0000
