data_image0
_chemical_formula_structural       Cd4K8N16O32
_chemical_formula_sum              "Cd4 K8 N16 O32"
_cell_length_a       11.7758
_cell_length_b       11.6359
_cell_length_c       6.29216
_cell_angle_alpha    90
_cell_angle_beta     90
_cell_angle_gamma    90

_space_group_name_H-M_alt    "P 1"
_space_group_IT_number       1

loop_
  _space_group_symop_operation_xyz
  'x, y, z'

loop_
  _atom_site_type_symbol
  _atom_site_label
  _atom_site_symmetry_multiplicity
  _atom_site_fract_x
  _atom_site_fract_y
  _atom_site_fract_z
  _atom_site_occupancy
  Cd  Cd1       1.0  0.98600  0.75000  0.00260  1.0000
  Cd  Cd2       1.0  0.48600  0.75000  0.49700  1.0000
  Cd  Cd3       1.0  0.51400  0.25000  0.50300  1.0000
  Cd  Cd4       1.0  0.01440  0.25000  0.99700  1.0000
  K   K1        1.0  0.64500  0.50700  0.09360  1.0000
  K   K2        1.0  0.64500  0.99300  0.09360  1.0000
  K   K3        1.0  0.14500  0.50700  0.40600  1.0000
  K   K4        1.0  0.14500  0.99300  0.40600  1.0000
  K   K5        1.0  0.85500  0.00686  0.59400  1.0000
  K   K6        1.0  0.85500  0.49300  0.59400  1.0000
  K   K7        1.0  0.35500  0.00686  0.90600  1.0000
  K   K8        1.0  0.35500  0.49300  0.90600  1.0000
  N   N1        1.0  0.43600  0.75000  0.04720  1.0000
  N   N2        1.0  0.25800  0.25000  0.08190  1.0000
  N   N3        1.0  0.87000  0.06280  0.13300  1.0000
  N   N4        1.0  0.87000  0.43700  0.13300  1.0000
  N   N5        1.0  0.37000  0.06280  0.36700  1.0000
  N   N6        1.0  0.37000  0.43700  0.36700  1.0000
  N   N7        1.0  0.75800  0.25000  0.41800  1.0000
  N   N8        1.0  0.93600  0.75000  0.45300  1.0000
  N   N9        1.0  0.06390  0.25000  0.54700  1.0000
  N   N10       1.0  0.24200  0.75000  0.58200  1.0000
  N   N11       1.0  0.63000  0.56300  0.63300  1.0000
  N   N12       1.0  0.63000  0.93700  0.63300  1.0000
  N   N13       1.0  0.13000  0.56300  0.86700  1.0000
  N   N14       1.0  0.13000  0.93700  0.86700  1.0000
  N   N15       1.0  0.74200  0.75000  0.91800  1.0000
  N   N16       1.0  0.56400  0.25000  0.95300  1.0000
  O   O1        1.0  0.15600  0.61900  0.03160  1.0000
  O   O2        1.0  0.15600  0.88100  0.03160  1.0000
  O   O3        1.0  0.19900  0.15900  0.06790  1.0000
  O   O4        1.0  0.19900  0.34100  0.06790  1.0000
  O   O5        1.0  0.45100  0.65900  0.15300  1.0000
  O   O6        1.0  0.45100  0.84100  0.15300  1.0000
  O   O7        1.0  0.96200  0.09550  0.22100  1.0000
  O   O8        1.0  0.96200  0.40500  0.22100  1.0000
  O   O9        1.0  0.46200  0.09550  0.27900  1.0000
  O   O10       1.0  0.46200  0.40500  0.27900  1.0000
  O   O11       1.0  0.95100  0.65900  0.34700  1.0000
  O   O12       1.0  0.95100  0.84100  0.34700  1.0000
  O   O13       1.0  0.69900  0.15900  0.43200  1.0000
  O   O14       1.0  0.69900  0.34100  0.43200  1.0000
  O   O15       1.0  0.65600  0.61900  0.46800  1.0000
  O   O16       1.0  0.65600  0.88100  0.46800  1.0000
  O   O17       1.0  0.34400  0.11900  0.53200  1.0000
  O   O18       1.0  0.34400  0.38100  0.53200  1.0000
  O   O19       1.0  0.30100  0.65900  0.56800  1.0000
  O   O20       1.0  0.30100  0.84100  0.56800  1.0000
  O   O21       1.0  0.04920  0.15900  0.65300  1.0000
  O   O22       1.0  0.04920  0.34100  0.65300  1.0000
  O   O23       1.0  0.53800  0.59500  0.72100  1.0000
  O   O24       1.0  0.53800  0.90500  0.72100  1.0000
  O   O25       1.0  0.03790  0.59500  0.77900  1.0000
  O   O26       1.0  0.03790  0.90500  0.77900  1.0000
  O   O27       1.0  0.54900  0.15900  0.84700  1.0000
  O   O28       1.0  0.54900  0.34100  0.84700  1.0000
  O   O29       1.0  0.80100  0.65900  0.93200  1.0000
  O   O30       1.0  0.80100  0.84100  0.93200  1.0000
  O   O31       1.0  0.84400  0.11900  0.96800  1.0000
  O   O32       1.0  0.84400  0.38100  0.96800  1.0000
