data_image0
_chemical_formula_structural       Cu4H20I4O28
_chemical_formula_sum              "Cu4 H20 I4 O28"
_cell_length_a       4.99673
_cell_length_b       5.86498
_cell_length_c       18.1508
_cell_angle_alpha    90.0002
_cell_angle_beta     89.9929
_cell_angle_gamma    89.9564

_space_group_name_H-M_alt    "P 1"
_space_group_IT_number       1

loop_
  _space_group_symop_operation_xyz
  'x, y, z'

loop_
  _atom_site_type_symbol
  _atom_site_label
  _atom_site_symmetry_multiplicity
  _atom_site_fract_x
  _atom_site_fract_y
  _atom_site_fract_z
  _atom_site_occupancy
  Cu  Cu1       1.0  0.36300  0.11700  0.04950  1.0000
  Cu  Cu2       1.0  0.63800  0.61700  0.45100  1.0000
  Cu  Cu3       1.0  0.13700  0.88300  0.54900  1.0000
  Cu  Cu4       1.0  0.86200  0.38300  0.95100  1.0000
  H   H1        1.0  0.01300  0.70600  0.02730  1.0000
  H   H2        1.0  0.53700  0.51000  0.04430  1.0000
  H   H3        1.0  0.56200  0.77600  0.13600  1.0000
  H   H4        1.0  0.95200  0.74300  0.21500  1.0000
  H   H5        1.0  0.54800  0.81300  0.22200  1.0000
  H   H6        1.0  0.45200  0.31300  0.27800  1.0000
  H   H7        1.0  0.04800  0.24300  0.28500  1.0000
  H   H8        1.0  0.43800  0.27600  0.36400  1.0000
  H   H9        1.0  0.46300  0.01020  0.45600  1.0000
  H   H10       1.0  0.98700  0.20600  0.47300  1.0000
  H   H11       1.0  0.48700  0.29400  0.52700  1.0000
  H   H12       1.0  0.96300  0.49000  0.54400  1.0000
  H   H13       1.0  0.93800  0.22400  0.63600  1.0000
  H   H14       1.0  0.54800  0.25700  0.71500  1.0000
  H   H15       1.0  0.95200  0.18700  0.72200  1.0000
  H   H16       1.0  0.04750  0.68700  0.77800  1.0000
  H   H17       1.0  0.45200  0.75700  0.78500  1.0000
  H   H18       1.0  0.06180  0.72400  0.86400  1.0000
  H   H19       1.0  0.03690  0.98900  0.95600  1.0000
  H   H20       1.0  0.51300  0.79400  0.97300  1.0000
  I   I1        1.0  0.88000  0.27500  0.15700  1.0000
  I   I2        1.0  0.12000  0.77500  0.34300  1.0000
  I   I3        1.0  0.62000  0.72500  0.65700  1.0000
  I   I4        1.0  0.38000  0.22500  0.84300  1.0000
  O   O1        1.0  0.61900  0.36100  0.03310  1.0000
  O   O2        1.0  0.37700  0.78400  0.05420  1.0000
  O   O3        1.0  0.12600  0.67300  0.07230  1.0000
  O   O4        1.0  0.31700  0.16200  0.15500  1.0000
  O   O5        1.0  0.48700  0.35200  0.17800  1.0000
  O   O6        1.0  0.67300  0.79400  0.18000  1.0000
  O   O7        1.0  0.11000  0.67100  0.24200  1.0000
  O   O8        1.0  0.89000  0.17100  0.25800  1.0000
  O   O9        1.0  0.32700  0.29400  0.32000  1.0000
  O   O10       1.0  0.51200  0.85200  0.32200  1.0000
  O   O11       1.0  0.68300  0.66200  0.34500  1.0000
  O   O12       1.0  0.87400  0.17200  0.42800  1.0000
  O   O13       1.0  0.62300  0.28400  0.44600  1.0000
  O   O14       1.0  0.38000  0.86100  0.46700  1.0000
  O   O15       1.0  0.88100  0.63900  0.53300  1.0000
  O   O16       1.0  0.12300  0.21500  0.55400  1.0000
  O   O17       1.0  0.37400  0.32700  0.57200  1.0000
  O   O18       1.0  0.18300  0.83800  0.65500  1.0000
  O   O19       1.0  0.01270  0.64800  0.67800  1.0000
  O   O20       1.0  0.82700  0.20600  0.68000  1.0000
  O   O21       1.0  0.39000  0.33000  0.74200  1.0000
  O   O22       1.0  0.61000  0.83000  0.75800  1.0000
  O   O23       1.0  0.17200  0.70600  0.82000  1.0000
  O   O24       1.0  0.98700  0.14800  0.82200  1.0000
  O   O25       1.0  0.81700  0.33800  0.84500  1.0000
  O   O26       1.0  0.62600  0.82700  0.92800  1.0000
  O   O27       1.0  0.87700  0.71500  0.94600  1.0000
  O   O28       1.0  0.12000  0.13900  0.96700  1.0000
