data_image0
_chemical_formula_structural       Cr4I8O40Th4
_chemical_formula_sum              "Cr4 I8 O40 Th4"
_cell_length_a       7.27331
_cell_length_b       9.37349
_cell_length_c       11.7731
_cell_angle_alpha    90
_cell_angle_beta     90
_cell_angle_gamma    90

_space_group_name_H-M_alt    "P 1"
_space_group_IT_number       1

loop_
  _space_group_symop_operation_xyz
  'x, y, z'

loop_
  _atom_site_type_symbol
  _atom_site_label
  _atom_site_symmetry_multiplicity
  _atom_site_fract_x
  _atom_site_fract_y
  _atom_site_fract_z
  _atom_site_occupancy
  Cr  Cr1       1.0  0.20000  0.05370  0.19400  1.0000
  Cr  Cr2       1.0  0.80000  0.55400  0.30600  1.0000
  Cr  Cr3       1.0  0.30000  0.94600  0.69400  1.0000
  Cr  Cr4       1.0  0.70000  0.44600  0.80600  1.0000
  I   I1        1.0  0.65200  0.73800  0.03710  1.0000
  I   I2        1.0  0.73000  0.26500  0.07630  1.0000
  I   I3        1.0  0.27000  0.76500  0.42400  1.0000
  I   I4        1.0  0.34800  0.23800  0.46300  1.0000
  I   I5        1.0  0.84800  0.26200  0.53700  1.0000
  I   I6        1.0  0.77000  0.73500  0.57600  1.0000
  I   I7        1.0  0.23000  0.23500  0.92400  1.0000
  I   I8        1.0  0.15200  0.76200  0.96300  1.0000
  O   O1        1.0  0.67400  0.09570  0.00873  1.0000
  O   O2        1.0  0.42200  0.64600  0.04070  1.0000
  O   O3        1.0  0.49200  0.32700  0.06770  1.0000
  O   O4        1.0  0.26300  0.98900  0.07030  1.0000
  O   O5        1.0  0.06870  0.65100  0.08020  1.0000
  O   O6        1.0  0.61800  0.86000  0.15700  1.0000
  O   O7        1.0  0.15300  0.22500  0.17400  1.0000
  O   O8        1.0  0.63000  0.53700  0.21100  1.0000
  O   O9        1.0  0.72700  0.20100  0.22200  1.0000
  O   O10       1.0  0.01310  0.96800  0.23900  1.0000
  O   O11       1.0  0.98700  0.46800  0.26100  1.0000
  O   O12       1.0  0.27300  0.70100  0.27800  1.0000
  O   O13       1.0  0.37000  0.03660  0.28900  1.0000
  O   O14       1.0  0.84700  0.72500  0.32600  1.0000
  O   O15       1.0  0.38200  0.36000  0.34300  1.0000
  O   O16       1.0  0.93100  0.15100  0.42000  1.0000
  O   O17       1.0  0.73700  0.48900  0.43000  1.0000
  O   O18       1.0  0.50800  0.82700  0.43200  1.0000
  O   O19       1.0  0.57800  0.14600  0.45900  1.0000
  O   O20       1.0  0.32600  0.59600  0.49100  1.0000
  O   O21       1.0  0.82600  0.90400  0.50900  1.0000
  O   O22       1.0  0.07810  0.35400  0.54100  1.0000
  O   O23       1.0  0.00837  0.67300  0.56800  1.0000
  O   O24       1.0  0.23700  0.01130  0.57000  1.0000
  O   O25       1.0  0.43100  0.34900  0.58000  1.0000
  O   O26       1.0  0.88200  0.14000  0.65700  1.0000
  O   O27       1.0  0.34700  0.77500  0.67400  1.0000
  O   O28       1.0  0.87000  0.46300  0.71100  1.0000
  O   O29       1.0  0.77300  0.79900  0.72200  1.0000
  O   O30       1.0  0.48700  0.03230  0.73900  1.0000
  O   O31       1.0  0.51300  0.53200  0.76100  1.0000
  O   O32       1.0  0.22700  0.29900  0.77800  1.0000
  O   O33       1.0  0.13000  0.96300  0.78900  1.0000
  O   O34       1.0  0.65300  0.27500  0.82600  1.0000
  O   O35       1.0  0.11800  0.64000  0.84300  1.0000
  O   O36       1.0  0.56900  0.84900  0.92000  1.0000
  O   O37       1.0  0.76300  0.51100  0.93000  1.0000
  O   O38       1.0  0.99200  0.17300  0.93200  1.0000
  O   O39       1.0  0.92200  0.85400  0.95900  1.0000
  O   O40       1.0  0.17400  0.40400  0.99100  1.0000
  Th  Th1       1.0  0.28600  0.48000  0.17700  1.0000
  Th  Th2       1.0  0.71400  0.98000  0.32300  1.0000
  Th  Th3       1.0  0.21400  0.52000  0.67700  1.0000
  Th  Th4       1.0  0.78600  0.02000  0.82300  1.0000
