data_image0
_chemical_formula_structural       Li6Mo12O39
_chemical_formula_sum              "Li6 Mo12 O39"
_cell_length_a       8.55015
_cell_length_b       11.3178
_cell_length_c       8.22388
_cell_angle_alpha    109.616
_cell_angle_beta     95.7607
_cell_angle_gamma    95.9389

_space_group_name_H-M_alt    "P 1"
_space_group_IT_number       1

loop_
  _space_group_symop_operation_xyz
  'x, y, z'

loop_
  _atom_site_type_symbol
  _atom_site_label
  _atom_site_symmetry_multiplicity
  _atom_site_fract_x
  _atom_site_fract_y
  _atom_site_fract_z
  _atom_site_occupancy
  Li  Li1       1.0  0.08450  0.62800  0.18000  1.0000
  Li  Li2       1.0  0.88300  0.37800  0.22300  1.0000
  Li  Li3       1.0  0.51100  0.00000  0.30300  1.0000
  Li  Li4       1.0  0.48900  0.00000  0.69700  1.0000
  Li  Li5       1.0  0.11700  0.62200  0.77700  1.0000
  Li  Li6       1.0  0.91500  0.37200  0.82000  1.0000
  Mo  Mo1       1.0  0.81900  0.03340  0.04450  1.0000
  Mo  Mo2       1.0  0.43600  0.64000  0.11500  1.0000
  Mo  Mo3       1.0  0.22800  0.36400  0.14200  1.0000
  Mo  Mo4       1.0  0.16200  0.97100  0.35600  1.0000
  Mo  Mo5       1.0  0.79300  0.64000  0.46500  1.0000
  Mo  Mo6       1.0  0.58200  0.36100  0.49100  1.0000
  Mo  Mo7       1.0  0.41800  0.63900  0.50900  1.0000
  Mo  Mo8       1.0  0.20700  0.36000  0.53500  1.0000
  Mo  Mo9       1.0  0.83800  0.02930  0.64400  1.0000
  Mo  Mo10      1.0  0.77200  0.63600  0.85800  1.0000
  Mo  Mo11      1.0  0.56400  0.36000  0.88500  1.0000
  Mo  Mo12      1.0  0.18100  0.96700  0.95600  1.0000
  O   O1        1.0  0.07390  0.39900  0.01910  1.0000
  O   O2        1.0  0.73300  0.38800  0.03510  1.0000
  O   O3        1.0  0.40700  0.41400  0.03520  1.0000
  O   O4        1.0  0.21900  0.20200  0.06510  1.0000
  O   O5        1.0  0.85500  0.19800  0.12400  1.0000
  O   O6        1.0  0.66400  0.99700  0.14700  1.0000
  O   O7        1.0  0.00301  0.99300  0.15200  1.0000
  O   O8        1.0  0.29300  0.00378  0.18600  1.0000
  O   O9        1.0  0.48100  0.80100  0.20000  1.0000
  O   O10       1.0  0.13000  0.80700  0.27600  1.0000
  O   O11       1.0  0.29500  0.59200  0.27700  1.0000
  O   O12       1.0  0.92700  0.59400  0.31800  1.0000
  O   O13       1.0  0.58800  0.61600  0.32900  1.0000
  O   O14       1.0  0.10500  0.38800  0.33400  1.0000
  O   O15       1.0  0.39800  0.39900  0.37400  1.0000
  O   O16       1.0  0.73200  0.42000  0.39200  1.0000
  O   O17       1.0  0.56700  0.20000  0.40700  1.0000
  O   O18       1.0  0.17400  0.19600  0.45200  1.0000
  O   O19       1.0  0.66700  0.99200  0.49300  1.0000
  O   O20       1.0  0.00000  0.00000  0.50000  1.0000
  O   O21       1.0  0.33300  0.00808  0.50700  1.0000
  O   O22       1.0  0.82600  0.80400  0.54800  1.0000
  O   O23       1.0  0.43300  0.80000  0.59300  1.0000
  O   O24       1.0  0.26800  0.58000  0.60800  1.0000
  O   O25       1.0  0.60200  0.60100  0.62600  1.0000
  O   O26       1.0  0.89500  0.61200  0.66600  1.0000
  O   O27       1.0  0.41200  0.38400  0.67100  1.0000
  O   O28       1.0  0.07260  0.40600  0.68200  1.0000
  O   O29       1.0  0.70500  0.40800  0.72300  1.0000
  O   O30       1.0  0.87000  0.19300  0.72400  1.0000
  O   O31       1.0  0.51900  0.19900  0.80000  1.0000
  O   O32       1.0  0.70700  0.99600  0.81400  1.0000
  O   O33       1.0  0.99700  0.00725  0.84800  1.0000
  O   O34       1.0  0.33600  0.00280  0.85300  1.0000
  O   O35       1.0  0.14500  0.80200  0.87600  1.0000
  O   O36       1.0  0.78100  0.79800  0.93500  1.0000
  O   O37       1.0  0.59300  0.58600  0.96500  1.0000
  O   O38       1.0  0.26700  0.61200  0.96500  1.0000
  O   O39       1.0  0.92600  0.60100  0.98100  1.0000
