data_image0
_chemical_formula_structural       Ag32S24Sn4
_chemical_formula_sum              "Ag32 S24 Sn4"
_cell_length_a       15.4644
_cell_length_b       7.667
_cell_length_c       10.8467
_cell_angle_alpha    90
_cell_angle_beta     90
_cell_angle_gamma    90

_space_group_name_H-M_alt    "P 1"
_space_group_IT_number       1

loop_
  _space_group_symop_operation_xyz
  'x, y, z'

loop_
  _atom_site_type_symbol
  _atom_site_label
  _atom_site_symmetry_multiplicity
  _atom_site_fract_x
  _atom_site_fract_y
  _atom_site_fract_z
  _atom_site_occupancy
  Ag  Ag1       1.0  0.43300  0.06100  0.01400  1.0000
  Ag  Ag2       1.0  0.93300  0.43900  0.01400  1.0000
  Ag  Ag3       1.0  0.27300  0.50600  0.09630  1.0000
  Ag  Ag4       1.0  0.77300  0.99400  0.09630  1.0000
  Ag  Ag5       1.0  0.47900  0.51500  0.11000  1.0000
  Ag  Ag6       1.0  0.97900  0.98500  0.11000  1.0000
  Ag  Ag7       1.0  0.72500  0.62700  0.18600  1.0000
  Ag  Ag8       1.0  0.22500  0.87300  0.18600  1.0000
  Ag  Ag9       1.0  0.09020  0.59500  0.19900  1.0000
  Ag  Ag10      1.0  0.59000  0.90500  0.19900  1.0000
  Ag  Ag11      1.0  0.44100  0.73100  0.33200  1.0000
  Ag  Ag12      1.0  0.94100  0.76900  0.33200  1.0000
  Ag  Ag13      1.0  0.62800  0.24600  0.37500  1.0000
  Ag  Ag14      1.0  0.12800  0.25400  0.37500  1.0000
  Ag  Ag15      1.0  0.24200  0.64200  0.41400  1.0000
  Ag  Ag16      1.0  0.74200  0.85800  0.41400  1.0000
  Ag  Ag17      1.0  0.06660  0.56100  0.51400  1.0000
  Ag  Ag18      1.0  0.56700  0.93900  0.51400  1.0000
  Ag  Ag19      1.0  0.22700  0.00614  0.59600  1.0000
  Ag  Ag20      1.0  0.72700  0.49400  0.59600  1.0000
  Ag  Ag21      1.0  0.02140  0.01520  0.61000  1.0000
  Ag  Ag22      1.0  0.52100  0.48500  0.61000  1.0000
  Ag  Ag23      1.0  0.77500  0.12700  0.68600  1.0000
  Ag  Ag24      1.0  0.27500  0.37300  0.68600  1.0000
  Ag  Ag25      1.0  0.41000  0.09520  0.69900  1.0000
  Ag  Ag26      1.0  0.91000  0.40500  0.69900  1.0000
  Ag  Ag27      1.0  0.05940  0.23100  0.83200  1.0000
  Ag  Ag28      1.0  0.55900  0.26900  0.83200  1.0000
  Ag  Ag29      1.0  0.87200  0.74600  0.87500  1.0000
  Ag  Ag30      1.0  0.37200  0.75400  0.87500  1.0000
  Ag  Ag31      1.0  0.25800  0.14200  0.91400  1.0000
  Ag  Ag32      1.0  0.75800  0.35800  0.91400  1.0000
  S   S1        1.0  0.87500  0.73300  0.10700  1.0000
  S   S2        1.0  0.37500  0.76700  0.10700  1.0000
  S   S3        1.0  0.50100  0.22800  0.21800  1.0000
  S   S4        1.0  0.00129  0.27200  0.21800  1.0000
  S   S5        1.0  0.24900  0.22100  0.21900  1.0000
  S   S6        1.0  0.74900  0.27900  0.21900  1.0000
  S   S7        1.0  0.61300  0.68800  0.36600  1.0000
  S   S8        1.0  0.11300  0.81200  0.36600  1.0000
  S   S9        1.0  0.87300  0.01310  0.48000  1.0000
  S   S10       1.0  0.37300  0.48700  0.48000  1.0000
  S   S11       1.0  0.88000  0.52000  0.48400  1.0000
  S   S12       1.0  0.38000  0.98000  0.48400  1.0000
  S   S13       1.0  0.62500  0.23300  0.60700  1.0000
  S   S14       1.0  0.12500  0.26700  0.60700  1.0000
  S   S15       1.0  0.99900  0.72800  0.71800  1.0000
  S   S16       1.0  0.49900  0.77200  0.71800  1.0000
  S   S17       1.0  0.25100  0.72100  0.71900  1.0000
  S   S18       1.0  0.75100  0.77900  0.71900  1.0000
  S   S19       1.0  0.88700  0.18800  0.86600  1.0000
  S   S20       1.0  0.38700  0.31200  0.86600  1.0000
  S   S21       1.0  0.62700  0.51300  0.98000  1.0000
  S   S22       1.0  0.12700  0.98700  0.98000  1.0000
  S   S23       1.0  0.62000  0.02050  0.98400  1.0000
  S   S24       1.0  0.12000  0.48000  0.98400  1.0000
  Sn  Sn1       1.0  0.37500  0.23000  0.34900  1.0000
  Sn  Sn2       1.0  0.87500  0.27000  0.34900  1.0000
  Sn  Sn3       1.0  0.12500  0.73000  0.84900  1.0000
  Sn  Sn4       1.0  0.62500  0.77000  0.84900  1.0000
