data_image0
_chemical_formula_structural       Ag6Mo10O33
_chemical_formula_sum              "Ag6 Mo10 O33"
_cell_length_a       7.50866
_cell_length_b       8.11277
_cell_length_c       11.3292
_cell_angle_alpha    85.1016
_cell_angle_beta     102.93
_cell_angle_gamma    103.988

_space_group_name_H-M_alt    "P 1"
_space_group_IT_number       1

loop_
  _space_group_symop_operation_xyz
  'x, y, z'

loop_
  _atom_site_type_symbol
  _atom_site_label
  _atom_site_symmetry_multiplicity
  _atom_site_fract_x
  _atom_site_fract_y
  _atom_site_fract_z
  _atom_site_occupancy
  Ag  Ag1       1.0  0.77400  0.46700  0.21400  1.0000
  Ag  Ag2       1.0  0.21100  0.46300  0.23600  1.0000
  Ag  Ag3       1.0  0.64500  0.99200  0.24800  1.0000
  Ag  Ag4       1.0  0.35500  0.00756  0.75200  1.0000
  Ag  Ag5       1.0  0.78900  0.53700  0.76400  1.0000
  Ag  Ag6       1.0  0.22600  0.53300  0.78600  1.0000
  Mo  Mo1       1.0  0.28700  0.21100  0.01580  1.0000
  Mo  Mo2       1.0  0.16000  0.80300  0.01960  1.0000
  Mo  Mo3       1.0  0.18400  0.99500  0.31600  1.0000
  Mo  Mo4       1.0  0.56100  0.23400  0.49200  1.0000
  Mo  Mo5       1.0  0.06530  0.23300  0.49900  1.0000
  Mo  Mo6       1.0  0.93500  0.76700  0.50100  1.0000
  Mo  Mo7       1.0  0.43900  0.76600  0.50800  1.0000
  Mo  Mo8       1.0  0.81600  0.00494  0.68400  1.0000
  Mo  Mo9       1.0  0.84000  0.19700  0.98000  1.0000
  Mo  Mo10      1.0  0.71300  0.78900  0.98400  1.0000
  O   O1        1.0  0.00000  0.00000  0.00000  1.0000
  O   O2        1.0  0.90700  0.66500  0.00711  1.0000
  O   O3        1.0  0.35600  0.00128  0.07640  1.0000
  O   O4        1.0  0.48200  0.35800  0.08590  1.0000
  O   O5        1.0  0.28000  0.65400  0.09710  1.0000
  O   O6        1.0  0.81100  0.20200  0.13000  1.0000
  O   O7        1.0  0.68800  0.79000  0.13400  1.0000
  O   O8        1.0  0.20900  0.17400  0.21600  1.0000
  O   O9        1.0  0.10700  0.82300  0.22000  1.0000
  O   O10       1.0  0.57500  0.33800  0.35300  1.0000
  O   O11       1.0  0.02740  0.37100  0.37300  1.0000
  O   O12       1.0  0.96500  0.00048  0.37600  1.0000
  O   O13       1.0  0.44800  0.98600  0.37700  1.0000
  O   O14       1.0  0.82900  0.64000  0.37900  1.0000
  O   O15       1.0  0.39500  0.60800  0.40500  1.0000
  O   O16       1.0  0.28800  0.17200  0.47300  1.0000
  O   O17       1.0  0.19300  0.82200  0.48000  1.0000
  O   O18       1.0  0.80700  0.17800  0.52000  1.0000
  O   O19       1.0  0.71200  0.82800  0.52700  1.0000
  O   O20       1.0  0.60500  0.39200  0.59500  1.0000
  O   O21       1.0  0.17100  0.36000  0.62100  1.0000
  O   O22       1.0  0.55200  0.01390  0.62300  1.0000
  O   O23       1.0  0.03490  0.00000  0.62400  1.0000
  O   O24       1.0  0.97300  0.62900  0.62700  1.0000
  O   O25       1.0  0.42500  0.66200  0.64700  1.0000
  O   O26       1.0  0.89300  0.17700  0.78000  1.0000
  O   O27       1.0  0.79100  0.82600  0.78400  1.0000
  O   O28       1.0  0.31200  0.21000  0.86600  1.0000
  O   O29       1.0  0.18900  0.79800  0.87000  1.0000
  O   O30       1.0  0.72000  0.34600  0.90300  1.0000
  O   O31       1.0  0.51800  0.64200  0.91400  1.0000
  O   O32       1.0  0.64400  0.99900  0.92400  1.0000
  O   O33       1.0  0.09290  0.33500  0.99300  1.0000
