data_image0
_chemical_formula_structural       Cl8H32Mg4O16
_chemical_formula_sum              "Cl8 H32 Mg4 O16"
_cell_length_a       6.89593
_cell_length_b       8.29819
_cell_length_c       10.7892
_cell_angle_alpha    90
_cell_angle_beta     90
_cell_angle_gamma    90

_space_group_name_H-M_alt    "P 1"
_space_group_IT_number       1

loop_
  _space_group_symop_operation_xyz
  'x, y, z'

loop_
  _atom_site_type_symbol
  _atom_site_label
  _atom_site_symmetry_multiplicity
  _atom_site_fract_x
  _atom_site_fract_y
  _atom_site_fract_z
  _atom_site_occupancy
  Cl  Cl1       1.0  0.27700  0.37800  0.09300  1.0000
  Cl  Cl2       1.0  0.22300  0.87800  0.09300  1.0000
  Cl  Cl3       1.0  0.72300  0.37800  0.40700  1.0000
  Cl  Cl4       1.0  0.77700  0.87800  0.40700  1.0000
  Cl  Cl5       1.0  0.22300  0.12200  0.59300  1.0000
  Cl  Cl6       1.0  0.27700  0.62200  0.59300  1.0000
  Cl  Cl7       1.0  0.77700  0.12200  0.90700  1.0000
  Cl  Cl8       1.0  0.72300  0.62200  0.90700  1.0000
  H   H1        1.0  0.79000  0.28200  0.05590  1.0000
  H   H2        1.0  0.71000  0.78200  0.05590  1.0000
  H   H3        1.0  0.77800  0.47000  0.05800  1.0000
  H   H4        1.0  0.72200  0.97000  0.05800  1.0000
  H   H5        1.0  0.07140  0.05770  0.19400  1.0000
  H   H6        1.0  0.42900  0.55800  0.19400  1.0000
  H   H7        1.0  0.42700  0.19600  0.19500  1.0000
  H   H8        1.0  0.07350  0.69600  0.19500  1.0000
  H   H9        1.0  0.57300  0.19600  0.30500  1.0000
  H   H10       1.0  0.92700  0.69600  0.30500  1.0000
  H   H11       1.0  0.92900  0.05770  0.30600  1.0000
  H   H12       1.0  0.57100  0.55800  0.30600  1.0000
  H   H13       1.0  0.22200  0.47000  0.44200  1.0000
  H   H14       1.0  0.27800  0.97000  0.44200  1.0000
  H   H15       1.0  0.21000  0.28200  0.44400  1.0000
  H   H16       1.0  0.29000  0.78200  0.44400  1.0000
  H   H17       1.0  0.71000  0.21800  0.55600  1.0000
  H   H18       1.0  0.79000  0.71800  0.55600  1.0000
  H   H19       1.0  0.72200  0.03000  0.55800  1.0000
  H   H20       1.0  0.77800  0.53000  0.55800  1.0000
  H   H21       1.0  0.42900  0.44200  0.69400  1.0000
  H   H22       1.0  0.07140  0.94200  0.69400  1.0000
  H   H23       1.0  0.07350  0.30400  0.69500  1.0000
  H   H24       1.0  0.42700  0.80400  0.69500  1.0000
  H   H25       1.0  0.92700  0.30400  0.80500  1.0000
  H   H26       1.0  0.57300  0.80400  0.80500  1.0000
  H   H27       1.0  0.57100  0.44200  0.80600  1.0000
  H   H28       1.0  0.92900  0.94200  0.80600  1.0000
  H   H29       1.0  0.27800  0.03000  0.94200  1.0000
  H   H30       1.0  0.22200  0.53000  0.94200  1.0000
  H   H31       1.0  0.29000  0.21800  0.94400  1.0000
  H   H32       1.0  0.21000  0.71800  0.94400  1.0000
  Mg  Mg1       1.0  0.00000  0.37700  0.25000  1.0000
  Mg  Mg2       1.0  0.50000  0.87700  0.25000  1.0000
  Mg  Mg3       1.0  0.50000  0.12300  0.75000  1.0000
  Mg  Mg4       1.0  0.00000  0.62300  0.75000  1.0000
  O   O1        1.0  0.79900  0.37600  0.11200  1.0000
  O   O2        1.0  0.70100  0.87600  0.11200  1.0000
  O   O3        1.0  0.50000  0.12300  0.25000  1.0000
  O   O4        1.0  0.00000  0.13000  0.25000  1.0000
  O   O5        1.0  0.00000  0.62300  0.25000  1.0000
  O   O6        1.0  0.50000  0.63000  0.25000  1.0000
  O   O7        1.0  0.20100  0.37600  0.38800  1.0000
  O   O8        1.0  0.29900  0.87600  0.38800  1.0000
  O   O9        1.0  0.70100  0.12400  0.61200  1.0000
  O   O10       1.0  0.79900  0.62400  0.61200  1.0000
  O   O11       1.0  0.50000  0.37000  0.75000  1.0000
  O   O12       1.0  0.00000  0.37700  0.75000  1.0000
  O   O13       1.0  0.00000  0.87000  0.75000  1.0000
  O   O14       1.0  0.50000  0.87700  0.75000  1.0000
  O   O15       1.0  0.29900  0.12400  0.88800  1.0000
  O   O16       1.0  0.20100  0.62400  0.88800  1.0000
