data_image0
_chemical_formula_structural       N48Rb8Zn4
_chemical_formula_sum              "N48 Rb8 Zn4"
_cell_length_a       20.0308
_cell_length_b       6.57419
_cell_length_c       6.99459
_cell_angle_alpha    90
_cell_angle_beta     90
_cell_angle_gamma    90

_space_group_name_H-M_alt    "P 1"
_space_group_IT_number       1

loop_
  _space_group_symop_operation_xyz
  'x, y, z'

loop_
  _atom_site_type_symbol
  _atom_site_label
  _atom_site_symmetry_multiplicity
  _atom_site_fract_x
  _atom_site_fract_y
  _atom_site_fract_z
  _atom_site_occupancy
  N   N1        1.0  0.33900  0.33300  0.08030  1.0000
  N   N2        1.0  0.83900  0.66700  0.08030  1.0000
  N   N3        1.0  0.36500  0.48900  0.11600  1.0000
  N   N4        1.0  0.86500  0.51100  0.11600  1.0000
  N   N5        1.0  0.89500  0.35800  0.15100  1.0000
  N   N6        1.0  0.39500  0.64200  0.15100  1.0000
  N   N7        1.0  0.59500  0.32400  0.16900  1.0000
  N   N8        1.0  0.09540  0.67600  0.16900  1.0000
  N   N9        1.0  0.45500  0.05580  0.23200  1.0000
  N   N10       1.0  0.95500  0.94400  0.23200  1.0000
  N   N11       1.0  0.60900  0.17600  0.25200  1.0000
  N   N12       1.0  0.10900  0.82400  0.25200  1.0000
  N   N13       1.0  0.79100  0.02650  0.29400  1.0000
  N   N14       1.0  0.29100  0.97300  0.29400  1.0000
  N   N15       1.0  0.62400  0.02170  0.33500  1.0000
  N   N16       1.0  0.12400  0.97800  0.33500  1.0000
  N   N17       1.0  0.77000  0.18800  0.34900  1.0000
  N   N18       1.0  0.27000  0.81200  0.34900  1.0000
  N   N19       1.0  0.45000  0.16900  0.36600  1.0000
  N   N20       1.0  0.95000  0.83100  0.36600  1.0000
  N   N21       1.0  0.74800  0.34100  0.40500  1.0000
  N   N22       1.0  0.24800  0.65900  0.40500  1.0000
  N   N23       1.0  0.44700  0.28100  0.49600  1.0000
  N   N24       1.0  0.94700  0.71900  0.49600  1.0000
  N   N25       1.0  0.16100  0.33300  0.58000  1.0000
  N   N26       1.0  0.66100  0.66700  0.58000  1.0000
  N   N27       1.0  0.13500  0.48900  0.61600  1.0000
  N   N28       1.0  0.63500  0.51100  0.61600  1.0000
  N   N29       1.0  0.60500  0.35800  0.65100  1.0000
  N   N30       1.0  0.10500  0.64200  0.65100  1.0000
  N   N31       1.0  0.90500  0.32400  0.66900  1.0000
  N   N32       1.0  0.40500  0.67600  0.66900  1.0000
  N   N33       1.0  0.04480  0.05580  0.73200  1.0000
  N   N34       1.0  0.54500  0.94400  0.73200  1.0000
  N   N35       1.0  0.89100  0.17600  0.75200  1.0000
  N   N36       1.0  0.39100  0.82400  0.75200  1.0000
  N   N37       1.0  0.70900  0.02650  0.79400  1.0000
  N   N38       1.0  0.20900  0.97300  0.79400  1.0000
  N   N39       1.0  0.87600  0.02170  0.83500  1.0000
  N   N40       1.0  0.37600  0.97800  0.83500  1.0000
  N   N41       1.0  0.73000  0.18800  0.84900  1.0000
  N   N42       1.0  0.23000  0.81200  0.84900  1.0000
  N   N43       1.0  0.04990  0.16900  0.86600  1.0000
  N   N44       1.0  0.55000  0.83100  0.86600  1.0000
  N   N45       1.0  0.75200  0.34100  0.90500  1.0000
  N   N46       1.0  0.25200  0.65900  0.90500  1.0000
  N   N47       1.0  0.05270  0.28100  0.99600  1.0000
  N   N48       1.0  0.55300  0.71900  0.99600  1.0000
  Rb  Rb1       1.0  0.19500  0.31400  0.13300  1.0000
  Rb  Rb2       1.0  0.69500  0.68600  0.13300  1.0000
  Rb  Rb3       1.0  0.01510  0.32700  0.38900  1.0000
  Rb  Rb4       1.0  0.51500  0.67300  0.38900  1.0000
  Rb  Rb5       1.0  0.30500  0.31400  0.63300  1.0000
  Rb  Rb6       1.0  0.80500  0.68600  0.63300  1.0000
  Rb  Rb7       1.0  0.48500  0.32700  0.88900  1.0000
  Rb  Rb8       1.0  0.98500  0.67300  0.88900  1.0000
  Zn  Zn1       1.0  0.86900  0.05170  0.11800  1.0000
  Zn  Zn2       1.0  0.36900  0.94800  0.11800  1.0000
  Zn  Zn3       1.0  0.63100  0.05170  0.61800  1.0000
  Zn  Zn4       1.0  0.13100  0.94800  0.61800  1.0000
