data_image0
_chemical_formula_structural       Mg8O18Ta4
_chemical_formula_sum              "Mg8 O18 Ta4"
_cell_length_a       5.14896
_cell_length_b       5.14895
_cell_length_c       13.9978
_cell_angle_alpha    90
_cell_angle_beta     90
_cell_angle_gamma    120

_space_group_name_H-M_alt    "P 1"
_space_group_IT_number       1

loop_
  _space_group_symop_operation_xyz
  'x, y, z'

loop_
  _atom_site_type_symbol
  _atom_site_label
  _atom_site_symmetry_multiplicity
  _atom_site_fract_x
  _atom_site_fract_y
  _atom_site_fract_z
  _atom_site_occupancy
  Mg  Mg1       1.0  0.33300  0.66700  0.01640  1.0000
  Mg  Mg2       1.0  0.66700  0.33300  0.19100  1.0000
  Mg  Mg3       1.0  0.33300  0.66700  0.30900  1.0000
  Mg  Mg4       1.0  0.66700  0.33300  0.48400  1.0000
  Mg  Mg5       1.0  0.33300  0.66700  0.51600  1.0000
  Mg  Mg6       1.0  0.66700  0.33300  0.69100  1.0000
  Mg  Mg7       1.0  0.33300  0.66700  0.80900  1.0000
  Mg  Mg8       1.0  0.66700  0.33300  0.98400  1.0000
  O   O1        1.0  0.97200  0.65100  0.08430  1.0000
  O   O2        1.0  0.34900  0.32100  0.08430  1.0000
  O   O3        1.0  0.67900  0.02830  0.08430  1.0000
  O   O4        1.0  0.71000  0.71000  0.25000  1.0000
  O   O5        1.0  0.00000  0.29000  0.25000  1.0000
  O   O6        1.0  0.29000  0.00000  0.25000  1.0000
  O   O7        1.0  0.32100  0.34900  0.41600  1.0000
  O   O8        1.0  0.65100  0.97200  0.41600  1.0000
  O   O9        1.0  0.02830  0.67900  0.41600  1.0000
  O   O10       1.0  0.97200  0.32100  0.58400  1.0000
  O   O11       1.0  0.34900  0.02830  0.58400  1.0000
  O   O12       1.0  0.67900  0.65100  0.58400  1.0000
  O   O13       1.0  0.71000  0.00000  0.75000  1.0000
  O   O14       1.0  0.00000  0.71000  0.75000  1.0000
  O   O15       1.0  0.29000  0.29000  0.75000  1.0000
  O   O16       1.0  0.32100  0.97200  0.91600  1.0000
  O   O17       1.0  0.65100  0.67900  0.91600  1.0000
  O   O18       1.0  0.02830  0.34900  0.91600  1.0000
  Ta  Ta1       1.0  0.00000  1.00000  0.14200  1.0000
  Ta  Ta2       1.0  0.00000  0.00000  0.35800  1.0000
  Ta  Ta3       1.0  0.00000  0.00000  0.64200  1.0000
  Ta  Ta4       1.0  0.00000  0.00000  0.85800  1.0000
