data_image0
_chemical_formula_structural       H18O30P6Zn6
_chemical_formula_sum              "H18 O30 P6 Zn6"
_cell_length_a       6.35406
_cell_length_b       7.57396
_cell_length_c       12.1617
_cell_angle_alpha    73.7079
_cell_angle_beta     81.5829
_cell_angle_gamma    80.9007

_space_group_name_H-M_alt    "P 1"
_space_group_IT_number       1

loop_
  _space_group_symop_operation_xyz
  'x, y, z'

loop_
  _atom_site_type_symbol
  _atom_site_label
  _atom_site_symmetry_multiplicity
  _atom_site_fract_x
  _atom_site_fract_y
  _atom_site_fract_z
  _atom_site_occupancy
  H   H1        1.0  0.36100  0.40700  0.00310  1.0000
  H   H2        1.0  0.27000  0.00648  0.00910  1.0000
  H   H3        1.0  0.00124  0.78800  0.01830  1.0000
  H   H4        1.0  0.37300  0.05080  0.10400  1.0000
  H   H5        1.0  0.82300  0.68600  0.11300  1.0000
  H   H6        1.0  0.29200  0.29200  0.19000  1.0000
  H   H7        1.0  0.34600  0.65600  0.25300  1.0000
  H   H8        1.0  0.17000  0.51400  0.27000  1.0000
  H   H9        1.0  0.64200  0.49000  0.28200  1.0000
  H   H10       1.0  0.35800  0.51000  0.71800  1.0000
  H   H11       1.0  0.83000  0.48600  0.73000  1.0000
  H   H12       1.0  0.65400  0.34400  0.74700  1.0000
  H   H13       1.0  0.70800  0.70800  0.81000  1.0000
  H   H14       1.0  0.17700  0.31400  0.88700  1.0000
  H   H15       1.0  0.62700  0.94900  0.89600  1.0000
  H   H16       1.0  0.99900  0.21200  0.98200  1.0000
  H   H17       1.0  0.73000  0.99400  0.99100  1.0000
  H   H18       1.0  0.63900  0.59300  0.99700  1.0000
  O   O1        1.0  0.73300  0.51100  0.06000  1.0000
  O   O2        1.0  0.89700  0.79800  0.08880  1.0000
  O   O3        1.0  0.30300  0.95300  0.08950  1.0000
  O   O4        1.0  0.46500  0.27600  0.09840  1.0000
  O   O5        1.0  0.86500  0.17100  0.10200  1.0000
  O   O6        1.0  0.16900  0.31000  0.25400  1.0000
  O   O7        1.0  0.65300  0.31300  0.25800  1.0000
  O   O8        1.0  0.19100  0.64000  0.27600  1.0000
  O   O9        1.0  0.61200  0.63100  0.28000  1.0000
  O   O10       1.0  0.71200  0.90500  0.32000  1.0000
  O   O11       1.0  0.14000  0.96500  0.32000  1.0000
  O   O12       1.0  0.93400  0.18900  0.43100  1.0000
  O   O13       1.0  0.33000  0.10500  0.43700  1.0000
  O   O14       1.0  0.84000  0.59100  0.44500  1.0000
  O   O15       1.0  0.44300  0.70800  0.46500  1.0000
  O   O16       1.0  0.55700  0.29200  0.53500  1.0000
  O   O17       1.0  0.16000  0.40900  0.55500  1.0000
  O   O18       1.0  0.67000  0.89500  0.56300  1.0000
  O   O19       1.0  0.06610  0.81100  0.56900  1.0000
  O   O20       1.0  0.86000  0.03550  0.68000  1.0000
  O   O21       1.0  0.28800  0.09480  0.68000  1.0000
  O   O22       1.0  0.38800  0.36900  0.72000  1.0000
  O   O23       1.0  0.80900  0.36000  0.72400  1.0000
  O   O24       1.0  0.34700  0.68700  0.74200  1.0000
  O   O25       1.0  0.83100  0.69000  0.74600  1.0000
  O   O26       1.0  0.13500  0.82900  0.89800  1.0000
  O   O27       1.0  0.53500  0.72400  0.90200  1.0000
  O   O28       1.0  0.69700  0.04680  0.91000  1.0000
  O   O29       1.0  0.10300  0.20200  0.91100  1.0000
  O   O30       1.0  0.26700  0.48900  0.94000  1.0000
  P   P1        1.0  0.68000  0.31100  0.13100  1.0000
  P   P2        1.0  0.14600  0.13500  0.36300  1.0000
  P   P3        1.0  0.65000  0.71000  0.38300  1.0000
  P   P4        1.0  0.35000  0.29000  0.61700  1.0000
  P   P5        1.0  0.85400  0.86500  0.63700  1.0000
  P   P6        1.0  0.32000  0.68900  0.86900  1.0000
  Zn  Zn1       1.0  0.99600  0.92000  0.19600  1.0000
  Zn  Zn2       1.0  0.65200  0.11200  0.40900  1.0000
  Zn  Zn3       1.0  0.14000  0.67300  0.44400  1.0000
  Zn  Zn4       1.0  0.86000  0.32700  0.55600  1.0000
  Zn  Zn5       1.0  0.34800  0.88800  0.59100  1.0000
  Zn  Zn6       1.0  0.00392  0.08010  0.80400  1.0000
