data_image0
_chemical_formula_structural       C4F12H20O20S4
_chemical_formula_sum              "C4 F12 H20 O20 S4"
_cell_length_a       9.30755
_cell_length_b       8.45819
_cell_length_c       7.21257
_cell_angle_alpha    90
_cell_angle_beta     98.6495
_cell_angle_gamma    90

_space_group_name_H-M_alt    "P 1"
_space_group_IT_number       1

loop_
  _space_group_symop_operation_xyz
  'x, y, z'

loop_
  _atom_site_type_symbol
  _atom_site_label
  _atom_site_symmetry_multiplicity
  _atom_site_fract_x
  _atom_site_fract_y
  _atom_site_fract_z
  _atom_site_occupancy
  C   C1        1.0  0.88100  0.94900  0.23500  1.0000
  C   C2        1.0  0.11900  0.44900  0.26500  1.0000
  C   C3        1.0  0.88100  0.55100  0.73500  1.0000
  C   C4        1.0  0.11900  0.05130  0.76500  1.0000
  F   F1        1.0  0.95800  0.88300  0.11100  1.0000
  F   F2        1.0  0.14900  0.33500  0.14500  1.0000
  F   F3        1.0  0.04250  0.56600  0.17100  1.0000
  F   F4        1.0  0.95700  0.06610  0.32900  1.0000
  F   F5        1.0  0.85100  0.83500  0.35500  1.0000
  F   F6        1.0  0.04160  0.38300  0.38900  1.0000
  F   F7        1.0  0.95800  0.61700  0.61100  1.0000
  F   F8        1.0  0.14900  0.16500  0.64500  1.0000
  F   F9        1.0  0.04250  0.93400  0.67100  1.0000
  F   F10       1.0  0.95700  0.43400  0.82900  1.0000
  F   F11       1.0  0.85100  0.66500  0.85500  1.0000
  F   F12       1.0  0.04160  0.11700  0.88900  1.0000
  H   H1        1.0  0.60900  0.73800  0.05470  1.0000
  H   H2        1.0  0.76300  0.34200  0.07480  1.0000
  H   H3        1.0  0.67700  0.53300  0.11000  1.0000
  H   H4        1.0  0.50400  0.61400  0.14500  1.0000
  H   H5        1.0  0.22800  0.90100  0.21400  1.0000
  H   H6        1.0  0.77200  0.40100  0.28600  1.0000
  H   H7        1.0  0.49600  0.11400  0.35500  1.0000
  H   H8        1.0  0.32300  0.03280  0.39000  1.0000
  H   H9        1.0  0.23700  0.84200  0.42500  1.0000
  H   H10       1.0  0.39100  0.23800  0.44500  1.0000
  H   H11       1.0  0.60900  0.76200  0.55500  1.0000
  H   H12       1.0  0.76300  0.15800  0.57500  1.0000
  H   H13       1.0  0.67700  0.96700  0.61000  1.0000
  H   H14       1.0  0.50400  0.88600  0.64500  1.0000
  H   H15       1.0  0.22800  0.59900  0.71400  1.0000
  H   H16       1.0  0.77200  0.09930  0.78600  1.0000
  H   H17       1.0  0.49600  0.38600  0.85500  1.0000
  H   H18       1.0  0.32300  0.46700  0.89000  1.0000
  H   H19       1.0  0.23700  0.65800  0.92500  1.0000
  H   H20       1.0  0.39100  0.26200  0.94500  1.0000
  O   O1        1.0  0.36000  0.09020  0.00436  1.0000
  O   O2        1.0  0.23500  0.84000  0.00444  1.0000
  O   O3        1.0  0.58000  0.62500  0.06290  1.0000
  O   O4        1.0  0.77200  0.43900  0.15500  1.0000
  O   O5        1.0  0.35800  0.59800  0.23900  1.0000
  O   O6        1.0  0.64200  0.09750  0.26100  1.0000
  O   O7        1.0  0.22800  0.93900  0.34500  1.0000
  O   O8        1.0  0.42000  0.12500  0.43700  1.0000
  O   O9        1.0  0.76500  0.34000  0.49600  1.0000
  O   O10       1.0  0.64000  0.59000  0.49600  1.0000
  O   O11       1.0  0.36000  0.41000  0.50400  1.0000
  O   O12       1.0  0.23500  0.66000  0.50400  1.0000
  O   O13       1.0  0.58000  0.87500  0.56300  1.0000
  O   O14       1.0  0.77200  0.06110  0.65500  1.0000
  O   O15       1.0  0.35800  0.90200  0.73900  1.0000
  O   O16       1.0  0.64200  0.40200  0.76100  1.0000
  O   O17       1.0  0.22800  0.56100  0.84500  1.0000
  O   O18       1.0  0.42000  0.37500  0.93700  1.0000
  O   O19       1.0  0.76500  0.16000  0.99600  1.0000
  O   O20       1.0  0.64000  0.91000  0.99600  1.0000
  S   S1        1.0  0.71200  0.03560  0.11100  1.0000
  S   S2        1.0  0.28800  0.53600  0.38900  1.0000
  S   S3        1.0  0.71200  0.46400  0.61100  1.0000
  S   S4        1.0  0.28800  0.96400  0.88900  1.0000
