data_image0
_chemical_formula_structural       Fe8K8O32P8
_chemical_formula_sum              "Fe8 K8 O32 P8"
_cell_length_a       9.51351
_cell_length_b       8.61515
_cell_length_c       10.8606
_cell_angle_alpha    90
_cell_angle_beta     115.088
_cell_angle_gamma    90

_space_group_name_H-M_alt    "P 1"
_space_group_IT_number       1

loop_
  _space_group_symop_operation_xyz
  'x, y, z'

loop_
  _atom_site_type_symbol
  _atom_site_label
  _atom_site_symmetry_multiplicity
  _atom_site_fract_x
  _atom_site_fract_y
  _atom_site_fract_z
  _atom_site_occupancy
  Fe  Fe1       1.0  0.89200  0.84500  0.03950  1.0000
  Fe  Fe2       1.0  0.41200  0.87200  0.06040  1.0000
  Fe  Fe3       1.0  0.08830  0.37200  0.44000  1.0000
  Fe  Fe4       1.0  0.60800  0.34500  0.46100  1.0000
  Fe  Fe5       1.0  0.39200  0.65500  0.53900  1.0000
  Fe  Fe6       1.0  0.91200  0.62800  0.56000  1.0000
  Fe  Fe7       1.0  0.58800  0.12800  0.94000  1.0000
  Fe  Fe8       1.0  0.10800  0.15500  0.96100  1.0000
  K   K1        1.0  0.68700  0.50700  0.15600  1.0000
  K   K2        1.0  0.23900  0.52700  0.17300  1.0000
  K   K3        1.0  0.26100  0.02730  0.32700  1.0000
  K   K4        1.0  0.81300  0.00721  0.34400  1.0000
  K   K5        1.0  0.18700  0.99300  0.65600  1.0000
  K   K6        1.0  0.73900  0.97300  0.67300  1.0000
  K   K7        1.0  0.76100  0.47300  0.82700  1.0000
  K   K8        1.0  0.31300  0.49300  0.84400  1.0000
  O   O1        1.0  0.77500  0.27300  0.01270  1.0000
  O   O2        1.0  0.40700  0.34300  0.07810  1.0000
  O   O3        1.0  0.06770  0.27500  0.10200  1.0000
  O   O4        1.0  0.31400  0.07090  0.10200  1.0000
  O   O5        1.0  0.58000  0.10300  0.11900  1.0000
  O   O6        1.0  0.93600  0.03980  0.14500  1.0000
  O   O7        1.0  0.98400  0.69800  0.19200  1.0000
  O   O8        1.0  0.56200  0.78800  0.23500  1.0000
  O   O9        1.0  0.93800  0.28800  0.26500  1.0000
  O   O10       1.0  0.51600  0.19800  0.30800  1.0000
  O   O11       1.0  0.56400  0.54000  0.35500  1.0000
  O   O12       1.0  0.92000  0.60300  0.38100  1.0000
  O   O13       1.0  0.18600  0.57100  0.39800  1.0000
  O   O14       1.0  0.43200  0.77500  0.39800  1.0000
  O   O15       1.0  0.09290  0.84300  0.42200  1.0000
  O   O16       1.0  0.72500  0.77300  0.48700  1.0000
  O   O17       1.0  0.27500  0.22700  0.51300  1.0000
  O   O18       1.0  0.90700  0.15700  0.57800  1.0000
  O   O19       1.0  0.56800  0.22500  0.60200  1.0000
  O   O20       1.0  0.81400  0.42900  0.60200  1.0000
  O   O21       1.0  0.07980  0.39700  0.61900  1.0000
  O   O22       1.0  0.43600  0.46000  0.64500  1.0000
  O   O23       1.0  0.48400  0.80200  0.69200  1.0000
  O   O24       1.0  0.06210  0.71200  0.73500  1.0000
  O   O25       1.0  0.43800  0.21200  0.76500  1.0000
  O   O26       1.0  0.01550  0.30200  0.80800  1.0000
  O   O27       1.0  0.06380  0.96000  0.85500  1.0000
  O   O28       1.0  0.42000  0.89700  0.88100  1.0000
  O   O29       1.0  0.68600  0.92900  0.89800  1.0000
  O   O30       1.0  0.93200  0.72500  0.89800  1.0000
  O   O31       1.0  0.59300  0.65700  0.92200  1.0000
  O   O32       1.0  0.22500  0.72700  0.98700  1.0000
  P   P1        1.0  0.92900  0.21900  0.13000  1.0000
  P   P2        1.0  0.45500  0.18900  0.15200  1.0000
  P   P3        1.0  0.04480  0.68900  0.34800  1.0000
  P   P4        1.0  0.57100  0.71900  0.37000  1.0000
  P   P5        1.0  0.42900  0.28100  0.63000  1.0000
  P   P6        1.0  0.95500  0.31100  0.65200  1.0000
  P   P7        1.0  0.54500  0.81100  0.84800  1.0000
  P   P8        1.0  0.07140  0.78100  0.87000  1.0000
