data_image0
_chemical_formula_structural       Ga6O40P12Rb2
_chemical_formula_sum              "Ga6 O40 P12 Rb2"
_cell_length_a       8.15688
_cell_length_b       8.15688
_cell_length_c       12.0085
_cell_angle_alpha    90
_cell_angle_beta     90
_cell_angle_gamma    74.6792

_space_group_name_H-M_alt    "P 1"
_space_group_IT_number       1

loop_
  _space_group_symop_operation_xyz
  'x, y, z'

loop_
  _atom_site_type_symbol
  _atom_site_label
  _atom_site_symmetry_multiplicity
  _atom_site_fract_x
  _atom_site_fract_y
  _atom_site_fract_z
  _atom_site_occupancy
  Ga  Ga1       1.0  0.13700  0.86300  0.00000  1.0000
  Ga  Ga2       1.0  0.29600  0.29600  0.25000  1.0000
  Ga  Ga3       1.0  0.75000  0.75000  0.25000  1.0000
  Ga  Ga4       1.0  0.86300  0.13700  0.50000  1.0000
  Ga  Ga5       1.0  0.25000  0.25000  0.75000  1.0000
  Ga  Ga6       1.0  0.70400  0.70400  0.75000  1.0000
  O   O1        1.0  0.15000  0.07920  0.02140  1.0000
  O   O2        1.0  0.95900  0.36800  0.05440  1.0000
  O   O3        1.0  0.27600  0.31600  0.08640  1.0000
  O   O4        1.0  0.66700  0.84400  0.10600  1.0000
  O   O5        1.0  0.25800  0.73600  0.11500  1.0000
  O   O6        1.0  0.83800  0.19500  0.18500  1.0000
  O   O7        1.0  0.75500  0.51800  0.19800  1.0000
  O   O8        1.0  0.98500  0.72500  0.20200  1.0000
  O   O9        1.0  0.53400  0.27300  0.22500  1.0000
  O   O10       1.0  0.33800  0.04980  0.23900  1.0000
  O   O11       1.0  0.04980  0.33800  0.26100  1.0000
  O   O12       1.0  0.27300  0.53400  0.27500  1.0000
  O   O13       1.0  0.72500  0.98500  0.29800  1.0000
  O   O14       1.0  0.51800  0.75500  0.30200  1.0000
  O   O15       1.0  0.19500  0.83800  0.31500  1.0000
  O   O16       1.0  0.73600  0.25800  0.38500  1.0000
  O   O17       1.0  0.84400  0.66700  0.39400  1.0000
  O   O18       1.0  0.31600  0.27600  0.41400  1.0000
  O   O19       1.0  0.36800  0.95900  0.44600  1.0000
  O   O20       1.0  0.07920  0.15000  0.47900  1.0000
  O   O21       1.0  0.85000  0.92100  0.52100  1.0000
  O   O22       1.0  0.04070  0.63200  0.55400  1.0000
  O   O23       1.0  0.72400  0.68400  0.58600  1.0000
  O   O24       1.0  0.33300  0.15600  0.60600  1.0000
  O   O25       1.0  0.74200  0.26400  0.61500  1.0000
  O   O26       1.0  0.16200  0.80500  0.68500  1.0000
  O   O27       1.0  0.24500  0.48200  0.69800  1.0000
  O   O28       1.0  0.01490  0.27500  0.70200  1.0000
  O   O29       1.0  0.46600  0.72700  0.72500  1.0000
  O   O30       1.0  0.66200  0.95000  0.73900  1.0000
  O   O31       1.0  0.95000  0.66200  0.76100  1.0000
  O   O32       1.0  0.72700  0.46600  0.77500  1.0000
  O   O33       1.0  0.27500  0.01490  0.79800  1.0000
  O   O34       1.0  0.48200  0.24500  0.80200  1.0000
  O   O35       1.0  0.80500  0.16200  0.81500  1.0000
  O   O36       1.0  0.26400  0.74200  0.88500  1.0000
  O   O37       1.0  0.15600  0.33300  0.89400  1.0000
  O   O38       1.0  0.68400  0.72400  0.91400  1.0000
  O   O39       1.0  0.63200  0.04070  0.94600  1.0000
  O   O40       1.0  0.92100  0.85000  0.97900  1.0000
  P   P1        1.0  0.14900  0.26600  0.00979  1.0000
  P   P2        1.0  0.90400  0.36400  0.18200  1.0000
  P   P3        1.0  0.17200  0.69800  0.22400  1.0000
  P   P4        1.0  0.69800  0.17200  0.27600  1.0000
  P   P5        1.0  0.36400  0.90400  0.31800  1.0000
  P   P6        1.0  0.26600  0.14900  0.49000  1.0000
  P   P7        1.0  0.85100  0.73400  0.51000  1.0000
  P   P8        1.0  0.09610  0.63600  0.68200  1.0000
  P   P9        1.0  0.82800  0.30200  0.72400  1.0000
  P   P10       1.0  0.30200  0.82800  0.77600  1.0000
  P   P11       1.0  0.63600  0.09610  0.81800  1.0000
  P   P12       1.0  0.73400  0.85100  0.99000  1.0000
  Rb  Rb1       1.0  0.53200  0.46800  0.00000  1.0000
  Rb  Rb2       1.0  0.46800  0.53200  0.50000  1.0000
