data_image0
_chemical_formula_structural       O44S8V8
_chemical_formula_sum              "O44 S8 V8"
_cell_length_a       9.29582
_cell_length_b       8.76888
_cell_length_c       9.81592
_cell_angle_alpha    90
_cell_angle_beta     104.096
_cell_angle_gamma    90

_space_group_name_H-M_alt    "P 1"
_space_group_IT_number       1

loop_
  _space_group_symop_operation_xyz
  'x, y, z'

loop_
  _atom_site_type_symbol
  _atom_site_label
  _atom_site_symmetry_multiplicity
  _atom_site_fract_x
  _atom_site_fract_y
  _atom_site_fract_z
  _atom_site_occupancy
  O   O1        1.0  0.72300  0.06210  0.01340  1.0000
  O   O2        1.0  0.22300  0.43800  0.01340  1.0000
  O   O3        1.0  0.07350  0.65000  0.06660  1.0000
  O   O4        1.0  0.57300  0.85000  0.06660  1.0000
  O   O5        1.0  0.34000  0.67300  0.08510  1.0000
  O   O6        1.0  0.84000  0.82700  0.08510  1.0000
  O   O7        1.0  0.65800  0.27700  0.23300  1.0000
  O   O8        1.0  0.15800  0.22300  0.23300  1.0000
  O   O9        1.0  0.97400  0.45000  0.23600  1.0000
  O   O10       1.0  0.47400  0.04990  0.23600  1.0000
  O   O11       1.0  0.74200  0.61100  0.24500  1.0000
  O   O12       1.0  0.24200  0.88900  0.24500  1.0000
  O   O13       1.0  0.25700  0.51800  0.25200  1.0000
  O   O14       1.0  0.75700  0.98200  0.25200  1.0000
  O   O15       1.0  0.51100  0.75100  0.31700  1.0000
  O   O16       1.0  0.01120  0.74900  0.31700  1.0000
  O   O17       1.0  0.55800  0.24100  0.46400  1.0000
  O   O18       1.0  0.05780  0.25900  0.46400  1.0000
  O   O19       1.0  0.83000  0.14800  0.47900  1.0000
  O   O20       1.0  0.33000  0.35200  0.47900  1.0000
  O   O21       1.0  0.64200  0.92700  0.49700  1.0000
  O   O22       1.0  0.14200  0.57300  0.49700  1.0000
  O   O23       1.0  0.85800  0.42700  0.50300  1.0000
  O   O24       1.0  0.35800  0.07270  0.50300  1.0000
  O   O25       1.0  0.17000  0.85200  0.52100  1.0000
  O   O26       1.0  0.67000  0.64800  0.52100  1.0000
  O   O27       1.0  0.94200  0.74100  0.53600  1.0000
  O   O28       1.0  0.44200  0.75900  0.53600  1.0000
  O   O29       1.0  0.98900  0.25100  0.68300  1.0000
  O   O30       1.0  0.48900  0.24900  0.68300  1.0000
  O   O31       1.0  0.74300  0.48200  0.74800  1.0000
  O   O32       1.0  0.24300  0.01840  0.74800  1.0000
  O   O33       1.0  0.25800  0.38900  0.75500  1.0000
  O   O34       1.0  0.75800  0.11100  0.75500  1.0000
  O   O35       1.0  0.02600  0.55000  0.76400  1.0000
  O   O36       1.0  0.52600  0.95000  0.76400  1.0000
  O   O37       1.0  0.34200  0.72300  0.76700  1.0000
  O   O38       1.0  0.84200  0.77700  0.76700  1.0000
  O   O39       1.0  0.66000  0.32700  0.91500  1.0000
  O   O40       1.0  0.16000  0.17300  0.91500  1.0000
  O   O41       1.0  0.92700  0.35000  0.93300  1.0000
  O   O42       1.0  0.42700  0.15000  0.93300  1.0000
  O   O43       1.0  0.27700  0.93800  0.98700  1.0000
  O   O44       1.0  0.77700  0.56200  0.98700  1.0000
  S   S1        1.0  0.71600  0.92600  0.10200  1.0000
  S   S2        1.0  0.21600  0.57400  0.10200  1.0000
  S   S3        1.0  0.57000  0.78000  0.47000  1.0000
  S   S4        1.0  0.07010  0.72000  0.47000  1.0000
  S   S5        1.0  0.43000  0.22000  0.53000  1.0000
  S   S6        1.0  0.93000  0.28000  0.53000  1.0000
  S   S7        1.0  0.28400  0.07370  0.89800  1.0000
  S   S8        1.0  0.78400  0.42600  0.89800  1.0000
  V   V1        1.0  0.87900  0.62500  0.17500  1.0000
  V   V2        1.0  0.37900  0.87500  0.17500  1.0000
  V   V3        1.0  0.64500  0.13400  0.33000  1.0000
  V   V4        1.0  0.14500  0.36600  0.33000  1.0000
  V   V5        1.0  0.85500  0.63400  0.67000  1.0000
  V   V6        1.0  0.35500  0.86600  0.67000  1.0000
  V   V7        1.0  0.12100  0.37500  0.82500  1.0000
  V   V8        1.0  0.62100  0.12500  0.82500  1.0000
