data_image0
_chemical_formula_structural       F40Sr8V8
_chemical_formula_sum              "F40 Sr8 V8"
_cell_length_a       6.89589
_cell_length_b       7.04094
_cell_length_c       14.31
_cell_angle_alpha    90.0013
_cell_angle_beta     95.1918
_cell_angle_gamma    90.0122

_space_group_name_H-M_alt    "P 1"
_space_group_IT_number       1

loop_
  _space_group_symop_operation_xyz
  'x, y, z'

loop_
  _atom_site_type_symbol
  _atom_site_label
  _atom_site_symmetry_multiplicity
  _atom_site_fract_x
  _atom_site_fract_y
  _atom_site_fract_z
  _atom_site_occupancy
  F   F1        1.0  0.03610  0.32900  0.03340  1.0000
  F   F2        1.0  0.35100  0.08380  0.03610  1.0000
  F   F3        1.0  0.31200  0.70200  0.06970  1.0000
  F   F4        1.0  0.69000  0.51300  0.08280  1.0000
  F   F5        1.0  0.99700  0.98300  0.10400  1.0000
  F   F6        1.0  0.39200  0.36800  0.15100  1.0000
  F   F7        1.0  0.65100  0.84400  0.15600  1.0000
  F   F8        1.0  0.01960  0.31300  0.20800  1.0000
  F   F9        1.0  0.30500  0.04190  0.23200  1.0000
  F   F10       1.0  0.31300  0.67100  0.24600  1.0000
  F   F11       1.0  0.68700  0.17100  0.25400  1.0000
  F   F12       1.0  0.69500  0.54200  0.26800  1.0000
  F   F13       1.0  0.98000  0.81300  0.29200  1.0000
  F   F14       1.0  0.34900  0.34400  0.34400  1.0000
  F   F15       1.0  0.60700  0.86800  0.34900  1.0000
  F   F16       1.0  0.00346  0.48300  0.39600  1.0000
  F   F17       1.0  0.31000  0.01300  0.41700  1.0000
  F   F18       1.0  0.68800  0.20200  0.43000  1.0000
  F   F19       1.0  0.64900  0.58400  0.46400  1.0000
  F   F20       1.0  0.96400  0.82900  0.46700  1.0000
  F   F21       1.0  0.03610  0.17000  0.53300  1.0000
  F   F22       1.0  0.35100  0.41600  0.53600  1.0000
  F   F23       1.0  0.31200  0.79800  0.57000  1.0000
  F   F24       1.0  0.69000  0.98700  0.58300  1.0000
  F   F25       1.0  0.99700  0.51700  0.60400  1.0000
  F   F26       1.0  0.39200  0.13200  0.65100  1.0000
  F   F27       1.0  0.65100  0.65600  0.65600  1.0000
  F   F28       1.0  0.01970  0.18700  0.70800  1.0000
  F   F29       1.0  0.30500  0.45800  0.73200  1.0000
  F   F30       1.0  0.31300  0.82900  0.74600  1.0000
  F   F31       1.0  0.68700  0.32900  0.75400  1.0000
  F   F32       1.0  0.69500  0.95800  0.76800  1.0000
  F   F33       1.0  0.98000  0.68700  0.79200  1.0000
  F   F34       1.0  0.34900  0.15600  0.84400  1.0000
  F   F35       1.0  0.60700  0.63200  0.84900  1.0000
  F   F36       1.0  0.00337  0.01710  0.89600  1.0000
  F   F37       1.0  0.31000  0.48700  0.91700  1.0000
  F   F38       1.0  0.68800  0.29800  0.93000  1.0000
  F   F39       1.0  0.64900  0.91600  0.96400  1.0000
  F   F40       1.0  0.96400  0.67100  0.96700  1.0000
  Sr  Sr1       1.0  0.69400  0.16300  0.08480  1.0000
  Sr  Sr2       1.0  0.00174  0.64800  0.14000  1.0000
  Sr  Sr3       1.0  0.99800  0.14800  0.36000  1.0000
  Sr  Sr4       1.0  0.30600  0.66300  0.41500  1.0000
  Sr  Sr5       1.0  0.69400  0.33700  0.58500  1.0000
  Sr  Sr6       1.0  0.00174  0.85200  0.64000  1.0000
  Sr  Sr7       1.0  0.99800  0.35200  0.86000  1.0000
  Sr  Sr8       1.0  0.30600  0.83700  0.91500  1.0000
  V   V1        1.0  0.18800  0.18200  0.12500  1.0000
  V   V2        1.0  0.50900  0.61900  0.16400  1.0000
  V   V3        1.0  0.49100  0.11900  0.33600  1.0000
  V   V4        1.0  0.81200  0.68200  0.37500  1.0000
  V   V5        1.0  0.18800  0.31900  0.62500  1.0000
  V   V6        1.0  0.50900  0.88100  0.66400  1.0000
  V   V7        1.0  0.49100  0.38100  0.83700  1.0000
  V   V8        1.0  0.81200  0.81800  0.87500  1.0000
