data_image0
_chemical_formula_structural       C2CuH20Li2N6O22P6
_chemical_formula_sum              "C2 Cu1 H20 Li2 N6 O22 P6"
_cell_length_a       9.38729
_cell_length_b       9.06466
_cell_length_c       7.23148
_cell_angle_alpha    107.966
_cell_angle_beta     110.133
_cell_angle_gamma    84.157

_space_group_name_H-M_alt    "P 1"
_space_group_IT_number       1

loop_
  _space_group_symop_operation_xyz
  'x, y, z'

loop_
  _atom_site_type_symbol
  _atom_site_label
  _atom_site_symmetry_multiplicity
  _atom_site_fract_x
  _atom_site_fract_y
  _atom_site_fract_z
  _atom_site_occupancy
  C   C1        1.0  0.95200  0.49300  0.24300  1.0000
  C   C2        1.0  0.04830  0.50700  0.75700  1.0000
  Cu  Cu1       1.0  0.50000  0.50000  0.50000  1.0000
  H   H1        1.0  0.36900  0.42400  0.07050  1.0000
  H   H2        1.0  0.43000  0.80400  0.07340  1.0000
  H   H3        1.0  0.05280  0.28800  0.13600  1.0000
  H   H4        1.0  0.40300  0.60000  0.16100  1.0000
  H   H5        1.0  0.88400  0.26900  0.18200  1.0000
  H   H6        1.0  0.14900  0.53900  0.19900  1.0000
  H   H7        1.0  0.59000  0.78000  0.22400  1.0000
  H   H8        1.0  0.03980  0.69900  0.27200  1.0000
  H   H9        1.0  0.76100  0.49500  0.32400  1.0000
  H   H10       1.0  0.82900  0.67700  0.35600  1.0000
  H   H11       1.0  0.17100  0.32300  0.64400  1.0000
  H   H12       1.0  0.23900  0.50500  0.67600  1.0000
  H   H13       1.0  0.96000  0.30100  0.72800  1.0000
  H   H14       1.0  0.41000  0.22000  0.77600  1.0000
  H   H15       1.0  0.85100  0.46100  0.80100  1.0000
  H   H16       1.0  0.11600  0.73100  0.81800  1.0000
  H   H17       1.0  0.59700  0.40000  0.83900  1.0000
  H   H18       1.0  0.94700  0.71200  0.86400  1.0000
  H   H19       1.0  0.57000  0.19600  0.92700  1.0000
  H   H20       1.0  0.63100  0.57600  0.93000  1.0000
  Li  Li1       1.0  0.84500  0.93900  0.17400  1.0000
  Li  Li2       1.0  0.15500  0.06090  0.82600  1.0000
  N   N1        1.0  0.96400  0.33900  0.18300  1.0000
  N   N2        1.0  0.05500  0.58200  0.24000  1.0000
  N   N3        1.0  0.83600  0.55900  0.30600  1.0000
  N   N4        1.0  0.16400  0.44100  0.69400  1.0000
  N   N5        1.0  0.94500  0.41800  0.76000  1.0000
  N   N6        1.0  0.03620  0.66100  0.81700  1.0000
  O   O1        1.0  0.22000  0.20000  0.09010  1.0000
  O   O2        1.0  0.50200  0.72400  0.11100  1.0000
  O   O3        1.0  0.34800  0.51600  0.17200  1.0000
  O   O4        1.0  0.74700  0.13600  0.17500  1.0000
  O   O5        1.0  0.49400  0.11900  0.20400  1.0000
  O   O6        1.0  0.05340  0.95300  0.26400  1.0000
  O   O7        1.0  0.32400  0.02440  0.32500  1.0000
  O   O8        1.0  0.63800  0.37900  0.36700  1.0000
  O   O9        1.0  0.77800  0.88300  0.37400  1.0000
  O   O10       1.0  0.38900  0.31000  0.47000  1.0000
  O   O11       1.0  0.27900  0.83400  0.47100  1.0000
  O   O12       1.0  0.72100  0.16600  0.52900  1.0000
  O   O13       1.0  0.61100  0.69000  0.53000  1.0000
  O   O14       1.0  0.22200  0.11700  0.62600  1.0000
  O   O15       1.0  0.36200  0.62100  0.63300  1.0000
  O   O16       1.0  0.67600  0.97600  0.67500  1.0000
  O   O17       1.0  0.94700  0.04730  0.73600  1.0000
  O   O18       1.0  0.50600  0.88100  0.79600  1.0000
  O   O19       1.0  0.25300  0.86400  0.82500  1.0000
  O   O20       1.0  0.65200  0.48400  0.82800  1.0000
  O   O21       1.0  0.49800  0.27600  0.88900  1.0000
  O   O22       1.0  0.78000  0.80000  0.91000  1.0000
  P   P1        1.0  0.34600  0.17900  0.27300  1.0000
  P   P2        1.0  0.65600  0.20500  0.31300  1.0000
  P   P3        1.0  0.20400  0.99300  0.42400  1.0000
  P   P4        1.0  0.79600  0.00712  0.57600  1.0000
  P   P5        1.0  0.34400  0.79500  0.68700  1.0000
  P   P6        1.0  0.65400  0.82100  0.72700  1.0000
