data_image0
_chemical_formula_structural       Ba4K8N14O32
_chemical_formula_sum              "Ba4 K8 N14 O32"
_cell_length_a       8.78081
_cell_length_b       8.78081
_cell_length_c       12.5327
_cell_angle_alpha    109.298
_cell_angle_beta     109.354
_cell_angle_gamma    93.1711

_space_group_name_H-M_alt    "P 1"
_space_group_IT_number       1

loop_
  _space_group_symop_operation_xyz
  'x, y, z'

loop_
  _atom_site_type_symbol
  _atom_site_label
  _atom_site_symmetry_multiplicity
  _atom_site_fract_x
  _atom_site_fract_y
  _atom_site_fract_z
  _atom_site_occupancy
  Ba  Ba1       1.0  0.00000  0.00000  0.00000  1.0000
  Ba  Ba2       1.0  0.50000  0.50000  0.00000  1.0000
  Ba  Ba3       1.0  0.50000  0.00000  0.50000  1.0000
  Ba  Ba4       1.0  0.00000  0.50000  0.50000  1.0000
  K   K1        1.0  0.57500  0.09230  0.16900  1.0000
  K   K2        1.0  0.07660  0.59400  0.16900  1.0000
  K   K3        1.0  0.40700  0.42700  0.33700  1.0000
  K   K4        1.0  0.91000  0.92900  0.33700  1.0000
  K   K5        1.0  0.09010  0.07070  0.66300  1.0000
  K   K6        1.0  0.59300  0.57300  0.66300  1.0000
  K   K7        1.0  0.92300  0.40600  0.83100  1.0000
  K   K8        1.0  0.42500  0.90800  0.83100  1.0000
  N   N1        1.0  0.27000  0.27000  0.00000  1.0000
  N   N2        1.0  0.73000  0.73000  0.00000  1.0000
  N   N3        1.0  0.23200  0.77200  0.00357  1.0000
  N   N4        1.0  0.98900  0.24100  0.23000  1.0000
  N   N5        1.0  0.49400  0.73700  0.23100  1.0000
  N   N6        1.0  0.26100  0.01060  0.27100  1.0000
  N   N7        1.0  0.76300  0.50900  0.27200  1.0000
  N   N8        1.0  0.72800  0.76900  0.49700  1.0000
  N   N9        1.0  0.27200  0.23100  0.50300  1.0000
  N   N10       1.0  0.23700  0.49100  0.72800  1.0000
  N   N11       1.0  0.73900  0.98900  0.72900  1.0000
  N   N12       1.0  0.50600  0.26300  0.76900  1.0000
  N   N13       1.0  0.01140  0.75900  0.77000  1.0000
  N   N14       1.0  0.76800  0.22800  0.99600  1.0000
  O   O1        1.0  0.19700  0.62900  0.00349  1.0000
  O   O2        1.0  0.37400  0.80700  0.00349  1.0000
  O   O3        1.0  0.17500  0.31200  0.05830  1.0000
  O   O4        1.0  0.74700  0.88300  0.05830  1.0000
  O   O5        1.0  0.29600  0.09850  0.21700  1.0000
  O   O6        1.0  0.11900  0.92100  0.21700  1.0000
  O   O7        1.0  0.61800  0.42400  0.22000  1.0000
  O   O8        1.0  0.79600  0.60100  0.22000  1.0000
  O   O9        1.0  0.89800  0.20800  0.28300  1.0000
  O   O10       1.0  0.07550  0.38500  0.28300  1.0000
  O   O11       1.0  0.40500  0.70200  0.28500  1.0000
  O   O12       1.0  0.58200  0.88000  0.28500  1.0000
  O   O13       1.0  0.66900  0.25700  0.46600  1.0000
  O   O14       1.0  0.20900  0.79700  0.46600  1.0000
  O   O15       1.0  0.69300  0.62600  0.49600  1.0000
  O   O16       1.0  0.87000  0.80300  0.49600  1.0000
  O   O17       1.0  0.13000  0.19700  0.50400  1.0000
  O   O18       1.0  0.30700  0.37400  0.50400  1.0000
  O   O19       1.0  0.79100  0.20300  0.53400  1.0000
  O   O20       1.0  0.33100  0.74300  0.53400  1.0000
  O   O21       1.0  0.41800  0.12000  0.71500  1.0000
  O   O22       1.0  0.59500  0.29800  0.71500  1.0000
  O   O23       1.0  0.92400  0.61500  0.71700  1.0000
  O   O24       1.0  0.10200  0.79200  0.71700  1.0000
  O   O25       1.0  0.20400  0.39900  0.78000  1.0000
  O   O26       1.0  0.38200  0.57600  0.78000  1.0000
  O   O27       1.0  0.88100  0.07900  0.78300  1.0000
  O   O28       1.0  0.70400  0.90100  0.78300  1.0000
  O   O29       1.0  0.25300  0.11700  0.94200  1.0000
  O   O30       1.0  0.82500  0.68800  0.94200  1.0000
  O   O31       1.0  0.62600  0.19300  0.99700  1.0000
  O   O32       1.0  0.80300  0.37100  0.99700  1.0000
