data_image0
_chemical_formula_structural       Cs3Mo6O38P10
_chemical_formula_sum              "Cs3 Mo6 O38 P10"
_cell_length_a       9.39993
_cell_length_b       14.1594
_cell_length_c       6.4362
_cell_angle_alpha    91.4054
_cell_angle_beta     105.705
_cell_angle_gamma    90.2649

_space_group_name_H-M_alt    "P 1"
_space_group_IT_number       1

loop_
  _space_group_symop_operation_xyz
  'x, y, z'

loop_
  _atom_site_type_symbol
  _atom_site_label
  _atom_site_symmetry_multiplicity
  _atom_site_fract_x
  _atom_site_fract_y
  _atom_site_fract_z
  _atom_site_occupancy
  Cs  Cs1       1.0  0.00000  0.00000  0.00000  1.0000
  Cs  Cs2       1.0  0.37500  0.28300  0.04130  1.0000
  Cs  Cs3       1.0  0.62500  0.71700  0.95900  1.0000
  Mo  Mo1       1.0  0.33400  0.61000  0.25900  1.0000
  Mo  Mo2       1.0  0.37300  0.86400  0.28500  1.0000
  Mo  Mo3       1.0  0.04220  0.25000  0.37800  1.0000
  Mo  Mo4       1.0  0.95800  0.75000  0.62200  1.0000
  Mo  Mo5       1.0  0.62700  0.13600  0.71500  1.0000
  Mo  Mo6       1.0  0.66600  0.39000  0.74100  1.0000
  O   O1        1.0  0.62600  0.09970  0.02070  1.0000
  O   O2        1.0  0.67300  0.41700  0.05470  1.0000
  O   O3        1.0  0.06160  0.24100  0.07100  1.0000
  O   O4        1.0  0.12000  0.65100  0.17200  1.0000
  O   O5        1.0  0.14900  0.83300  0.21900  1.0000
  O   O6        1.0  0.39100  0.73500  0.25300  1.0000
  O   O7        1.0  0.84500  0.17800  0.28100  1.0000
  O   O8        1.0  0.27800  0.47100  0.28800  1.0000
  O   O9        1.0  0.93500  0.74900  0.30200  1.0000
  O   O10       1.0  0.92100  0.37200  0.32000  1.0000
  O   O11       1.0  0.32000  0.00313  0.33000  1.0000
  O   O12       1.0  0.78100  0.01290  0.34100  1.0000
  O   O13       1.0  0.54900  0.56900  0.34200  1.0000
  O   O14       1.0  0.59600  0.88500  0.34300  1.0000
  O   O15       1.0  0.80700  0.52300  0.36900  1.0000
  O   O16       1.0  0.60500  0.14400  0.38600  1.0000
  O   O17       1.0  0.14300  0.12000  0.41200  1.0000
  O   O18       1.0  0.67100  0.37300  0.42100  1.0000
  O   O19       1.0  0.24600  0.32000  0.46900  1.0000
  O   O20       1.0  0.75400  0.68000  0.53100  1.0000
  O   O21       1.0  0.32900  0.62700  0.57900  1.0000
  O   O22       1.0  0.85700  0.88000  0.58800  1.0000
  O   O23       1.0  0.39500  0.85600  0.61400  1.0000
  O   O24       1.0  0.19300  0.47700  0.63100  1.0000
  O   O25       1.0  0.40400  0.11500  0.65700  1.0000
  O   O26       1.0  0.45100  0.43100  0.65800  1.0000
  O   O27       1.0  0.21900  0.98700  0.65900  1.0000
  O   O28       1.0  0.68000  0.99700  0.67000  1.0000
  O   O29       1.0  0.07890  0.62800  0.68000  1.0000
  O   O30       1.0  0.06450  0.25100  0.69800  1.0000
  O   O31       1.0  0.72200  0.52900  0.71200  1.0000
  O   O32       1.0  0.15500  0.82200  0.71900  1.0000
  O   O33       1.0  0.60900  0.26500  0.74700  1.0000
  O   O34       1.0  0.85100  0.16700  0.78100  1.0000
  O   O35       1.0  0.88000  0.34900  0.82800  1.0000
  O   O36       1.0  0.93800  0.75900  0.92900  1.0000
  O   O37       1.0  0.32700  0.58300  0.94500  1.0000
  O   O38       1.0  0.37400  0.90000  0.97900  1.0000
  P   P1        1.0  0.04220  0.74700  0.15800  1.0000
  P   P2        1.0  0.71300  0.11500  0.25700  1.0000
  P   P3        1.0  0.76900  0.41400  0.28800  1.0000
  P   P4        1.0  0.72300  0.94000  0.49100  1.0000
  P   P5        1.0  0.70400  0.57800  0.49500  1.0000
  P   P6        1.0  0.29600  0.42200  0.50500  1.0000
  P   P7        1.0  0.27700  0.06030  0.50900  1.0000
  P   P8        1.0  0.23100  0.58600  0.71200  1.0000
  P   P9        1.0  0.28700  0.88500  0.74300  1.0000
  P   P10       1.0  0.95800  0.25300  0.84200  1.0000
