data_image0
_chemical_formula_structural       H8K4N10Nd2O34
_chemical_formula_sum              "H8 K4 N10 Nd2 O34"
_cell_length_a       7.99246
_cell_length_b       7.99246
_cell_length_c       11.6403
_cell_angle_alpha    108.432
_cell_angle_beta     108.432
_cell_angle_gamma    94.5319

_space_group_name_H-M_alt    "P 1"
_space_group_IT_number       1

loop_
  _space_group_symop_operation_xyz
  'x, y, z'

loop_
  _atom_site_type_symbol
  _atom_site_label
  _atom_site_symmetry_multiplicity
  _atom_site_fract_x
  _atom_site_fract_y
  _atom_site_fract_z
  _atom_site_occupancy
  H   H1        1.0  0.51800  0.10200  0.20200  1.0000
  H   H2        1.0  0.71500  0.12700  0.21200  1.0000
  H   H3        1.0  0.25300  0.16500  0.28800  1.0000
  H   H4        1.0  0.06590  0.14900  0.29800  1.0000
  H   H5        1.0  0.85100  0.93400  0.70200  1.0000
  H   H6        1.0  0.83500  0.74700  0.71200  1.0000
  H   H7        1.0  0.87300  0.28500  0.78800  1.0000
  H   H8        1.0  0.89800  0.48200  0.79800  1.0000
  K   K1        1.0  0.63800  0.69100  0.21100  1.0000
  K   K2        1.0  0.17700  0.73000  0.28900  1.0000
  K   K3        1.0  0.27000  0.82300  0.71100  1.0000
  K   K4        1.0  0.30900  0.36200  0.78900  1.0000
  N   N1        1.0  0.26100  0.73900  0.00000  1.0000
  N   N2        1.0  0.33900  0.21300  0.01890  1.0000
  N   N3        1.0  0.92100  0.34600  0.15100  1.0000
  N   N4        1.0  0.51900  0.44500  0.34900  1.0000
  N   N5        1.0  0.07020  0.44400  0.48100  1.0000
  N   N6        1.0  0.01080  0.98900  0.50000  1.0000
  N   N7        1.0  0.55600  0.93000  0.51900  1.0000
  N   N8        1.0  0.55500  0.48100  0.65100  1.0000
  N   N9        1.0  0.65400  0.07950  0.84900  1.0000
  N   N10       1.0  0.78700  0.66100  0.98100  1.0000
  Nd  Nd1       1.0  0.00222  0.99800  0.00000  1.0000
  Nd  Nd2       1.0  0.75200  0.24800  0.50000  1.0000
  O   O1        1.0  0.36700  0.63300  0.00000  1.0000
  O   O2        1.0  0.47700  0.31400  0.03680  1.0000
  O   O3        1.0  0.82800  0.80400  0.08210  1.0000
  O   O4        1.0  0.20800  0.80000  0.09470  1.0000
  O   O5        1.0  0.33000  0.14000  0.10200  1.0000
  O   O6        1.0  0.05600  0.35200  0.11700  1.0000
  O   O7        1.0  0.82800  0.19000  0.12200  1.0000
  O   O8        1.0  0.87900  0.48500  0.21200  1.0000
  O   O9        1.0  0.13500  0.08080  0.24900  1.0000
  O   O10       1.0  0.63600  0.08160  0.25100  1.0000
  O   O11       1.0  0.41800  0.52300  0.28800  1.0000
  O   O12       1.0  0.45600  0.31800  0.37800  1.0000
  O   O13       1.0  0.68900  0.48500  0.38300  1.0000
  O   O14       1.0  0.97800  0.28800  0.39800  1.0000
  O   O15       1.0  0.86300  0.95500  0.40500  1.0000
  O   O16       1.0  0.49600  0.97200  0.41800  1.0000
  O   O17       1.0  0.19000  0.52700  0.46300  1.0000
  O   O18       1.0  0.11700  0.88300  0.50000  1.0000
  O   O19       1.0  0.47300  0.81000  0.53700  1.0000
  O   O20       1.0  0.02850  0.50400  0.58200  1.0000
  O   O21       1.0  0.04510  0.13700  0.59500  1.0000
  O   O22       1.0  0.71200  0.02180  0.60200  1.0000
  O   O23       1.0  0.51500  0.31100  0.61700  1.0000
  O   O24       1.0  0.68200  0.54400  0.62200  1.0000
  O   O25       1.0  0.47700  0.58200  0.71200  1.0000
  O   O26       1.0  0.91800  0.36400  0.74900  1.0000
  O   O27       1.0  0.91900  0.86500  0.75100  1.0000
  O   O28       1.0  0.51500  0.12100  0.78800  1.0000
  O   O29       1.0  0.81000  0.17200  0.87800  1.0000
  O   O30       1.0  0.64800  0.94400  0.88300  1.0000
  O   O31       1.0  0.86000  0.67000  0.89800  1.0000
  O   O32       1.0  0.20000  0.79200  0.90500  1.0000
  O   O33       1.0  0.19600  0.17200  0.91800  1.0000
  O   O34       1.0  0.68600  0.52300  0.96300  1.0000
