data_image0
_chemical_formula_structural       Ag16S32Sn12
_chemical_formula_sum              "Ag16 S32 Sn12"
_cell_length_a       10.8957
_cell_length_b       10.8957
_cell_length_c       10.8957
_cell_angle_alpha    90
_cell_angle_beta     90
_cell_angle_gamma    90

_space_group_name_H-M_alt    "P 1"
_space_group_IT_number       1

loop_
  _space_group_symop_operation_xyz
  'x, y, z'

loop_
  _atom_site_type_symbol
  _atom_site_label
  _atom_site_symmetry_multiplicity
  _atom_site_fract_x
  _atom_site_fract_y
  _atom_site_fract_z
  _atom_site_occupancy
  Ag  Ag1       1.0  0.87500  0.64500  0.10500  1.0000
  Ag  Ag2       1.0  0.14500  0.39500  0.12500  1.0000
  Ag  Ag3       1.0  0.37500  0.62500  0.12500  1.0000
  Ag  Ag4       1.0  0.39500  0.12500  0.14500  1.0000
  Ag  Ag5       1.0  0.60500  0.62500  0.35500  1.0000
  Ag  Ag6       1.0  0.62500  0.12500  0.37500  1.0000
  Ag  Ag7       1.0  0.85500  0.89500  0.37500  1.0000
  Ag  Ag8       1.0  0.12500  0.14500  0.39500  1.0000
  Ag  Ag9       1.0  0.62500  0.35500  0.60500  1.0000
  Ag  Ag10      1.0  0.12500  0.37500  0.62500  1.0000
  Ag  Ag11      1.0  0.35500  0.60500  0.62500  1.0000
  Ag  Ag12      1.0  0.10500  0.87500  0.64500  1.0000
  Ag  Ag13      1.0  0.89500  0.37500  0.85500  1.0000
  Ag  Ag14      1.0  0.64500  0.10500  0.87500  1.0000
  Ag  Ag15      1.0  0.87500  0.87500  0.87500  1.0000
  Ag  Ag16      1.0  0.37500  0.85500  0.89500  1.0000
  S   S1        1.0  0.63800  0.61200  0.10100  1.0000
  S   S2        1.0  0.39900  0.36200  0.11200  1.0000
  S   S3        1.0  0.64900  0.13800  0.11200  1.0000
  S   S4        1.0  0.87900  0.37900  0.12100  1.0000
  S   S5        1.0  0.12900  0.12900  0.12900  1.0000
  S   S6        1.0  0.88800  0.89900  0.13800  1.0000
  S   S7        1.0  0.11200  0.64900  0.13800  1.0000
  S   S8        1.0  0.36200  0.88800  0.14900  1.0000
  S   S9        1.0  0.63800  0.38800  0.35100  1.0000
  S   S10       1.0  0.88800  0.14900  0.36200  1.0000
  S   S11       1.0  0.11200  0.39900  0.36200  1.0000
  S   S12       1.0  0.87100  0.62900  0.37100  1.0000
  S   S13       1.0  0.12100  0.87900  0.37900  1.0000
  S   S14       1.0  0.35100  0.63800  0.38800  1.0000
  S   S15       1.0  0.60100  0.86200  0.38800  1.0000
  S   S16       1.0  0.36200  0.11200  0.39900  1.0000
  S   S17       1.0  0.86200  0.38800  0.60100  1.0000
  S   S18       1.0  0.10100  0.63800  0.61200  1.0000
  S   S19       1.0  0.85100  0.86200  0.61200  1.0000
  S   S20       1.0  0.62100  0.62100  0.62100  1.0000
  S   S21       1.0  0.37100  0.87100  0.62900  1.0000
  S   S22       1.0  0.61200  0.10100  0.63800  1.0000
  S   S23       1.0  0.38800  0.35100  0.63800  1.0000
  S   S24       1.0  0.13800  0.11200  0.64900  1.0000
  S   S25       1.0  0.86200  0.61200  0.85100  1.0000
  S   S26       1.0  0.61200  0.85100  0.86200  1.0000
  S   S27       1.0  0.38800  0.60100  0.86200  1.0000
  S   S28       1.0  0.62900  0.37100  0.87100  1.0000
  S   S29       1.0  0.37900  0.12100  0.87900  1.0000
  S   S30       1.0  0.14900  0.36200  0.88800  1.0000
  S   S31       1.0  0.89900  0.13800  0.88800  1.0000
  S   S32       1.0  0.13800  0.88800  0.89900  1.0000
  Sn  Sn1       1.0  0.63600  0.37500  0.11400  1.0000
  Sn  Sn2       1.0  0.88600  0.13600  0.12500  1.0000
  Sn  Sn3       1.0  0.12500  0.88600  0.13600  1.0000
  Sn  Sn4       1.0  0.87500  0.38600  0.36400  1.0000
  Sn  Sn5       1.0  0.11400  0.63600  0.37500  1.0000
  Sn  Sn6       1.0  0.36400  0.87500  0.38600  1.0000
  Sn  Sn7       1.0  0.86400  0.62500  0.61400  1.0000
  Sn  Sn8       1.0  0.61400  0.86400  0.62500  1.0000
  Sn  Sn9       1.0  0.37500  0.11400  0.63600  1.0000
  Sn  Sn10      1.0  0.62500  0.61400  0.86400  1.0000
  Sn  Sn11      1.0  0.38600  0.36400  0.87500  1.0000
  Sn  Sn12      1.0  0.13600  0.12500  0.88600  1.0000
