data_image0
_chemical_formula_structural       Cl32Nb8O8Tl8
_chemical_formula_sum              "Cl32 Nb8 O8 Tl8"
_cell_length_a       12.819
_cell_length_b       8.06151
_cell_length_c       15.1614
_cell_angle_alpha    90
_cell_angle_beta     90
_cell_angle_gamma    90

_space_group_name_H-M_alt    "P 1"
_space_group_IT_number       1

loop_
  _space_group_symop_operation_xyz
  'x, y, z'

loop_
  _atom_site_type_symbol
  _atom_site_label
  _atom_site_symmetry_multiplicity
  _atom_site_fract_x
  _atom_site_fract_y
  _atom_site_fract_z
  _atom_site_occupancy
  Cl  Cl1       1.0  0.42300  0.17400  0.03720  1.0000
  Cl  Cl2       1.0  0.07700  0.67400  0.03720  1.0000
  Cl  Cl3       1.0  0.68500  0.35300  0.05750  1.0000
  Cl  Cl4       1.0  0.81500  0.85300  0.05750  1.0000
  Cl  Cl5       1.0  0.07230  0.14300  0.14700  1.0000
  Cl  Cl6       1.0  0.42800  0.64300  0.14700  1.0000
  Cl  Cl7       1.0  0.31400  0.15300  0.24000  1.0000
  Cl  Cl8       1.0  0.18600  0.65300  0.24000  1.0000
  Cl  Cl9       1.0  0.81400  0.15300  0.26000  1.0000
  Cl  Cl10      1.0  0.68600  0.65300  0.26000  1.0000
  Cl  Cl11      1.0  0.57200  0.14300  0.35300  1.0000
  Cl  Cl12      1.0  0.92800  0.64300  0.35300  1.0000
  Cl  Cl13      1.0  0.18500  0.35300  0.44200  1.0000
  Cl  Cl14      1.0  0.31500  0.85300  0.44200  1.0000
  Cl  Cl15      1.0  0.92300  0.17400  0.46300  1.0000
  Cl  Cl16      1.0  0.57700  0.67400  0.46300  1.0000
  Cl  Cl17      1.0  0.42300  0.32600  0.53700  1.0000
  Cl  Cl18      1.0  0.07700  0.82600  0.53700  1.0000
  Cl  Cl19      1.0  0.68500  0.14700  0.55800  1.0000
  Cl  Cl20      1.0  0.81500  0.64700  0.55800  1.0000
  Cl  Cl21      1.0  0.07230  0.35700  0.64700  1.0000
  Cl  Cl22      1.0  0.42800  0.85700  0.64700  1.0000
  Cl  Cl23      1.0  0.31400  0.34700  0.74000  1.0000
  Cl  Cl24      1.0  0.18600  0.84700  0.74000  1.0000
  Cl  Cl25      1.0  0.81400  0.34700  0.76000  1.0000
  Cl  Cl26      1.0  0.68600  0.84700  0.76000  1.0000
  Cl  Cl27      1.0  0.57200  0.35700  0.85300  1.0000
  Cl  Cl28      1.0  0.92800  0.85700  0.85300  1.0000
  Cl  Cl29      1.0  0.18500  0.14700  0.94200  1.0000
  Cl  Cl30      1.0  0.31500  0.64700  0.94200  1.0000
  Cl  Cl31      1.0  0.92300  0.32600  0.96300  1.0000
  Cl  Cl32      1.0  0.57700  0.82600  0.96300  1.0000
  Nb  Nb1       1.0  0.24600  0.19000  0.09110  1.0000
  Nb  Nb2       1.0  0.25400  0.69000  0.09110  1.0000
  Nb  Nb3       1.0  0.74600  0.19000  0.40900  1.0000
  Nb  Nb4       1.0  0.75400  0.69000  0.40900  1.0000
  Nb  Nb5       1.0  0.24600  0.31000  0.59100  1.0000
  Nb  Nb6       1.0  0.25400  0.81000  0.59100  1.0000
  Nb  Nb7       1.0  0.74600  0.31000  0.90900  1.0000
  Nb  Nb8       1.0  0.75400  0.81000  0.90900  1.0000
  O   O1        1.0  0.24100  0.41100  0.09150  1.0000
  O   O2        1.0  0.25900  0.91100  0.09150  1.0000
  O   O3        1.0  0.74100  0.41100  0.40900  1.0000
  O   O4        1.0  0.75900  0.91100  0.40900  1.0000
  O   O5        1.0  0.24100  0.08860  0.59100  1.0000
  O   O6        1.0  0.25900  0.58900  0.59100  1.0000
  O   O7        1.0  0.74100  0.08860  0.90900  1.0000
  O   O8        1.0  0.75900  0.58900  0.90900  1.0000
  Tl  Tl1       1.0  0.89600  0.48900  0.15600  1.0000
  Tl  Tl2       1.0  0.60400  0.98900  0.15600  1.0000
  Tl  Tl3       1.0  0.39600  0.48900  0.34400  1.0000
  Tl  Tl4       1.0  0.10400  0.98900  0.34400  1.0000
  Tl  Tl5       1.0  0.89600  0.01100  0.65600  1.0000
  Tl  Tl6       1.0  0.60400  0.51100  0.65600  1.0000
  Tl  Tl7       1.0  0.39600  0.01100  0.84400  1.0000
  Tl  Tl8       1.0  0.10400  0.51100  0.84400  1.0000
