data_image0
_chemical_formula_structural       O32Pb20S4
_chemical_formula_sum              "O32 Pb20 S4"
_cell_length_a       7.33495
_cell_length_b       11.6178
_cell_length_c       11.4927
_cell_angle_alpha    89.9984
_cell_angle_beta     90.8864
_cell_angle_gamma    90.001

_space_group_name_H-M_alt    "P 1"
_space_group_IT_number       1

loop_
  _space_group_symop_operation_xyz
  'x, y, z'

loop_
  _atom_site_type_symbol
  _atom_site_label
  _atom_site_symmetry_multiplicity
  _atom_site_fract_x
  _atom_site_fract_y
  _atom_site_fract_z
  _atom_site_occupancy
  O   O1        1.0  0.60800  0.39900  0.00000  1.0000
  O   O2        1.0  0.39200  0.60100  0.00000  1.0000
  O   O3        1.0  0.86600  0.58500  0.00837  1.0000
  O   O4        1.0  0.87300  0.22200  0.01010  1.0000
  O   O5        1.0  0.27500  1.00000  0.10000  1.0000
  O   O6        1.0  0.54000  0.13100  0.10500  1.0000
  O   O7        1.0  0.23300  0.20500  0.12600  1.0000
  O   O8        1.0  0.13700  0.67300  0.20900  1.0000
  O   O9        1.0  0.62800  0.59100  0.21800  1.0000
  O   O10       1.0  0.37200  0.09080  0.28200  1.0000
  O   O11       1.0  0.86300  0.17300  0.29100  1.0000
  O   O12       1.0  0.76700  0.70500  0.37400  1.0000
  O   O13       1.0  0.46000  0.63100  0.39500  1.0000
  O   O14       1.0  0.72500  0.50000  0.40000  1.0000
  O   O15       1.0  0.12700  0.72200  0.49000  1.0000
  O   O16       1.0  0.13400  0.08500  0.49200  1.0000
  O   O17       1.0  0.60800  0.10100  0.50000  1.0000
  O   O18       1.0  0.39200  0.89900  0.50000  1.0000
  O   O19       1.0  0.86600  0.91500  0.50800  1.0000
  O   O20       1.0  0.87300  0.27800  0.51000  1.0000
  O   O21       1.0  0.27500  0.50000  0.60000  1.0000
  O   O22       1.0  0.54000  0.36900  0.60500  1.0000
  O   O23       1.0  0.23300  0.29500  0.62600  1.0000
  O   O24       1.0  0.13700  0.82700  0.70900  1.0000
  O   O25       1.0  0.62800  0.90900  0.71800  1.0000
  O   O26       1.0  0.37200  0.40900  0.78200  1.0000
  O   O27       1.0  0.86300  0.32700  0.79100  1.0000
  O   O28       1.0  0.76700  0.79500  0.87400  1.0000
  O   O29       1.0  0.46000  0.86900  0.89500  1.0000
  O   O30       1.0  0.72500  0.00026  0.90000  1.0000
  O   O31       1.0  0.12700  0.77800  0.99000  1.0000
  O   O32       1.0  0.13400  0.41500  0.99200  1.0000
  Pb  Pb1       1.0  0.87800  0.40800  0.11200  1.0000
  Pb  Pb2       1.0  0.88800  0.74700  0.11500  1.0000
  Pb  Pb3       1.0  0.37300  0.76300  0.11500  1.0000
  Pb  Pb4       1.0  0.37300  0.43900  0.12000  1.0000
  Pb  Pb5       1.0  0.86800  0.07280  0.12800  1.0000
  Pb  Pb6       1.0  0.13200  0.57300  0.37200  1.0000
  Pb  Pb7       1.0  0.62700  0.93900  0.38000  1.0000
  Pb  Pb8       1.0  0.62700  0.26300  0.38500  1.0000
  Pb  Pb9       1.0  0.11200  0.24700  0.38500  1.0000
  Pb  Pb10      1.0  0.12200  0.90800  0.38800  1.0000
  Pb  Pb11      1.0  0.87800  0.09210  0.61200  1.0000
  Pb  Pb12      1.0  0.88800  0.75300  0.61500  1.0000
  Pb  Pb13      1.0  0.37300  0.73700  0.61500  1.0000
  Pb  Pb14      1.0  0.37300  0.06100  0.62000  1.0000
  Pb  Pb15      1.0  0.86800  0.42700  0.62800  1.0000
  Pb  Pb16      1.0  0.13200  0.92700  0.87200  1.0000
  Pb  Pb17      1.0  0.62700  0.56100  0.88000  1.0000
  Pb  Pb18      1.0  0.62700  0.23700  0.88500  1.0000
  Pb  Pb19      1.0  0.11200  0.25300  0.88500  1.0000
  Pb  Pb20      1.0  0.12200  0.59200  0.88800  1.0000
  S   S1        1.0  0.35600  0.10500  0.15200  1.0000
  S   S2        1.0  0.64400  0.60500  0.34800  1.0000
  S   S3        1.0  0.35600  0.39500  0.65200  1.0000
  S   S4        1.0  0.64400  0.89500  0.84800  1.0000
