data_image0
_chemical_formula_structural       Ba4Ge12Na4Nd4O36
_chemical_formula_sum              "Ba4 Ge12 Na4 Nd4 O36"
_cell_length_a       5.85449
_cell_length_b       11.6362
_cell_length_c       12.8587
_cell_angle_alpha    90
_cell_angle_beta     90
_cell_angle_gamma    90

_space_group_name_H-M_alt    "P 1"
_space_group_IT_number       1

loop_
  _space_group_symop_operation_xyz
  'x, y, z'

loop_
  _atom_site_type_symbol
  _atom_site_label
  _atom_site_symmetry_multiplicity
  _atom_site_fract_x
  _atom_site_fract_y
  _atom_site_fract_z
  _atom_site_occupancy
  Ba  Ba1       1.0  0.10400  0.61500  0.08290  1.0000
  Ba  Ba2       1.0  0.89600  0.11500  0.41700  1.0000
  Ba  Ba3       1.0  0.39600  0.38500  0.58300  1.0000
  Ba  Ba4       1.0  0.60400  0.88500  0.91700  1.0000
  Ge  Ge1       1.0  0.60300  0.41400  0.11700  1.0000
  Ge  Ge2       1.0  0.59900  0.14200  0.13700  1.0000
  Ge  Ge3       1.0  0.61200  0.79600  0.18700  1.0000
  Ge  Ge4       1.0  0.38800  0.29600  0.31300  1.0000
  Ge  Ge5       1.0  0.40100  0.64200  0.36300  1.0000
  Ge  Ge6       1.0  0.39700  0.91400  0.38300  1.0000
  Ge  Ge7       1.0  0.89700  0.58600  0.61700  1.0000
  Ge  Ge8       1.0  0.90100  0.85800  0.63700  1.0000
  Ge  Ge9       1.0  0.88800  0.20400  0.68700  1.0000
  Ge  Ge10      1.0  0.11200  0.70400  0.81300  1.0000
  Ge  Ge11      1.0  0.09880  0.35800  0.86300  1.0000
  Ge  Ge12      1.0  0.10300  0.08620  0.88300  1.0000
  Na  Na1       1.0  0.07350  0.28200  0.11500  1.0000
  Na  Na2       1.0  0.92600  0.78200  0.38500  1.0000
  Na  Na3       1.0  0.42600  0.71800  0.61500  1.0000
  Na  Na4       1.0  0.57400  0.21800  0.88500  1.0000
  Nd  Nd1       1.0  0.12000  0.96600  0.14100  1.0000
  Nd  Nd2       1.0  0.88000  0.46600  0.35900  1.0000
  Nd  Nd3       1.0  0.38000  0.03360  0.64100  1.0000
  Nd  Nd4       1.0  0.62000  0.53400  0.85900  1.0000
  O   O1        1.0  0.50400  0.51600  0.03130  1.0000
  O   O2        1.0  0.60600  0.27200  0.05840  1.0000
  O   O3        1.0  0.46400  0.03900  0.06180  1.0000
  O   O4        1.0  0.36200  0.80300  0.11500  1.0000
  O   O5        1.0  0.85900  0.81200  0.11600  1.0000
  O   O6        1.0  0.86500  0.43500  0.17700  1.0000
  O   O7        1.0  0.87100  0.12200  0.18800  1.0000
  O   O8        1.0  0.37500  0.40400  0.21200  1.0000
  O   O9        1.0  0.38000  0.16500  0.23600  1.0000
  O   O10       1.0  0.62000  0.66500  0.26400  1.0000
  O   O11       1.0  0.62500  0.90400  0.28800  1.0000
  O   O12       1.0  0.12900  0.62200  0.31200  1.0000
  O   O13       1.0  0.13500  0.93500  0.32300  1.0000
  O   O14       1.0  0.14100  0.31200  0.38400  1.0000
  O   O15       1.0  0.63800  0.30300  0.38500  1.0000
  O   O16       1.0  0.53600  0.53900  0.43800  1.0000
  O   O17       1.0  0.39400  0.77200  0.44200  1.0000
  O   O18       1.0  0.49600  0.01580  0.46900  1.0000
  O   O19       1.0  0.99600  0.48400  0.53100  1.0000
  O   O20       1.0  0.89400  0.72800  0.55800  1.0000
  O   O21       1.0  0.03580  0.96100  0.56200  1.0000
  O   O22       1.0  0.13800  0.19700  0.61500  1.0000
  O   O23       1.0  0.64100  0.18800  0.61600  1.0000
  O   O24       1.0  0.63500  0.56500  0.67700  1.0000
  O   O25       1.0  0.62900  0.87800  0.68800  1.0000
  O   O26       1.0  0.12500  0.59600  0.71200  1.0000
  O   O27       1.0  0.12000  0.83500  0.73600  1.0000
  O   O28       1.0  0.88000  0.33500  0.76400  1.0000
  O   O29       1.0  0.87500  0.09580  0.78800  1.0000
  O   O30       1.0  0.37100  0.37800  0.81200  1.0000
  O   O31       1.0  0.36500  0.06460  0.82300  1.0000
  O   O32       1.0  0.35900  0.68800  0.88400  1.0000
  O   O33       1.0  0.86200  0.69700  0.88500  1.0000
  O   O34       1.0  0.96400  0.46100  0.93800  1.0000
  O   O35       1.0  0.10600  0.22800  0.94200  1.0000
  O   O36       1.0  0.00411  0.98400  0.96900  1.0000
