data_image0
_chemical_formula_structural       H8K4N10O34Pr2
_chemical_formula_sum              "H8 K4 N10 O34 Pr2"
_cell_length_a       8.05757
_cell_length_b       8.05757
_cell_length_c       11.7135
_cell_angle_alpha    108.492
_cell_angle_beta     108.492
_cell_angle_gamma    94.4643

_space_group_name_H-M_alt    "P 1"
_space_group_IT_number       1

loop_
  _space_group_symop_operation_xyz
  'x, y, z'

loop_
  _atom_site_type_symbol
  _atom_site_label
  _atom_site_symmetry_multiplicity
  _atom_site_fract_x
  _atom_site_fract_y
  _atom_site_fract_z
  _atom_site_occupancy
  H   H1        1.0  0.52100  0.10300  0.20200  1.0000
  H   H2        1.0  0.71700  0.12700  0.21300  1.0000
  H   H3        1.0  0.25400  0.16500  0.28700  1.0000
  H   H4        1.0  0.06940  0.15200  0.29800  1.0000
  H   H5        1.0  0.84800  0.93100  0.70200  1.0000
  H   H6        1.0  0.83500  0.74600  0.71300  1.0000
  H   H7        1.0  0.87300  0.28300  0.78700  1.0000
  H   H8        1.0  0.89700  0.47900  0.79800  1.0000
  K   K1        1.0  0.63900  0.68900  0.20900  1.0000
  K   K2        1.0  0.18000  0.72900  0.29100  1.0000
  K   K3        1.0  0.27100  0.82000  0.70900  1.0000
  K   K4        1.0  0.31100  0.36100  0.79100  1.0000
  N   N1        1.0  0.26000  0.74000  0.00000  1.0000
  N   N2        1.0  0.33800  0.21300  0.01860  1.0000
  N   N3        1.0  0.92100  0.34600  0.15100  1.0000
  N   N4        1.0  0.52000  0.44500  0.34900  1.0000
  N   N5        1.0  0.06970  0.44500  0.48100  1.0000
  N   N6        1.0  0.00983  0.99000  0.50000  1.0000
  N   N7        1.0  0.55500  0.93000  0.51900  1.0000
  N   N8        1.0  0.55500  0.48000  0.65100  1.0000
  N   N9        1.0  0.65400  0.07880  0.84900  1.0000
  N   N10       1.0  0.78700  0.66200  0.98100  1.0000
  O   O1        1.0  0.36500  0.63500  0.00000  1.0000
  O   O2        1.0  0.47300  0.31600  0.03630  1.0000
  O   O3        1.0  0.82800  0.80400  0.08170  1.0000
  O   O4        1.0  0.20800  0.80100  0.09450  1.0000
  O   O5        1.0  0.33100  0.14000  0.10100  1.0000
  O   O6        1.0  0.05620  0.35000  0.11700  1.0000
  O   O7        1.0  0.82800  0.19100  0.12200  1.0000
  O   O8        1.0  0.88100  0.48500  0.21000  1.0000
  O   O9        1.0  0.13700  0.08260  0.24900  1.0000
  O   O10       1.0  0.63700  0.08320  0.25100  1.0000
  O   O11       1.0  0.42100  0.52400  0.29000  1.0000
  O   O12       1.0  0.45600  0.31900  0.37800  1.0000
  O   O13       1.0  0.68900  0.48300  0.38300  1.0000
  O   O14       1.0  0.98100  0.28900  0.39900  1.0000
  O   O15       1.0  0.86400  0.95600  0.40500  1.0000
  O   O16       1.0  0.49600  0.97200  0.41800  1.0000
  O   O17       1.0  0.18700  0.53000  0.46400  1.0000
  O   O18       1.0  0.11500  0.88500  0.50000  1.0000
  O   O19       1.0  0.47000  0.81300  0.53600  1.0000
  O   O20       1.0  0.02780  0.50400  0.58200  1.0000
  O   O21       1.0  0.04380  0.13600  0.59500  1.0000
  O   O22       1.0  0.71100  0.01920  0.60100  1.0000
  O   O23       1.0  0.51700  0.31100  0.61700  1.0000
  O   O24       1.0  0.68100  0.54400  0.62200  1.0000
  O   O25       1.0  0.47600  0.57900  0.71000  1.0000
  O   O26       1.0  0.91700  0.36300  0.74900  1.0000
  O   O27       1.0  0.91700  0.86300  0.75100  1.0000
  O   O28       1.0  0.51500  0.11900  0.79000  1.0000
  O   O29       1.0  0.80900  0.17200  0.87800  1.0000
  O   O30       1.0  0.65000  0.94400  0.88300  1.0000
  O   O31       1.0  0.86000  0.66900  0.89900  1.0000
  O   O32       1.0  0.19900  0.79200  0.90500  1.0000
  O   O33       1.0  0.19600  0.17200  0.91800  1.0000
  O   O34       1.0  0.68400  0.52700  0.96400  1.0000
  Pr  Pr1       1.0  0.00242  0.99800  0.00000  1.0000
  Pr  Pr2       1.0  0.75200  0.24800  0.50000  1.0000
