data_image0
_chemical_formula_structural       As4F40N4S4Xe4
_chemical_formula_sum              "As4 F40 N4 S4 Xe4"
_cell_length_a       4.70093
_cell_length_b       12.4615
_cell_length_c       13.6365
_cell_angle_alpha    111.718
_cell_angle_beta     99.9254
_cell_angle_gamma    100.872

_space_group_name_H-M_alt    "P 1"
_space_group_IT_number       1

loop_
  _space_group_symop_operation_xyz
  'x, y, z'

loop_
  _atom_site_type_symbol
  _atom_site_label
  _atom_site_symmetry_multiplicity
  _atom_site_fract_x
  _atom_site_fract_y
  _atom_site_fract_z
  _atom_site_occupancy
  As  As1       1.0  0.20300  0.22400  0.02130  1.0000
  As  As2       1.0  0.45800  0.27600  0.47900  1.0000
  As  As3       1.0  0.54200  0.72400  0.52100  1.0000
  As  As4       1.0  0.79700  0.77600  0.97900  1.0000
  F   F1        1.0  0.07250  0.70800  0.00634  1.0000
  F   F2        1.0  0.05440  0.92000  0.04660  1.0000
  F   F3        1.0  0.48800  0.14900  0.04690  1.0000
  F   F4        1.0  0.72000  0.55300  0.07490  1.0000
  F   F5        1.0  0.47900  0.36100  0.09170  1.0000
  F   F6        1.0  0.69700  0.79100  0.09970  1.0000
  F   F7        1.0  0.20800  0.57300  0.10700  1.0000
  F   F8        1.0  0.13700  0.23600  0.14800  1.0000
  F   F9        1.0  0.07470  0.71500  0.22700  1.0000
  F   F10       1.0  0.71800  0.59000  0.24700  1.0000
  F   F11       1.0  0.38100  0.91000  0.25300  1.0000
  F   F12       1.0  0.63300  0.78500  0.27300  1.0000
  F   F13       1.0  0.25400  0.26400  0.35200  1.0000
  F   F14       1.0  0.02720  0.92700  0.39300  1.0000
  F   F15       1.0  0.30600  0.70900  0.40000  1.0000
  F   F16       1.0  0.52600  0.13900  0.40800  1.0000
  F   F17       1.0  0.59200  0.94700  0.42500  1.0000
  F   F18       1.0  0.79200  0.35100  0.45300  1.0000
  F   F19       1.0  0.58700  0.58000  0.45300  1.0000
  F   F20       1.0  0.85800  0.79200  0.49400  1.0000
  F   F21       1.0  0.14200  0.20800  0.50600  1.0000
  F   F22       1.0  0.41300  0.42000  0.54700  1.0000
  F   F23       1.0  0.20800  0.64900  0.54700  1.0000
  F   F24       1.0  0.40800  0.05260  0.57500  1.0000
  F   F25       1.0  0.47400  0.86100  0.59200  1.0000
  F   F26       1.0  0.69400  0.29100  0.60000  1.0000
  F   F27       1.0  0.97300  0.07340  0.60700  1.0000
  F   F28       1.0  0.74600  0.73600  0.64800  1.0000
  F   F29       1.0  0.36700  0.21500  0.72700  1.0000
  F   F30       1.0  0.61900  0.08960  0.74700  1.0000
  F   F31       1.0  0.28200  0.41000  0.75300  1.0000
  F   F32       1.0  0.92500  0.28500  0.77300  1.0000
  F   F33       1.0  0.86300  0.76400  0.85200  1.0000
  F   F34       1.0  0.79200  0.42700  0.89300  1.0000
  F   F35       1.0  0.30300  0.20900  0.90000  1.0000
  F   F36       1.0  0.52100  0.63900  0.90800  1.0000
  F   F37       1.0  0.28000  0.44700  0.92500  1.0000
  F   F38       1.0  0.51200  0.85100  0.95300  1.0000
  F   F39       1.0  0.94600  0.07970  0.95300  1.0000
  F   F40       1.0  0.92700  0.29200  0.99400  1.0000
  N   N1        1.0  0.09680  0.48400  0.20900  1.0000
  N   N2        1.0  0.90300  0.01580  0.29100  1.0000
  N   N3        1.0  0.09670  0.98400  0.70900  1.0000
  N   N4        1.0  0.90300  0.51600  0.79100  1.0000
  S   S1        1.0  0.96600  0.57600  0.17700  1.0000
  S   S2        1.0  0.71300  0.92400  0.32300  1.0000
  S   S3        1.0  0.28700  0.07610  0.67700  1.0000
  S   S4        1.0  0.03390  0.42400  0.82300  1.0000
  Xe  Xe1       1.0  0.66500  0.07580  0.18500  1.0000
  Xe  Xe2       1.0  0.90400  0.42400  0.31500  1.0000
  Xe  Xe3       1.0  0.09580  0.57600  0.68500  1.0000
  Xe  Xe4       1.0  0.33500  0.92400  0.81500  1.0000
