data_image0
_chemical_formula_structural       F40Tl8U8
_chemical_formula_sum              "F40 Tl8 U8"
_cell_length_a       8.09539
_cell_length_b       13.248
_cell_length_c       8.117
_cell_angle_alpha    90
_cell_angle_beta     102.305
_cell_angle_gamma    90

_space_group_name_H-M_alt    "P 1"
_space_group_IT_number       1

loop_
  _space_group_symop_operation_xyz
  'x, y, z'

loop_
  _atom_site_type_symbol
  _atom_site_label
  _atom_site_symmetry_multiplicity
  _atom_site_fract_x
  _atom_site_fract_y
  _atom_site_fract_z
  _atom_site_occupancy
  F   F1        1.0  0.22300  0.64200  0.00898  1.0000
  F   F2        1.0  0.47800  0.90400  0.01240  1.0000
  F   F3        1.0  0.72800  0.76700  0.02700  1.0000
  F   F4        1.0  0.98600  0.90600  0.06700  1.0000
  F   F5        1.0  0.46600  0.40500  0.07580  1.0000
  F   F6        1.0  0.92800  0.59000  0.10800  1.0000
  F   F7        1.0  0.83300  0.18100  0.13900  1.0000
  F   F8        1.0  0.09240  0.29400  0.18300  1.0000
  F   F9        1.0  0.29200  0.80900  0.18900  1.0000
  F   F10       1.0  0.53700  0.69000  0.23300  1.0000
  F   F11       1.0  0.46300  0.19000  0.26700  1.0000
  F   F12       1.0  0.70800  0.30900  0.31100  1.0000
  F   F13       1.0  0.90800  0.79400  0.31700  1.0000
  F   F14       1.0  0.16700  0.68100  0.36100  1.0000
  F   F15       1.0  0.07150  0.08960  0.39200  1.0000
  F   F16       1.0  0.53400  0.90500  0.42400  1.0000
  F   F17       1.0  0.01410  0.40600  0.43300  1.0000
  F   F18       1.0  0.27200  0.26700  0.47300  1.0000
  F   F19       1.0  0.52200  0.40400  0.48800  1.0000
  F   F20       1.0  0.77700  0.14200  0.49100  1.0000
  F   F21       1.0  0.22300  0.85800  0.50900  1.0000
  F   F22       1.0  0.47800  0.59600  0.51200  1.0000
  F   F23       1.0  0.72800  0.73300  0.52700  1.0000
  F   F24       1.0  0.98600  0.59400  0.56700  1.0000
  F   F25       1.0  0.46600  0.09520  0.57600  1.0000
  F   F26       1.0  0.92800  0.91000  0.60800  1.0000
  F   F27       1.0  0.83300  0.31900  0.63900  1.0000
  F   F28       1.0  0.09240  0.20600  0.68300  1.0000
  F   F29       1.0  0.29200  0.69100  0.68900  1.0000
  F   F30       1.0  0.53700  0.81000  0.73300  1.0000
  F   F31       1.0  0.46300  0.31000  0.76700  1.0000
  F   F32       1.0  0.70800  0.19100  0.81100  1.0000
  F   F33       1.0  0.90800  0.70600  0.81700  1.0000
  F   F34       1.0  0.16700  0.81900  0.86100  1.0000
  F   F35       1.0  0.07150  0.41000  0.89200  1.0000
  F   F36       1.0  0.53400  0.59500  0.92400  1.0000
  F   F37       1.0  0.01410  0.09360  0.93300  1.0000
  F   F38       1.0  0.27200  0.23300  0.97300  1.0000
  F   F39       1.0  0.52200  0.09650  0.98800  1.0000
  F   F40       1.0  0.77700  0.35800  0.99100  1.0000
  Tl  Tl1       1.0  0.27500  0.01750  0.19900  1.0000
  Tl  Tl2       1.0  0.23700  0.48300  0.23500  1.0000
  Tl  Tl3       1.0  0.76300  0.98300  0.26500  1.0000
  Tl  Tl4       1.0  0.72500  0.51700  0.30100  1.0000
  Tl  Tl5       1.0  0.27500  0.48300  0.69900  1.0000
  Tl  Tl6       1.0  0.23700  0.01700  0.73500  1.0000
  Tl  Tl7       1.0  0.76300  0.51700  0.76500  1.0000
  Tl  Tl8       1.0  0.72500  0.98300  0.80100  1.0000
  U   U1        1.0  0.55300  0.25600  0.03680  1.0000
  U   U2        1.0  0.01370  0.74400  0.09140  1.0000
  U   U3        1.0  0.98600  0.24400  0.40900  1.0000
  U   U4        1.0  0.44700  0.75600  0.46300  1.0000
  U   U5        1.0  0.55300  0.24400  0.53700  1.0000
  U   U6        1.0  0.01370  0.75600  0.59100  1.0000
  U   U7        1.0  0.98600  0.25600  0.90900  1.0000
  U   U8        1.0  0.44700  0.74400  0.96300  1.0000
