data_image0
_chemical_formula_structural       Bi28I24Ir2Si4
_chemical_formula_sum              "Bi28 I24 Ir2 Si4"
_cell_length_a       10.4479
_cell_length_b       10.4479
_cell_length_c       20.4493
_cell_angle_alpha    90
_cell_angle_beta     90
_cell_angle_gamma    90

_space_group_name_H-M_alt    "P 1"
_space_group_IT_number       1

loop_
  _space_group_symop_operation_xyz
  'x, y, z'

loop_
  _atom_site_type_symbol
  _atom_site_label
  _atom_site_symmetry_multiplicity
  _atom_site_fract_x
  _atom_site_fract_y
  _atom_site_fract_z
  _atom_site_occupancy
  Bi  Bi1       1.0  0.25300  0.05790  0.00000  1.0000
  Bi  Bi2       1.0  0.94200  0.25300  0.00000  1.0000
  Bi  Bi3       1.0  0.05790  0.74700  0.00000  1.0000
  Bi  Bi4       1.0  0.74700  0.94200  0.00000  1.0000
  Bi  Bi5       1.0  0.00000  0.00000  0.13200  1.0000
  Bi  Bi6       1.0  0.58600  0.29900  0.18200  1.0000
  Bi  Bi7       1.0  0.29900  0.41400  0.18200  1.0000
  Bi  Bi8       1.0  0.70100  0.58600  0.18200  1.0000
  Bi  Bi9       1.0  0.41400  0.70100  0.18200  1.0000
  Bi  Bi10      1.0  0.41400  0.29900  0.31800  1.0000
  Bi  Bi11      1.0  0.70100  0.41400  0.31800  1.0000
  Bi  Bi12      1.0  0.29900  0.58600  0.31800  1.0000
  Bi  Bi13      1.0  0.58600  0.70100  0.31800  1.0000
  Bi  Bi14      1.0  0.00000  0.00000  0.36800  1.0000
  Bi  Bi15      1.0  0.74700  0.05790  0.50000  1.0000
  Bi  Bi16      1.0  0.05790  0.25300  0.50000  1.0000
  Bi  Bi17      1.0  0.94200  0.74700  0.50000  1.0000
  Bi  Bi18      1.0  0.25300  0.94200  0.50000  1.0000
  Bi  Bi19      1.0  0.00000  0.00000  0.63200  1.0000
  Bi  Bi20      1.0  0.41400  0.29900  0.68200  1.0000
  Bi  Bi21      1.0  0.70100  0.41400  0.68200  1.0000
  Bi  Bi22      1.0  0.29900  0.58600  0.68200  1.0000
  Bi  Bi23      1.0  0.58600  0.70100  0.68200  1.0000
  Bi  Bi24      1.0  0.58600  0.29900  0.81800  1.0000
  Bi  Bi25      1.0  0.29900  0.41400  0.81800  1.0000
  Bi  Bi26      1.0  0.70100  0.58600  0.81800  1.0000
  Bi  Bi27      1.0  0.41400  0.70100  0.81800  1.0000
  Bi  Bi28      1.0  0.00000  0.00000  0.86800  1.0000
  I   I1        1.0  0.62600  0.21900  0.00000  1.0000
  I   I2        1.0  0.21900  0.37400  0.00000  1.0000
  I   I3        1.0  0.78100  0.62600  0.00000  1.0000
  I   I4        1.0  0.37400  0.78100  0.00000  1.0000
  I   I5        1.0  0.30000  0.06250  0.15500  1.0000
  I   I6        1.0  0.93700  0.30000  0.15500  1.0000
  I   I7        1.0  0.06250  0.70000  0.15500  1.0000
  I   I8        1.0  0.70000  0.93700  0.15500  1.0000
  I   I9        1.0  0.70000  0.06250  0.34500  1.0000
  I   I10       1.0  0.06250  0.30000  0.34500  1.0000
  I   I11       1.0  0.93700  0.70000  0.34500  1.0000
  I   I12       1.0  0.30000  0.93700  0.34500  1.0000
  I   I13       1.0  0.37400  0.21900  0.50000  1.0000
  I   I14       1.0  0.78100  0.37400  0.50000  1.0000
  I   I15       1.0  0.21900  0.62600  0.50000  1.0000
  I   I16       1.0  0.62600  0.78100  0.50000  1.0000
  I   I17       1.0  0.70000  0.06250  0.65500  1.0000
  I   I18       1.0  0.06250  0.30000  0.65500  1.0000
  I   I19       1.0  0.93700  0.70000  0.65500  1.0000
  I   I20       1.0  0.30000  0.93700  0.65500  1.0000
  I   I21       1.0  0.30000  0.06250  0.84500  1.0000
  I   I22       1.0  0.93700  0.30000  0.84500  1.0000
  I   I23       1.0  0.06250  0.70000  0.84500  1.0000
  I   I24       1.0  0.70000  0.93700  0.84500  1.0000
  Ir  Ir1       1.0  0.00000  0.00000  0.00000  1.0000
  Ir  Ir2       1.0  0.00000  0.00000  0.50000  1.0000
  Si  Si1       1.0  0.50000  0.50000  0.09370  1.0000
  Si  Si2       1.0  0.50000  0.50000  0.40600  1.0000
  Si  Si3       1.0  0.50000  0.50000  0.59400  1.0000
  Si  Si4       1.0  0.50000  0.50000  0.90600  1.0000
