data_image0
_chemical_formula_structural       Ge8K8Na16O28
_chemical_formula_sum              "Ge8 K8 Na16 O28"
_cell_length_a       5.98708
_cell_length_b       5.97669
_cell_length_c       29.0389
_cell_angle_alpha    90
_cell_angle_beta     90
_cell_angle_gamma    120.025

_space_group_name_H-M_alt    "P 1"
_space_group_IT_number       1

loop_
  _space_group_symop_operation_xyz
  'x, y, z'

loop_
  _atom_site_type_symbol
  _atom_site_label
  _atom_site_symmetry_multiplicity
  _atom_site_fract_x
  _atom_site_fract_y
  _atom_site_fract_z
  _atom_site_occupancy
  Ge  Ge1       1.0  0.69900  0.88800  0.00088  1.0000
  Ge  Ge2       1.0  0.69100  0.93000  0.11200  1.0000
  Ge  Ge3       1.0  0.06070  0.37800  0.25500  1.0000
  Ge  Ge4       1.0  0.23400  0.68100  0.35700  1.0000
  Ge  Ge5       1.0  0.30100  0.11200  0.50100  1.0000
  Ge  Ge6       1.0  0.30900  0.07000  0.61200  1.0000
  Ge  Ge7       1.0  0.93900  0.62200  0.75500  1.0000
  Ge  Ge8       1.0  0.76600  0.31900  0.85700  1.0000
  K   K1        1.0  0.04660  0.59500  0.05060  1.0000
  K   K2        1.0  0.34800  0.23900  0.05110  1.0000
  K   K3        1.0  0.69800  0.71300  0.24700  1.0000
  K   K4        1.0  0.56300  0.36900  0.35200  1.0000
  K   K5        1.0  0.95300  0.40500  0.55100  1.0000
  K   K6        1.0  0.65200  0.76100  0.55100  1.0000
  K   K7        1.0  0.30200  0.28700  0.74700  1.0000
  K   K8        1.0  0.43700  0.63100  0.85200  1.0000
  Na  Na1       1.0  0.26500  0.52600  0.16200  1.0000
  Na  Na2       1.0  0.71200  0.35500  0.16500  1.0000
  Na  Na3       1.0  0.11900  0.95600  0.16800  1.0000
  Na  Na4       1.0  0.32700  0.98300  0.26600  1.0000
  Na  Na5       1.0  0.89000  0.07280  0.34700  1.0000
  Na  Na6       1.0  0.90300  0.70900  0.44000  1.0000
  Na  Na7       1.0  0.70100  0.10300  0.44200  1.0000
  Na  Na8       1.0  0.29000  0.51400  0.44900  1.0000
  Na  Na9       1.0  0.73500  0.47400  0.66200  1.0000
  Na  Na10      1.0  0.28800  0.64500  0.66500  1.0000
  Na  Na11      1.0  0.88100  0.04410  0.66800  1.0000
  Na  Na12      1.0  0.67300  0.01700  0.76600  1.0000
  Na  Na13      1.0  0.11000  0.92700  0.84700  1.0000
  Na  Na14      1.0  0.09710  0.29100  0.94000  1.0000
  Na  Na15      1.0  0.29900  0.89700  0.94200  1.0000
  Na  Na16      1.0  0.71000  0.48600  0.94900  1.0000
  O   O1        1.0  0.65100  0.75600  0.05900  1.0000
  O   O2        1.0  0.97600  0.23200  0.11300  1.0000
  O   O3        1.0  0.41700  0.96500  0.12100  1.0000
  O   O4        1.0  0.69500  0.71300  0.15300  1.0000
  O   O5        1.0  0.06500  0.62000  0.22000  1.0000
  O   O6        1.0  0.22500  0.24600  0.22500  1.0000
  O   O7        1.0  0.75400  0.16600  0.27700  1.0000
  O   O8        1.0  0.27800  0.53400  0.30500  1.0000
  O   O9        1.0  0.14800  0.90800  0.34000  1.0000
  O   O10       1.0  0.53000  0.79100  0.38600  1.0000
  O   O11       1.0  0.98900  0.43700  0.39200  1.0000
  O   O12       1.0  0.56400  0.36700  0.47200  1.0000
  O   O13       1.0  0.00562  0.08270  0.48300  1.0000
  O   O14       1.0  0.29700  0.81700  0.49700  1.0000
  O   O15       1.0  0.34900  0.24400  0.55900  1.0000
  O   O16       1.0  0.02420  0.76800  0.61300  1.0000
  O   O17       1.0  0.58300  0.03480  0.62100  1.0000
  O   O18       1.0  0.30500  0.28700  0.65300  1.0000
  O   O19       1.0  0.93500  0.38000  0.72000  1.0000
  O   O20       1.0  0.77500  0.75400  0.72500  1.0000
  O   O21       1.0  0.24600  0.83400  0.77700  1.0000
  O   O22       1.0  0.72200  0.46600  0.80500  1.0000
  O   O23       1.0  0.85200  0.09200  0.84000  1.0000
  O   O24       1.0  0.47000  0.20900  0.88600  1.0000
  O   O25       1.0  0.01120  0.56300  0.89200  1.0000
  O   O26       1.0  0.43600  0.63300  0.97200  1.0000
  O   O27       1.0  0.99400  0.91700  0.98300  1.0000
  O   O28       1.0  0.70300  0.18300  0.99700  1.0000
