data_image0
_chemical_formula_structural       Cd2O20P4V4
_chemical_formula_sum              "Cd2 O20 P4 V4"
_cell_length_a       6.7364
_cell_length_b       6.7364
_cell_length_c       8.73914
_cell_angle_alpha    102.671
_cell_angle_beta     102.671
_cell_angle_gamma    115.523

_space_group_name_H-M_alt    "P 1"
_space_group_IT_number       1

loop_
  _space_group_symop_operation_xyz
  'x, y, z'

loop_
  _atom_site_type_symbol
  _atom_site_label
  _atom_site_symmetry_multiplicity
  _atom_site_fract_x
  _atom_site_fract_y
  _atom_site_fract_z
  _atom_site_occupancy
  Cd  Cd1       1.0  0.99900  0.99900  0.00000  1.0000
  Cd  Cd2       1.0  0.24900  0.74900  0.50000  1.0000
  O   O1        1.0  0.63800  0.91500  0.02770  1.0000
  O   O2        1.0  0.38200  0.09780  0.03270  1.0000
  O   O3        1.0  0.57700  0.57100  0.16500  1.0000
  O   O4        1.0  0.27600  0.75400  0.19700  1.0000
  O   O5        1.0  0.91700  0.43500  0.20200  1.0000
  O   O6        1.0  0.96500  0.98300  0.29800  1.0000
  O   O7        1.0  0.33000  0.30700  0.30300  1.0000
  O   O8        1.0  0.66100  0.15600  0.33500  1.0000
  O   O9        1.0  0.59900  0.81500  0.46700  1.0000
  O   O10       1.0  0.86100  0.63800  0.47200  1.0000
  O   O11       1.0  0.16500  0.38800  0.52800  1.0000
  O   O12       1.0  0.34800  0.13200  0.53300  1.0000
  O   O13       1.0  0.82100  0.32700  0.66500  1.0000
  O   O14       1.0  0.00426  0.02650  0.69700  1.0000
  O   O15       1.0  0.68500  0.66700  0.70200  1.0000
  O   O16       1.0  0.23300  0.71500  0.79800  1.0000
  O   O17       1.0  0.55700  0.07960  0.80300  1.0000
  O   O18       1.0  0.40600  0.41100  0.83500  1.0000
  O   O19       1.0  0.06510  0.34900  0.96700  1.0000
  O   O20       1.0  0.88800  0.61100  0.97200  1.0000
  P   P1        1.0  0.03590  0.53700  0.08500  1.0000
  P   P2        1.0  0.20100  0.20200  0.41500  1.0000
  P   P3        1.0  0.78700  0.78600  0.58500  1.0000
  P   P4        1.0  0.45200  0.95100  0.91500  1.0000
  V   V1        1.0  0.61600  0.84600  0.24100  1.0000
  V   V2        1.0  0.62500  0.35500  0.25900  1.0000
  V   V3        1.0  0.09600  0.36600  0.74100  1.0000
  V   V4        1.0  0.60500  0.37500  0.75900  1.0000
