data_image0
_chemical_formula_structural       H36Ni8Zr16
_chemical_formula_sum              "H36 Ni8 Zr16"
_cell_length_a       6.78397
_cell_length_b       8.81939
_cell_length_c       8.85626
_cell_angle_alpha    80.0099
_cell_angle_beta     90.1056
_cell_angle_gamma    90.2737

_space_group_name_H-M_alt    "P 1"
_space_group_IT_number       1

loop_
  _space_group_symop_operation_xyz
  'x, y, z'

loop_
  _atom_site_type_symbol
  _atom_site_label
  _atom_site_symmetry_multiplicity
  _atom_site_fract_x
  _atom_site_fract_y
  _atom_site_fract_z
  _atom_site_occupancy
  H   H1        1.0  0.87600  0.38000  0.00265  1.0000
  H   H2        1.0  0.33500  0.99600  0.04480  1.0000
  H   H3        1.0  0.03970  0.05670  0.11100  1.0000
  H   H4        1.0  0.37600  0.50100  0.12400  1.0000
  H   H5        1.0  0.74500  0.12300  0.12800  1.0000
  H   H6        1.0  0.37500  0.74900  0.13300  1.0000
  H   H7        1.0  0.96900  0.63600  0.19700  1.0000
  H   H8        1.0  0.45400  0.14200  0.19900  1.0000
  H   H9        1.0  0.83700  0.29800  0.23800  1.0000
  H   H10       1.0  0.66200  0.70200  0.26300  1.0000
  H   H11       1.0  0.04680  0.85800  0.30100  1.0000
  H   H12       1.0  0.53100  0.36400  0.30300  1.0000
  H   H13       1.0  0.12500  0.25000  0.36600  1.0000
  H   H14       1.0  0.75500  0.87700  0.37200  1.0000
  H   H15       1.0  0.12300  0.49800  0.37600  1.0000
  H   H16       1.0  0.46100  0.94300  0.38900  1.0000
  H   H17       1.0  0.16600  0.00400  0.45500  1.0000
  H   H18       1.0  0.62400  0.62100  0.49700  1.0000
  H   H19       1.0  0.37600  0.37900  0.50300  1.0000
  H   H20       1.0  0.83400  0.99600  0.54500  1.0000
  H   H21       1.0  0.53900  0.05690  0.61100  1.0000
  H   H22       1.0  0.87700  0.50200  0.62400  1.0000
  H   H23       1.0  0.24500  0.12300  0.62800  1.0000
  H   H24       1.0  0.87500  0.75000  0.63400  1.0000
  H   H25       1.0  0.46900  0.63600  0.69700  1.0000
  H   H26       1.0  0.95300  0.14200  0.69900  1.0000
  H   H27       1.0  0.33800  0.29800  0.73700  1.0000
  H   H28       1.0  0.16300  0.70200  0.76200  1.0000
  H   H29       1.0  0.54600  0.85800  0.80100  1.0000
  H   H30       1.0  0.03080  0.36400  0.80300  1.0000
  H   H31       1.0  0.62500  0.25100  0.86700  1.0000
  H   H32       1.0  0.25500  0.87700  0.87200  1.0000
  H   H33       1.0  0.62400  0.49900  0.87600  1.0000
  H   H34       1.0  0.96000  0.94300  0.88900  1.0000
  H   H35       1.0  0.66500  0.00427  0.95500  1.0000
  H   H36       1.0  0.12400  0.62000  0.99700  1.0000
  Ni  Ni1       1.0  0.24900  0.15100  0.10100  1.0000
  Ni  Ni2       1.0  0.74900  0.62600  0.12300  1.0000
  Ni  Ni3       1.0  0.75200  0.37400  0.37800  1.0000
  Ni  Ni4       1.0  0.25100  0.84900  0.39900  1.0000
  Ni  Ni5       1.0  0.74900  0.15100  0.60100  1.0000
  Ni  Ni6       1.0  0.24800  0.62600  0.62200  1.0000
  Ni  Ni7       1.0  0.25100  0.37400  0.87700  1.0000
  Ni  Ni8       1.0  0.75100  0.84900  0.89900  1.0000
  Zr  Zr1       1.0  0.58500  0.33800  0.08090  1.0000
  Zr  Zr2       1.0  0.09710  0.83300  0.08120  1.0000
  Zr  Zr3       1.0  0.08790  0.42100  0.16400  1.0000
  Zr  Zr4       1.0  0.57400  0.92000  0.17500  1.0000
  Zr  Zr5       1.0  0.92600  0.07900  0.32500  1.0000
  Zr  Zr6       1.0  0.41200  0.57900  0.33600  1.0000
  Zr  Zr7       1.0  0.40300  0.16700  0.41900  1.0000
  Zr  Zr8       1.0  0.91500  0.66200  0.41900  1.0000
  Zr  Zr9       1.0  0.08540  0.33800  0.58100  1.0000
  Zr  Zr10      1.0  0.59700  0.83300  0.58100  1.0000
  Zr  Zr11      1.0  0.58800  0.42100  0.66400  1.0000
  Zr  Zr12      1.0  0.07390  0.92100  0.67500  1.0000
  Zr  Zr13      1.0  0.42600  0.07960  0.82500  1.0000
  Zr  Zr14      1.0  0.91200  0.57900  0.83600  1.0000
  Zr  Zr15      1.0  0.90300  0.16700  0.91900  1.0000
  Zr  Zr16      1.0  0.41500  0.66200  0.91900  1.0000
