data_image0
_chemical_formula_structural       N48Tl8Zn4
_chemical_formula_sum              "N48 Tl8 Zn4"
_cell_length_a       19.8114
_cell_length_b       6.60812
_cell_length_c       6.75856
_cell_angle_alpha    90
_cell_angle_beta     90
_cell_angle_gamma    90

_space_group_name_H-M_alt    "P 1"
_space_group_IT_number       1

loop_
  _space_group_symop_operation_xyz
  'x, y, z'

loop_
  _atom_site_type_symbol
  _atom_site_label
  _atom_site_symmetry_multiplicity
  _atom_site_fract_x
  _atom_site_fract_y
  _atom_site_fract_z
  _atom_site_occupancy
  N   N1        1.0  0.34000  0.32700  0.07150  1.0000
  N   N2        1.0  0.84000  0.67300  0.07150  1.0000
  N   N3        1.0  0.36600  0.48400  0.10000  1.0000
  N   N4        1.0  0.86600  0.51600  0.10000  1.0000
  N   N5        1.0  0.60000  0.31600  0.11800  1.0000
  N   N6        1.0  0.10000  0.68400  0.11800  1.0000
  N   N7        1.0  0.89500  0.36100  0.12600  1.0000
  N   N8        1.0  0.39500  0.63900  0.12600  1.0000
  N   N9        1.0  0.61300  0.17200  0.21100  1.0000
  N   N10       1.0  0.11300  0.82800  0.21100  1.0000
  N   N11       1.0  0.45700  0.03790  0.21900  1.0000
  N   N12       1.0  0.95700  0.96200  0.21900  1.0000
  N   N13       1.0  0.79200  0.03090  0.28200  1.0000
  N   N14       1.0  0.29200  0.96900  0.28200  1.0000
  N   N15       1.0  0.62600  0.02210  0.30500  1.0000
  N   N16       1.0  0.12600  0.97800  0.30500  1.0000
  N   N17       1.0  0.76900  0.19000  0.33900  1.0000
  N   N18       1.0  0.26900  0.81000  0.33900  1.0000
  N   N19       1.0  0.45100  0.16600  0.34400  1.0000
  N   N20       1.0  0.95100  0.83400  0.34400  1.0000
  N   N21       1.0  0.74600  0.34100  0.39700  1.0000
  N   N22       1.0  0.24600  0.65900  0.39700  1.0000
  N   N23       1.0  0.44600  0.29500  0.46200  1.0000
  N   N24       1.0  0.94600  0.70500  0.46200  1.0000
  N   N25       1.0  0.16000  0.32700  0.57100  1.0000
  N   N26       1.0  0.66000  0.67300  0.57100  1.0000
  N   N27       1.0  0.13400  0.48400  0.60000  1.0000
  N   N28       1.0  0.63400  0.51600  0.60000  1.0000
  N   N29       1.0  0.90000  0.31600  0.61800  1.0000
  N   N30       1.0  0.40000  0.68400  0.61800  1.0000
  N   N31       1.0  0.60500  0.36100  0.62600  1.0000
  N   N32       1.0  0.10500  0.63900  0.62600  1.0000
  N   N33       1.0  0.88700  0.17200  0.71100  1.0000
  N   N34       1.0  0.38700  0.82800  0.71100  1.0000
  N   N35       1.0  0.04300  0.03790  0.71900  1.0000
  N   N36       1.0  0.54300  0.96200  0.71900  1.0000
  N   N37       1.0  0.70800  0.03090  0.78200  1.0000
  N   N38       1.0  0.20800  0.96900  0.78200  1.0000
  N   N39       1.0  0.87400  0.02210  0.80500  1.0000
  N   N40       1.0  0.37400  0.97800  0.80500  1.0000
  N   N41       1.0  0.73100  0.19000  0.83900  1.0000
  N   N42       1.0  0.23100  0.81000  0.83900  1.0000
  N   N43       1.0  0.04870  0.16600  0.84400  1.0000
  N   N44       1.0  0.54900  0.83400  0.84400  1.0000
  N   N45       1.0  0.75400  0.34100  0.89700  1.0000
  N   N46       1.0  0.25400  0.65900  0.89700  1.0000
  N   N47       1.0  0.05370  0.29500  0.96200  1.0000
  N   N48       1.0  0.55400  0.70500  0.96200  1.0000
  Tl  Tl1       1.0  0.19700  0.30800  0.13100  1.0000
  Tl  Tl2       1.0  0.69700  0.69200  0.13100  1.0000
  Tl  Tl3       1.0  0.01000  0.32300  0.35500  1.0000
  Tl  Tl4       1.0  0.51000  0.67700  0.35500  1.0000
  Tl  Tl5       1.0  0.30300  0.30800  0.63100  1.0000
  Tl  Tl6       1.0  0.80300  0.69200  0.63100  1.0000
  Tl  Tl7       1.0  0.49000  0.32300  0.85500  1.0000
  Tl  Tl8       1.0  0.99000  0.67700  0.85500  1.0000
  Zn  Zn1       1.0  0.86900  0.05570  0.09620  1.0000
  Zn  Zn2       1.0  0.36900  0.94400  0.09620  1.0000
  Zn  Zn3       1.0  0.63100  0.05570  0.59600  1.0000
  Zn  Zn4       1.0  0.13100  0.94400  0.59600  1.0000
