data_image0
_chemical_formula_structural       F4H32N8O12P4
_chemical_formula_sum              "F4 H32 N8 O12 P4"
_cell_length_a       7.73957
_cell_length_b       11.0469
_cell_length_c       5.86144
_cell_angle_alpha    90
_cell_angle_beta     90
_cell_angle_gamma    90

_space_group_name_H-M_alt    "P 1"
_space_group_IT_number       1

loop_
  _space_group_symop_operation_xyz
  'x, y, z'

loop_
  _atom_site_type_symbol
  _atom_site_label
  _atom_site_symmetry_multiplicity
  _atom_site_fract_x
  _atom_site_fract_y
  _atom_site_fract_z
  _atom_site_occupancy
  F   F1        1.0  0.01230  0.08340  0.26600  1.0000
  F   F2        1.0  0.51200  0.41700  0.26600  1.0000
  F   F3        1.0  0.48800  0.58300  0.76600  1.0000
  F   F4        1.0  0.98800  0.91700  0.76600  1.0000
  H   H1        1.0  0.32400  0.02350  0.09870  1.0000
  H   H2        1.0  0.82400  0.47600  0.09870  1.0000
  H   H3        1.0  0.40500  0.72200  0.09930  1.0000
  H   H4        1.0  0.90500  0.77800  0.09930  1.0000
  H   H5        1.0  0.34000  0.61000  0.27300  1.0000
  H   H6        1.0  0.84000  0.89000  0.27300  1.0000
  H   H7        1.0  0.49500  0.02710  0.28300  1.0000
  H   H8        1.0  0.99500  0.47300  0.28300  1.0000
  H   H9        1.0  0.32900  0.12700  0.32000  1.0000
  H   H10       1.0  0.82900  0.37300  0.32000  1.0000
  H   H11       1.0  0.53500  0.67700  0.32600  1.0000
  H   H12       1.0  0.03450  0.82300  0.32600  1.0000
  H   H13       1.0  0.79800  0.52600  0.36800  1.0000
  H   H14       1.0  0.29800  0.97400  0.36800  1.0000
  H   H15       1.0  0.84400  0.74700  0.36800  1.0000
  H   H16       1.0  0.34400  0.75300  0.36800  1.0000
  H   H17       1.0  0.17600  0.52400  0.59900  1.0000
  H   H18       1.0  0.67600  0.97600  0.59900  1.0000
  H   H19       1.0  0.09450  0.22200  0.59900  1.0000
  H   H20       1.0  0.59500  0.27800  0.59900  1.0000
  H   H21       1.0  0.16000  0.11000  0.77300  1.0000
  H   H22       1.0  0.66000  0.39000  0.77300  1.0000
  H   H23       1.0  0.00526  0.52700  0.78300  1.0000
  H   H24       1.0  0.50500  0.97300  0.78300  1.0000
  H   H25       1.0  0.17100  0.62700  0.82000  1.0000
  H   H26       1.0  0.67100  0.87300  0.82000  1.0000
  H   H27       1.0  0.96500  0.17700  0.82600  1.0000
  H   H28       1.0  0.46500  0.32300  0.82600  1.0000
  H   H29       1.0  0.70200  0.02580  0.86800  1.0000
  H   H30       1.0  0.20200  0.47400  0.86800  1.0000
  H   H31       1.0  0.65600  0.24700  0.86800  1.0000
  H   H32       1.0  0.15600  0.25300  0.86800  1.0000
  N   N1        1.0  0.41000  0.69100  0.26400  1.0000
  N   N2        1.0  0.91000  0.80900  0.26400  1.0000
  N   N3        1.0  0.36100  0.03870  0.26800  1.0000
  N   N4        1.0  0.86100  0.46100  0.26800  1.0000
  N   N5        1.0  0.09010  0.19100  0.76400  1.0000
  N   N6        1.0  0.59000  0.30900  0.76400  1.0000
  N   N7        1.0  0.13900  0.53900  0.76800  1.0000
  N   N8        1.0  0.63900  0.96100  0.76800  1.0000
  O   O1        1.0  0.71400  0.01230  0.32300  1.0000
  O   O2        1.0  0.21400  0.48800  0.32300  1.0000
  O   O3        1.0  0.79800  0.23200  0.41400  1.0000
  O   O4        1.0  0.29800  0.26800  0.41400  1.0000
  O   O5        1.0  0.71300  0.65400  0.50000  1.0000
  O   O6        1.0  0.21300  0.84600  0.50000  1.0000
  O   O7        1.0  0.78600  0.51200  0.82300  1.0000
  O   O8        1.0  0.28600  0.98800  0.82300  1.0000
  O   O9        1.0  0.70200  0.73200  0.91400  1.0000
  O   O10       1.0  0.20200  0.76800  0.91400  1.0000
  O   O11       1.0  0.78700  0.15400  0.00000  1.0000
  O   O12       1.0  0.28700  0.34600  0.00000  1.0000
  P   P1        1.0  0.81300  0.12600  0.25200  1.0000
  P   P2        1.0  0.31300  0.37400  0.25200  1.0000
  P   P3        1.0  0.68700  0.62600  0.75200  1.0000
  P   P4        1.0  0.18700  0.87400  0.75200  1.0000
