data_image0
_chemical_formula_structural       Mn8O32Rb8V8
_chemical_formula_sum              "Mn8 O32 Rb8 V8"
_cell_length_a       11.1955
_cell_length_b       11.1955
_cell_length_c       8.86408
_cell_angle_alpha    90
_cell_angle_beta     90
_cell_angle_gamma    120

_space_group_name_H-M_alt    "P 1"
_space_group_IT_number       1

loop_
  _space_group_symop_operation_xyz
  'x, y, z'

loop_
  _atom_site_type_symbol
  _atom_site_label
  _atom_site_symmetry_multiplicity
  _atom_site_fract_x
  _atom_site_fract_y
  _atom_site_fract_z
  _atom_site_occupancy
  Mn  Mn1       1.0  0.33300  0.66700  0.07150  1.0000
  Mn  Mn2       1.0  0.32900  0.16300  0.20200  1.0000
  Mn  Mn3       1.0  0.83700  0.16600  0.20200  1.0000
  Mn  Mn4       1.0  0.83400  0.67100  0.20200  1.0000
  Mn  Mn5       1.0  0.66700  0.33300  0.57200  1.0000
  Mn  Mn6       1.0  0.67100  0.83700  0.70200  1.0000
  Mn  Mn7       1.0  0.16300  0.83400  0.70200  1.0000
  Mn  Mn8       1.0  0.16600  0.32900  0.70200  1.0000
  O   O1        1.0  0.50100  0.26800  0.07850  1.0000
  O   O2        1.0  0.73200  0.23300  0.07850  1.0000
  O   O3        1.0  0.76700  0.49900  0.07850  1.0000
  O   O4        1.0  0.01170  0.82700  0.12100  1.0000
  O   O5        1.0  0.81500  0.98800  0.12100  1.0000
  O   O6        1.0  0.17300  0.18500  0.12100  1.0000
  O   O7        1.0  0.16700  0.68300  0.13500  1.0000
  O   O8        1.0  0.51700  0.83300  0.13500  1.0000
  O   O9        1.0  0.31700  0.48300  0.13500  1.0000
  O   O10       1.0  0.67600  0.70900  0.21600  1.0000
  O   O11       1.0  0.29100  0.96800  0.21600  1.0000
  O   O12       1.0  0.03230  0.32400  0.21600  1.0000
  O   O13       1.0  0.66700  0.33300  0.34300  1.0000
  O   O14       1.0  0.89100  0.66600  0.41600  1.0000
  O   O15       1.0  0.77500  0.10900  0.41600  1.0000
  O   O16       1.0  0.33400  0.22500  0.41600  1.0000
  O   O17       1.0  0.49900  0.73200  0.57900  1.0000
  O   O18       1.0  0.23300  0.50100  0.57900  1.0000
  O   O19       1.0  0.26800  0.76700  0.57900  1.0000
  O   O20       1.0  0.98800  0.17300  0.62100  1.0000
  O   O21       1.0  0.18500  0.01170  0.62100  1.0000
  O   O22       1.0  0.82700  0.81500  0.62100  1.0000
  O   O23       1.0  0.83300  0.31700  0.63500  1.0000
  O   O24       1.0  0.48300  0.16700  0.63500  1.0000
  O   O25       1.0  0.68300  0.51700  0.63500  1.0000
  O   O26       1.0  0.32400  0.29100  0.71600  1.0000
  O   O27       1.0  0.70900  0.03230  0.71600  1.0000
  O   O28       1.0  0.96800  0.67600  0.71600  1.0000
  O   O29       1.0  0.33300  0.66700  0.84300  1.0000
  O   O30       1.0  0.10900  0.33400  0.91600  1.0000
  O   O31       1.0  0.22500  0.89100  0.91600  1.0000
  O   O32       1.0  0.66600  0.77500  0.91600  1.0000
  Rb  Rb1       1.0  0.00000  0.00000  0.38200  1.0000
  Rb  Rb2       1.0  0.47400  0.51300  0.40400  1.0000
  Rb  Rb3       1.0  0.48700  0.96000  0.40400  1.0000
  Rb  Rb4       1.0  0.03980  0.52600  0.40400  1.0000
  Rb  Rb5       1.0  0.00000  0.00000  0.88200  1.0000
  Rb  Rb6       1.0  0.52600  0.48700  0.90400  1.0000
  Rb  Rb7       1.0  0.51300  0.03980  0.90400  1.0000
  Rb  Rb8       1.0  0.96000  0.47400  0.90400  1.0000
  V   V1        1.0  0.17200  0.83900  0.09900  1.0000
  V   V2        1.0  0.66800  0.82800  0.09900  1.0000
  V   V3        1.0  0.16100  0.33200  0.09910  1.0000
  V   V4        1.0  0.66700  0.33300  0.15000  1.0000
  V   V5        1.0  0.82800  0.16100  0.59900  1.0000
  V   V6        1.0  0.33200  0.17200  0.59900  1.0000
  V   V7        1.0  0.83900  0.66800  0.59900  1.0000
  V   V8        1.0  0.33300  0.66700  0.65000  1.0000
