data_image0
_chemical_formula_structural       Ca2H24I4O28
_chemical_formula_sum              "Ca2 H24 I4 O28"
_cell_length_a       5.40039
_cell_length_b       10.2169
_cell_length_c       10.8094
_cell_angle_alpha    108.577
_cell_angle_beta     104.466
_cell_angle_gamma    105.325

_space_group_name_H-M_alt    "P 1"
_space_group_IT_number       1

loop_
  _space_group_symop_operation_xyz
  'x, y, z'

loop_
  _atom_site_type_symbol
  _atom_site_label
  _atom_site_symmetry_multiplicity
  _atom_site_fract_x
  _atom_site_fract_y
  _atom_site_fract_z
  _atom_site_occupancy
  Ca  Ca1       1.0  0.82500  0.25000  0.25000  1.0000
  Ca  Ca2       1.0  0.17500  0.75000  0.75000  1.0000
  H   H1        1.0  0.49900  0.34800  0.01170  1.0000
  H   H2        1.0  0.75400  0.96000  0.03440  1.0000
  H   H3        1.0  0.36800  0.98700  0.14700  1.0000
  H   H4        1.0  0.19900  0.08850  0.15400  1.0000
  H   H5        1.0  0.83600  0.93500  0.17800  1.0000
  H   H6        1.0  0.81400  0.66900  0.19500  1.0000
  H   H7        1.0  0.45000  0.83100  0.30500  1.0000
  H   H8        1.0  0.22300  0.56500  0.32200  1.0000
  H   H9        1.0  0.45700  0.41200  0.34600  1.0000
  H   H10       1.0  0.73400  0.51300  0.35300  1.0000
  H   H11       1.0  0.26000  0.54000  0.46600  1.0000
  H   H12       1.0  0.63900  0.15200  0.48800  1.0000
  H   H13       1.0  0.36100  0.84800  0.51200  1.0000
  H   H14       1.0  0.74000  0.46000  0.53400  1.0000
  H   H15       1.0  0.26600  0.48700  0.64700  1.0000
  H   H16       1.0  0.54300  0.58800  0.65400  1.0000
  H   H17       1.0  0.77700  0.43500  0.67800  1.0000
  H   H18       1.0  0.55000  0.16900  0.69500  1.0000
  H   H19       1.0  0.18600  0.33100  0.80500  1.0000
  H   H20       1.0  0.16400  0.06460  0.82200  1.0000
  H   H21       1.0  0.80100  0.91200  0.84600  1.0000
  H   H22       1.0  0.63200  0.01330  0.85300  1.0000
  H   H23       1.0  0.24600  0.04040  0.96600  1.0000
  H   H24       1.0  0.50100  0.65200  0.98800  1.0000
  I   I1        1.0  0.06950  0.66600  0.02190  1.0000
  I   I2        1.0  0.88100  0.83400  0.47800  1.0000
  I   I3        1.0  0.11900  0.16600  0.52200  1.0000
  I   I4        1.0  0.93100  0.33400  0.97800  1.0000
  O   O1        1.0  0.67900  0.35600  0.07660  1.0000
  O   O2        1.0  0.07420  0.25800  0.09440  1.0000
  O   O3        1.0  0.78400  0.67400  0.09690  1.0000
  O   O4        1.0  0.18100  0.54400  0.11700  1.0000
  O   O5        1.0  0.36700  0.08000  0.13600  1.0000
  O   O6        1.0  0.84700  0.01040  0.13900  1.0000
  O   O7        1.0  0.33700  0.83300  0.17100  1.0000
  O   O8        1.0  0.83300  0.66700  0.32900  1.0000
  O   O9        1.0  0.19700  0.49000  0.36100  1.0000
  O   O10       1.0  0.65100  0.42000  0.36400  1.0000
  O   O11       1.0  0.01940  0.95600  0.38300  1.0000
  O   O12       1.0  0.51300  0.82600  0.40300  1.0000
  O   O13       1.0  0.22200  0.24200  0.40600  1.0000
  O   O14       1.0  0.74700  0.14400  0.42300  1.0000
  O   O15       1.0  0.25300  0.85600  0.57700  1.0000
  O   O16       1.0  0.77800  0.75800  0.59400  1.0000
  O   O17       1.0  0.48700  0.17400  0.59700  1.0000
  O   O18       1.0  0.98100  0.04410  0.61700  1.0000
  O   O19       1.0  0.34900  0.58000  0.63600  1.0000
  O   O20       1.0  0.80300  0.51000  0.63900  1.0000
  O   O21       1.0  0.16700  0.33300  0.67100  1.0000
  O   O22       1.0  0.66300  0.16700  0.82900  1.0000
  O   O23       1.0  0.15300  0.99000  0.86100  1.0000
  O   O24       1.0  0.63300  0.92000  0.86400  1.0000
  O   O25       1.0  0.81900  0.45600  0.88300  1.0000
  O   O26       1.0  0.21600  0.32600  0.90300  1.0000
  O   O27       1.0  0.92600  0.74200  0.90600  1.0000
  O   O28       1.0  0.32100  0.64400  0.92300  1.0000
