data_image0
_chemical_formula_structural       Cu22K6Te32
_chemical_formula_sum              "Cu22 K6 Te32"
_cell_length_a       6.96092
_cell_length_b       15.8345
_cell_length_c       15.8345
_cell_angle_alpha    97.5486
_cell_angle_beta     102.697
_cell_angle_gamma    102.697

_space_group_name_H-M_alt    "P 1"
_space_group_IT_number       1

loop_
  _space_group_symop_operation_xyz
  'x, y, z'

loop_
  _atom_site_type_symbol
  _atom_site_label
  _atom_site_symmetry_multiplicity
  _atom_site_fract_x
  _atom_site_fract_y
  _atom_site_fract_z
  _atom_site_occupancy
  Cu  Cu1       1.0  0.79300  0.69800  0.01250  1.0000
  Cu  Cu2       1.0  0.41100  0.70200  0.02380  1.0000
  Cu  Cu3       1.0  0.50000  0.85700  0.14300  1.0000
  Cu  Cu4       1.0  0.41800  0.51300  0.19800  1.0000
  Cu  Cu5       1.0  0.81500  0.52400  0.20200  1.0000
  Cu  Cu6       1.0  0.35100  0.25000  0.25000  1.0000
  Cu  Cu7       1.0  0.58900  0.97600  0.29800  1.0000
  Cu  Cu8       1.0  0.20700  0.98700  0.30200  1.0000
  Cu  Cu9       1.0  0.00000  0.64300  0.35700  1.0000
  Cu  Cu10      1.0  0.18500  0.79800  0.47600  1.0000
  Cu  Cu11      1.0  0.58200  0.80200  0.48700  1.0000
  Cu  Cu12      1.0  0.41800  0.19800  0.51300  1.0000
  Cu  Cu13      1.0  0.81500  0.20200  0.52400  1.0000
  Cu  Cu14      1.0  0.00000  0.35700  0.64300  1.0000
  Cu  Cu15      1.0  0.79300  0.01250  0.69800  1.0000
  Cu  Cu16      1.0  0.41100  0.02380  0.70200  1.0000
  Cu  Cu17      1.0  0.64900  0.75000  0.75000  1.0000
  Cu  Cu18      1.0  0.18500  0.47600  0.79800  1.0000
  Cu  Cu19      1.0  0.58200  0.48700  0.80200  1.0000
  Cu  Cu20      1.0  0.50000  0.14300  0.85700  1.0000
  Cu  Cu21      1.0  0.58900  0.29800  0.97600  1.0000
  Cu  Cu22      1.0  0.20700  0.30200  0.98700  1.0000
  K   K1        1.0  0.00000  0.50000  0.00000  1.0000
  K   K2        1.0  0.92100  0.09780  0.09780  1.0000
  K   K3        1.0  0.22600  0.40200  0.40200  1.0000
  K   K4        1.0  0.00000  0.00000  0.50000  1.0000
  K   K5        1.0  0.77400  0.59800  0.59800  1.0000
  K   K6        1.0  0.07870  0.90200  0.90200  1.0000
  Te  Te1       1.0  0.70600  0.84900  0.02610  1.0000
  Te  Te2       1.0  0.57400  0.57400  0.07410  1.0000
  Te  Te3       1.0  0.16100  0.73600  0.11600  1.0000
  Te  Te4       1.0  0.79100  0.35800  0.14200  1.0000
  Te  Te5       1.0  0.20400  0.35000  0.15000  1.0000
  Te  Te6       1.0  0.29400  0.97400  0.15100  1.0000
  Te  Te7       1.0  0.50700  0.15300  0.15300  1.0000
  Te  Te8       1.0  0.19000  0.61600  0.23600  1.0000
  Te  Te9       1.0  0.83900  0.88400  0.26400  1.0000
  Te  Te10      1.0  0.70200  0.34700  0.34700  1.0000
  Te  Te11      1.0  0.66900  0.52600  0.34900  1.0000
  Te  Te12      1.0  0.20400  0.15000  0.35000  1.0000
  Te  Te13      1.0  0.79100  0.14200  0.35800  1.0000
  Te  Te14      1.0  0.81000  0.76400  0.38400  1.0000
  Te  Te15      1.0  0.42600  0.92600  0.42600  1.0000
  Te  Te16      1.0  0.33100  0.65100  0.47400  1.0000
  Te  Te17      1.0  0.66900  0.34900  0.52600  1.0000
  Te  Te18      1.0  0.57400  0.07410  0.57400  1.0000
  Te  Te19      1.0  0.19000  0.23600  0.61600  1.0000
  Te  Te20      1.0  0.20900  0.85800  0.64200  1.0000
  Te  Te21      1.0  0.79600  0.85000  0.65000  1.0000
  Te  Te22      1.0  0.33100  0.47400  0.65100  1.0000
  Te  Te23      1.0  0.29800  0.65300  0.65300  1.0000
  Te  Te24      1.0  0.16100  0.11600  0.73600  1.0000
  Te  Te25      1.0  0.81000  0.38400  0.76400  1.0000
  Te  Te26      1.0  0.49300  0.84700  0.84700  1.0000
  Te  Te27      1.0  0.70600  0.02610  0.84900  1.0000
  Te  Te28      1.0  0.79600  0.65000  0.85000  1.0000
  Te  Te29      1.0  0.20900  0.64200  0.85800  1.0000
  Te  Te30      1.0  0.83900  0.26400  0.88400  1.0000
  Te  Te31      1.0  0.42600  0.42600  0.92600  1.0000
  Te  Te32      1.0  0.29400  0.15100  0.97400  1.0000
