data_image0
_chemical_formula_structural       Ca16F8O28Si8
_chemical_formula_sum              "Ca16 F8 O28 Si8"
_cell_length_a       7.47051
_cell_length_b       10.4398
_cell_length_c       10.8237
_cell_angle_alpha    90
_cell_angle_beta     70.4469
_cell_angle_gamma    90

_space_group_name_H-M_alt    "P 1"
_space_group_IT_number       1

loop_
  _space_group_symop_operation_xyz
  'x, y, z'

loop_
  _atom_site_type_symbol
  _atom_site_label
  _atom_site_symmetry_multiplicity
  _atom_site_fract_x
  _atom_site_fract_y
  _atom_site_fract_z
  _atom_site_occupancy
  Ca  Ca1       1.0  0.83000  0.63500  0.07480  1.0000
  Ca  Ca2       1.0  0.33500  0.62900  0.08840  1.0000
  Ca  Ca3       1.0  0.53100  0.91400  0.18000  1.0000
  Ca  Ca4       1.0  0.03160  0.90200  0.19900  1.0000
  Ca  Ca5       1.0  0.96800  0.40200  0.30100  1.0000
  Ca  Ca6       1.0  0.46900  0.41400  0.32000  1.0000
  Ca  Ca7       1.0  0.66500  0.12900  0.41200  1.0000
  Ca  Ca8       1.0  0.17000  0.13500  0.42500  1.0000
  Ca  Ca9       1.0  0.83000  0.86500  0.57500  1.0000
  Ca  Ca10      1.0  0.33500  0.87100  0.58800  1.0000
  Ca  Ca11      1.0  0.53100  0.58600  0.68000  1.0000
  Ca  Ca12      1.0  0.03160  0.59800  0.69900  1.0000
  Ca  Ca13      1.0  0.96800  0.09780  0.80100  1.0000
  Ca  Ca14      1.0  0.46900  0.08590  0.82000  1.0000
  Ca  Ca15      1.0  0.66500  0.37100  0.91200  1.0000
  Ca  Ca16      1.0  0.17000  0.36500  0.92500  1.0000
  F   F1        1.0  0.06870  0.50400  0.10300  1.0000
  F   F2        1.0  0.57600  0.49700  0.10500  1.0000
  F   F3        1.0  0.42400  0.99700  0.39500  1.0000
  F   F4        1.0  0.93100  0.00428  0.39700  1.0000
  F   F5        1.0  0.06870  0.99600  0.60300  1.0000
  F   F6        1.0  0.57600  0.00287  0.60500  1.0000
  F   F7        1.0  0.42400  0.50300  0.89500  1.0000
  F   F8        1.0  0.93100  0.49600  0.89700  1.0000
  O   O1        1.0  0.58600  0.76000  0.01090  1.0000
  O   O2        1.0  0.14000  0.76500  0.02600  1.0000
  O   O3        1.0  0.06430  0.22900  0.12000  1.0000
  O   O4        1.0  0.80300  0.04060  0.15900  1.0000
  O   O5        1.0  0.28700  0.04230  0.16200  1.0000
  O   O6        1.0  0.71800  0.27900  0.24100  1.0000
  O   O7        1.0  0.72800  0.77900  0.24200  1.0000
  O   O8        1.0  0.27200  0.27900  0.25800  1.0000
  O   O9        1.0  0.28200  0.77900  0.25900  1.0000
  O   O10       1.0  0.71300  0.54200  0.33800  1.0000
  O   O11       1.0  0.19700  0.54100  0.34100  1.0000
  O   O12       1.0  0.93600  0.72900  0.38000  1.0000
  O   O13       1.0  0.86000  0.26500  0.47400  1.0000
  O   O14       1.0  0.41400  0.26000  0.48900  1.0000
  O   O15       1.0  0.58600  0.74000  0.51100  1.0000
  O   O16       1.0  0.14000  0.73500  0.52600  1.0000
  O   O17       1.0  0.06430  0.27100  0.62000  1.0000
  O   O18       1.0  0.80300  0.45900  0.65900  1.0000
  O   O19       1.0  0.28700  0.45800  0.66200  1.0000
  O   O20       1.0  0.71800  0.22100  0.74100  1.0000
  O   O21       1.0  0.72800  0.72100  0.74200  1.0000
  O   O22       1.0  0.27200  0.22100  0.75800  1.0000
  O   O23       1.0  0.28200  0.72100  0.75900  1.0000
  O   O24       1.0  0.71300  0.95800  0.83800  1.0000
  O   O25       1.0  0.19700  0.95900  0.84100  1.0000
  O   O26       1.0  0.93600  0.77100  0.88000  1.0000
  O   O27       1.0  0.86000  0.23500  0.97400  1.0000
  O   O28       1.0  0.41400  0.24000  0.98900  1.0000
  Si  Si1       1.0  0.84600  0.19100  0.12100  1.0000
  Si  Si2       1.0  0.27600  0.19300  0.13100  1.0000
  Si  Si3       1.0  0.72400  0.69300  0.36900  1.0000
  Si  Si4       1.0  0.15400  0.69100  0.37900  1.0000
  Si  Si5       1.0  0.84600  0.30900  0.62100  1.0000
  Si  Si6       1.0  0.27600  0.30700  0.63100  1.0000
  Si  Si7       1.0  0.72400  0.80700  0.86900  1.0000
  Si  Si8       1.0  0.15400  0.80900  0.87900  1.0000
