data_image0
_chemical_formula_structural       Br8H32Mn4O16
_chemical_formula_sum              "Br8 H32 Mn4 O16"
_cell_length_a       11.3729
_cell_length_b       9.53686
_cell_length_c       6.14919
_cell_angle_alpha    90
_cell_angle_beta     99.3138
_cell_angle_gamma    90

_space_group_name_H-M_alt    "P 1"
_space_group_IT_number       1

loop_
  _space_group_symop_operation_xyz
  'x, y, z'

loop_
  _atom_site_type_symbol
  _atom_site_label
  _atom_site_symmetry_multiplicity
  _atom_site_fract_x
  _atom_site_fract_y
  _atom_site_fract_z
  _atom_site_occupancy
  Br  Br1       1.0  0.39200  0.37200  0.04430  1.0000
  Br  Br2       1.0  0.05870  0.31600  0.09700  1.0000
  Br  Br3       1.0  0.44100  0.81600  0.40300  1.0000
  Br  Br4       1.0  0.10800  0.87200  0.45600  1.0000
  Br  Br5       1.0  0.89200  0.12800  0.54400  1.0000
  Br  Br6       1.0  0.55900  0.18400  0.59700  1.0000
  Br  Br7       1.0  0.94100  0.68400  0.90300  1.0000
  Br  Br8       1.0  0.60800  0.62800  0.95600  1.0000
  H   H1        1.0  0.70800  0.30000  0.02410  1.0000
  H   H2        1.0  0.09730  0.93200  0.07730  1.0000
  H   H3        1.0  0.58100  0.29700  0.09830  1.0000
  H   H4        1.0  0.11900  0.65000  0.10800  1.0000
  H   H5        1.0  0.20100  0.51800  0.12700  1.0000
  H   H6        1.0  0.64000  0.07290  0.13700  1.0000
  H   H7        1.0  0.89400  0.07310  0.18100  1.0000
  H   H8        1.0  0.56200  0.94000  0.19300  1.0000
  H   H9        1.0  0.93800  0.44000  0.30700  1.0000
  H   H10       1.0  0.60600  0.57300  0.31900  1.0000
  H   H11       1.0  0.86000  0.57300  0.36300  1.0000
  H   H12       1.0  0.29900  0.01820  0.37300  1.0000
  H   H13       1.0  0.38100  0.15000  0.39200  1.0000
  H   H14       1.0  0.91900  0.79700  0.40200  1.0000
  H   H15       1.0  0.40300  0.43200  0.42300  1.0000
  H   H16       1.0  0.79200  0.80000  0.47600  1.0000
  H   H17       1.0  0.20800  0.20000  0.52400  1.0000
  H   H18       1.0  0.59700  0.56800  0.57700  1.0000
  H   H19       1.0  0.08090  0.20300  0.59800  1.0000
  H   H20       1.0  0.61900  0.85000  0.60800  1.0000
  H   H21       1.0  0.70100  0.98200  0.62700  1.0000
  H   H22       1.0  0.14000  0.42700  0.63700  1.0000
  H   H23       1.0  0.39400  0.42700  0.68100  1.0000
  H   H24       1.0  0.06230  0.56000  0.69300  1.0000
  H   H25       1.0  0.43800  0.05970  0.80700  1.0000
  H   H26       1.0  0.10600  0.92700  0.81900  1.0000
  H   H27       1.0  0.36000  0.92700  0.86300  1.0000
  H   H28       1.0  0.79900  0.48200  0.87300  1.0000
  H   H29       1.0  0.88100  0.35000  0.89200  1.0000
  H   H30       1.0  0.41900  0.70300  0.90200  1.0000
  H   H31       1.0  0.90300  0.06830  0.92300  1.0000
  H   H32       1.0  0.29200  0.70000  0.97600  1.0000
  Mn  Mn1       1.0  0.76300  0.83400  0.01850  1.0000
  Mn  Mn2       1.0  0.73700  0.33400  0.48200  1.0000
  Mn  Mn3       1.0  0.26300  0.66600  0.51800  1.0000
  Mn  Mn4       1.0  0.23700  0.16600  0.98200  1.0000
  O   O1        1.0  0.86500  0.02550  0.03980  1.0000
  O   O2        1.0  0.63000  0.97000  0.12300  1.0000
  O   O3        1.0  0.66500  0.26400  0.14100  1.0000
  O   O4        1.0  0.20400  0.62000  0.15700  1.0000
  O   O5        1.0  0.29600  0.12000  0.34300  1.0000
  O   O6        1.0  0.83500  0.76400  0.35900  1.0000
  O   O7        1.0  0.87000  0.47000  0.37700  1.0000
  O   O8        1.0  0.63500  0.52500  0.46000  1.0000
  O   O9        1.0  0.36500  0.47500  0.54000  1.0000
  O   O10       1.0  0.13000  0.53000  0.62300  1.0000
  O   O11       1.0  0.16500  0.23600  0.64100  1.0000
  O   O12       1.0  0.70400  0.88000  0.65700  1.0000
  O   O13       1.0  0.79600  0.38000  0.84300  1.0000
  O   O14       1.0  0.33500  0.73600  0.85900  1.0000
  O   O15       1.0  0.37000  0.03010  0.87700  1.0000
  O   O16       1.0  0.13500  0.97500  0.96000  1.0000
