data_image0
_chemical_formula_structural       Au8Ba4F48
_chemical_formula_sum              "Au8 Ba4 F48"
_cell_length_a       9.76752
_cell_length_b       9.76752
_cell_length_c       9.76752
_cell_angle_alpha    90
_cell_angle_beta     90
_cell_angle_gamma    90

_space_group_name_H-M_alt    "P 1"
_space_group_IT_number       1

loop_
  _space_group_symop_operation_xyz
  'x, y, z'

loop_
  _atom_site_type_symbol
  _atom_site_label
  _atom_site_symmetry_multiplicity
  _atom_site_fract_x
  _atom_site_fract_y
  _atom_site_fract_z
  _atom_site_occupancy
  Au  Au1       1.0  0.78000  0.22000  0.22000  1.0000
  Au  Au2       1.0  0.22000  0.78000  0.22000  1.0000
  Au  Au3       1.0  0.29100  0.29100  0.29100  1.0000
  Au  Au4       1.0  0.70900  0.70900  0.29100  1.0000
  Au  Au5       1.0  0.70900  0.29100  0.70900  1.0000
  Au  Au6       1.0  0.29100  0.70900  0.70900  1.0000
  Au  Au7       1.0  0.22000  0.22000  0.78000  1.0000
  Au  Au8       1.0  0.78000  0.78000  0.78000  1.0000
  Ba  Ba1       1.0  0.00000  0.00000  0.00000  1.0000
  Ba  Ba2       1.0  0.50000  0.00000  0.00000  1.0000
  Ba  Ba3       1.0  0.00000  0.50000  0.00000  1.0000
  Ba  Ba4       1.0  0.00000  0.00000  0.50000  1.0000
  F   F1        1.0  0.73300  0.08310  0.08310  1.0000
  F   F2        1.0  0.91700  0.26700  0.08310  1.0000
  F   F3        1.0  0.08310  0.73300  0.08310  1.0000
  F   F4        1.0  0.26700  0.91700  0.08310  1.0000
  F   F5        1.0  0.65200  0.34800  0.14500  1.0000
  F   F6        1.0  0.34800  0.65200  0.14500  1.0000
  F   F7        1.0  0.36300  0.15800  0.15800  1.0000
  F   F8        1.0  0.15800  0.36300  0.15800  1.0000
  F   F9        1.0  0.84200  0.63700  0.15800  1.0000
  F   F10       1.0  0.63700  0.84200  0.15800  1.0000
  F   F11       1.0  0.41900  0.41900  0.22000  1.0000
  F   F12       1.0  0.58100  0.58100  0.22000  1.0000
  F   F13       1.0  0.91700  0.08310  0.26700  1.0000
  F   F14       1.0  0.08310  0.91700  0.26700  1.0000
  F   F15       1.0  0.65200  0.14500  0.34800  1.0000
  F   F16       1.0  0.85500  0.34800  0.34800  1.0000
  F   F17       1.0  0.14500  0.65200  0.34800  1.0000
  F   F18       1.0  0.34800  0.85500  0.34800  1.0000
  F   F19       1.0  0.15800  0.15800  0.36300  1.0000
  F   F20       1.0  0.84200  0.84200  0.36300  1.0000
  F   F21       1.0  0.41900  0.22000  0.41900  1.0000
  F   F22       1.0  0.22000  0.41900  0.41900  1.0000
  F   F23       1.0  0.78000  0.58100  0.41900  1.0000
  F   F24       1.0  0.58100  0.78000  0.41900  1.0000
  F   F25       1.0  0.58100  0.22000  0.58100  1.0000
  F   F26       1.0  0.78000  0.41900  0.58100  1.0000
  F   F27       1.0  0.22000  0.58100  0.58100  1.0000
  F   F28       1.0  0.41900  0.78000  0.58100  1.0000
  F   F29       1.0  0.84200  0.15800  0.63700  1.0000
  F   F30       1.0  0.15800  0.84200  0.63700  1.0000
  F   F31       1.0  0.34800  0.14500  0.65200  1.0000
  F   F32       1.0  0.14500  0.34800  0.65200  1.0000
  F   F33       1.0  0.85500  0.65200  0.65200  1.0000
  F   F34       1.0  0.65200  0.85500  0.65200  1.0000
  F   F35       1.0  0.08310  0.08310  0.73300  1.0000
  F   F36       1.0  0.91700  0.91700  0.73300  1.0000
  F   F37       1.0  0.58100  0.41900  0.78000  1.0000
  F   F38       1.0  0.41900  0.58100  0.78000  1.0000
  F   F39       1.0  0.63700  0.15800  0.84200  1.0000
  F   F40       1.0  0.84200  0.36300  0.84200  1.0000
  F   F41       1.0  0.15800  0.63700  0.84200  1.0000
  F   F42       1.0  0.36300  0.84200  0.84200  1.0000
  F   F43       1.0  0.34800  0.34800  0.85500  1.0000
  F   F44       1.0  0.65200  0.65200  0.85500  1.0000
  F   F45       1.0  0.26700  0.08310  0.91700  1.0000
  F   F46       1.0  0.08310  0.26700  0.91700  1.0000
  F   F47       1.0  0.91700  0.73300  0.91700  1.0000
  F   F48       1.0  0.73300  0.91700  0.91700  1.0000
