data_image0
_chemical_formula_structural       As2Cs8H10O32Se6
_chemical_formula_sum              "As2 Cs8 H10 O32 Se6"
_cell_length_a       5.8572
_cell_length_b       13.528
_cell_length_c       11.7391
_cell_angle_alpha    90
_cell_angle_beta     95.6429
_cell_angle_gamma    90

_space_group_name_H-M_alt    "P 1"
_space_group_IT_number       1

loop_
  _space_group_symop_operation_xyz
  'x, y, z'

loop_
  _atom_site_type_symbol
  _atom_site_label
  _atom_site_symmetry_multiplicity
  _atom_site_fract_x
  _atom_site_fract_y
  _atom_site_fract_z
  _atom_site_occupancy
  As  As1       1.0  0.24200  0.05760  0.36200  1.0000
  As  As2       1.0  0.75800  0.55800  0.63800  1.0000
  Cs  Cs1       1.0  0.79400  0.05100  0.08920  1.0000
  Cs  Cs2       1.0  0.29000  0.82900  0.09610  1.0000
  Cs  Cs3       1.0  0.77400  0.30900  0.35600  1.0000
  Cs  Cs4       1.0  0.27000  0.57800  0.36100  1.0000
  Cs  Cs5       1.0  0.73000  0.07840  0.63900  1.0000
  Cs  Cs6       1.0  0.22600  0.80900  0.64400  1.0000
  Cs  Cs7       1.0  0.71000  0.32900  0.90400  1.0000
  Cs  Cs8       1.0  0.20600  0.55100  0.91100  1.0000
  H   H1        1.0  0.86000  0.73300  0.18100  1.0000
  H   H2        1.0  0.37100  0.14600  0.18100  1.0000
  H   H3        1.0  0.87300  0.01850  0.38900  1.0000
  H   H4        1.0  0.35400  0.89800  0.41300  1.0000
  H   H5        1.0  0.27300  0.19100  0.48400  1.0000
  H   H6        1.0  0.72700  0.69100  0.51600  1.0000
  H   H7        1.0  0.64600  0.39800  0.58700  1.0000
  H   H8        1.0  0.12700  0.51900  0.61100  1.0000
  H   H9        1.0  0.62900  0.64600  0.81900  1.0000
  H   H10       1.0  0.14000  0.23300  0.81900  1.0000
  O   O1        1.0  0.27200  0.36300  0.02200  1.0000
  O   O2        1.0  0.78000  0.50600  0.03900  1.0000
  O   O3        1.0  0.46500  0.62500  0.13400  1.0000
  O   O4        1.0  0.97300  0.25100  0.13600  1.0000
  O   O5        1.0  0.92400  0.67200  0.14500  1.0000
  O   O6        1.0  0.43500  0.20900  0.14800  1.0000
  O   O7        1.0  0.32700  0.04090  0.23100  1.0000
  O   O8        1.0  0.80800  0.84100  0.23600  1.0000
  O   O9        1.0  0.28200  0.37100  0.25900  1.0000
  O   O10       1.0  0.77700  0.52000  0.27500  1.0000
  O   O11       1.0  0.94900  0.08330  0.36000  1.0000
  O   O12       1.0  0.45000  0.80500  0.36600  1.0000
  O   O13       1.0  0.37900  0.16000  0.42700  1.0000
  O   O14       1.0  0.87900  0.73500  0.43500  1.0000
  O   O15       1.0  0.78300  0.93300  0.44300  1.0000
  O   O16       1.0  0.28800  0.95800  0.45400  1.0000
  O   O17       1.0  0.71200  0.45800  0.54600  1.0000
  O   O18       1.0  0.21700  0.43300  0.55700  1.0000
  O   O19       1.0  0.12100  0.23500  0.56500  1.0000
  O   O20       1.0  0.62100  0.66000  0.57300  1.0000
  O   O21       1.0  0.55000  0.30500  0.63400  1.0000
  O   O22       1.0  0.05110  0.58300  0.64000  1.0000
  O   O23       1.0  0.22300  0.02050  0.72500  1.0000
  O   O24       1.0  0.71800  0.87100  0.74100  1.0000
  O   O25       1.0  0.19200  0.34100  0.76400  1.0000
  O   O26       1.0  0.67300  0.54100  0.76900  1.0000
  O   O27       1.0  0.56500  0.70900  0.85200  1.0000
  O   O28       1.0  0.07560  0.17200  0.85500  1.0000
  O   O29       1.0  0.02710  0.75100  0.86400  1.0000
  O   O30       1.0  0.53500  0.12500  0.86600  1.0000
  O   O31       1.0  0.22000  0.00573  0.96100  1.0000
  O   O32       1.0  0.72800  0.86300  0.97800  1.0000
  Se  Se1       1.0  0.22700  0.30500  0.14100  1.0000
  Se  Se2       1.0  0.72200  0.57400  0.14900  1.0000
  Se  Se3       1.0  0.73300  0.82900  0.36900  1.0000
  Se  Se4       1.0  0.26700  0.32900  0.63100  1.0000
  Se  Se5       1.0  0.27800  0.07350  0.85100  1.0000
  Se  Se6       1.0  0.77300  0.80500  0.85900  1.0000
