data_image0
_chemical_formula_structural       C4Cl28N16P12
_chemical_formula_sum              "C4 Cl28 N16 P12"
_cell_length_a       10.6308
_cell_length_b       12.8469
_cell_length_c       10.4413
_cell_angle_alpha    90
_cell_angle_beta     111.008
_cell_angle_gamma    90

_space_group_name_H-M_alt    "P 1"
_space_group_IT_number       1

loop_
  _space_group_symop_operation_xyz
  'x, y, z'

loop_
  _atom_site_type_symbol
  _atom_site_label
  _atom_site_symmetry_multiplicity
  _atom_site_fract_x
  _atom_site_fract_y
  _atom_site_fract_z
  _atom_site_occupancy
  C   C1        1.0  0.85000  0.97900  0.16800  1.0000
  C   C2        1.0  0.15000  0.47900  0.33200  1.0000
  C   C3        1.0  0.85000  0.52100  0.66800  1.0000
  C   C4        1.0  0.15000  0.02110  0.83200  1.0000
  Cl  Cl1       1.0  0.60700  0.64900  0.00138  1.0000
  Cl  Cl2       1.0  0.30000  0.59500  0.10900  1.0000
  Cl  Cl3       1.0  0.53600  0.85000  0.13700  1.0000
  Cl  Cl4       1.0  0.14400  0.20900  0.14900  1.0000
  Cl  Cl5       1.0  0.02850  0.46600  0.16500  1.0000
  Cl  Cl6       1.0  0.24100  0.97600  0.18300  1.0000
  Cl  Cl7       1.0  0.09470  0.73700  0.18700  1.0000
  Cl  Cl8       1.0  0.90500  0.23700  0.31300  1.0000
  Cl  Cl9       1.0  0.75900  0.47600  0.31700  1.0000
  Cl  Cl10      1.0  0.97100  0.96600  0.33500  1.0000
  Cl  Cl11      1.0  0.85600  0.70900  0.35100  1.0000
  Cl  Cl12      1.0  0.46400  0.35000  0.36300  1.0000
  Cl  Cl13      1.0  0.70000  0.09500  0.39100  1.0000
  Cl  Cl14      1.0  0.39300  0.14900  0.49900  1.0000
  Cl  Cl15      1.0  0.60700  0.85100  0.50100  1.0000
  Cl  Cl16      1.0  0.30000  0.90500  0.60900  1.0000
  Cl  Cl17      1.0  0.53600  0.65000  0.63700  1.0000
  Cl  Cl18      1.0  0.14400  0.29100  0.64900  1.0000
  Cl  Cl19      1.0  0.02850  0.03450  0.66500  1.0000
  Cl  Cl20      1.0  0.24100  0.52400  0.68300  1.0000
  Cl  Cl21      1.0  0.09470  0.76300  0.68700  1.0000
  Cl  Cl22      1.0  0.90500  0.26300  0.81300  1.0000
  Cl  Cl23      1.0  0.75900  0.02430  0.81700  1.0000
  Cl  Cl24      1.0  0.97100  0.53400  0.83500  1.0000
  Cl  Cl25      1.0  0.85600  0.79100  0.85100  1.0000
  Cl  Cl26      1.0  0.46400  0.15000  0.86300  1.0000
  Cl  Cl27      1.0  0.70000  0.40500  0.89100  1.0000
  Cl  Cl28      1.0  0.39300  0.35100  0.99900  1.0000
  N   N1        1.0  0.86000  0.90600  0.08410  1.0000
  N   N2        1.0  0.39200  0.13700  0.11100  1.0000
  N   N3        1.0  0.76300  0.05580  0.13800  1.0000
  N   N4        1.0  0.62600  0.22800  0.14100  1.0000
  N   N5        1.0  0.37400  0.72800  0.35900  1.0000
  N   N6        1.0  0.23700  0.55600  0.36200  1.0000
  N   N7        1.0  0.60800  0.63700  0.38900  1.0000
  N   N8        1.0  0.14000  0.40600  0.41600  1.0000
  N   N9        1.0  0.86000  0.59400  0.58400  1.0000
  N   N10       1.0  0.39200  0.36300  0.61100  1.0000
  N   N11       1.0  0.76300  0.44400  0.63800  1.0000
  N   N12       1.0  0.62600  0.27200  0.64100  1.0000
  N   N13       1.0  0.37400  0.77200  0.85900  1.0000
  N   N14       1.0  0.23700  0.94400  0.86200  1.0000
  N   N15       1.0  0.60800  0.86300  0.88900  1.0000
  N   N16       1.0  0.14000  0.09440  0.91600  1.0000
  P   P1        1.0  0.47500  0.20800  0.04670  1.0000
  P   P2        1.0  0.24000  0.10500  0.07420  1.0000
  P   P3        1.0  0.74000  0.15000  0.22800  1.0000
  P   P4        1.0  0.26000  0.65000  0.27200  1.0000
  P   P5        1.0  0.76000  0.60500  0.42600  1.0000
  P   P6        1.0  0.52500  0.70800  0.45300  1.0000
  P   P7        1.0  0.47500  0.29200  0.54700  1.0000
  P   P8        1.0  0.24000  0.39500  0.57400  1.0000
  P   P9        1.0  0.74000  0.35000  0.72800  1.0000
  P   P10       1.0  0.26000  0.85000  0.77200  1.0000
  P   P11       1.0  0.76000  0.89500  0.92600  1.0000
  P   P12       1.0  0.52500  0.79200  0.95300  1.0000
