data_image0
_chemical_formula_structural       F24I4S28Sb4
_chemical_formula_sum              "F24 I4 S28 Sb4"
_cell_length_a       11.4035
_cell_length_b       8.79928
_cell_length_c       12.1061
_cell_angle_alpha    90
_cell_angle_beta     90
_cell_angle_gamma    90

_space_group_name_H-M_alt    "P 1"
_space_group_IT_number       1

loop_
  _space_group_symop_operation_xyz
  'x, y, z'

loop_
  _atom_site_type_symbol
  _atom_site_label
  _atom_site_symmetry_multiplicity
  _atom_site_fract_x
  _atom_site_fract_y
  _atom_site_fract_z
  _atom_site_occupancy
  F   F1        1.0  0.19300  0.05640  0.00606  1.0000
  F   F2        1.0  0.97400  0.95800  0.05650  1.0000
  F   F3        1.0  0.03410  0.25500  0.08500  1.0000
  F   F4        1.0  0.15600  0.87700  0.18900  1.0000
  F   F5        1.0  0.21900  0.16800  0.21200  1.0000
  F   F6        1.0  0.00447  0.57800  0.23600  1.0000
  F   F7        1.0  0.99600  0.07840  0.26400  1.0000
  F   F8        1.0  0.78100  0.66800  0.28800  1.0000
  F   F9        1.0  0.84400  0.37700  0.31100  1.0000
  F   F10       1.0  0.96600  0.75500  0.41500  1.0000
  F   F11       1.0  0.02630  0.45800  0.44400  1.0000
  F   F12       1.0  0.80700  0.55600  0.49400  1.0000
  F   F13       1.0  0.30700  0.94400  0.50600  1.0000
  F   F14       1.0  0.52600  0.04180  0.55600  1.0000
  F   F15       1.0  0.46600  0.74500  0.58500  1.0000
  F   F16       1.0  0.34400  0.12300  0.68900  1.0000
  F   F17       1.0  0.28100  0.83200  0.71200  1.0000
  F   F18       1.0  0.49600  0.42200  0.73600  1.0000
  F   F19       1.0  0.50400  0.92200  0.76400  1.0000
  F   F20       1.0  0.71900  0.33200  0.78800  1.0000
  F   F21       1.0  0.65600  0.62300  0.81100  1.0000
  F   F22       1.0  0.53400  0.24500  0.91500  1.0000
  F   F23       1.0  0.47400  0.54200  0.94400  1.0000
  F   F24       1.0  0.69300  0.44400  0.99400  1.0000
  I   I1        1.0  0.72200  0.18600  0.11800  1.0000
  I   I2        1.0  0.27800  0.68600  0.38200  1.0000
  I   I3        1.0  0.77800  0.81400  0.61800  1.0000
  I   I4        1.0  0.22200  0.31400  0.88200  1.0000
  S   S1        1.0  0.94500  0.56400  0.00697  1.0000
  S   S2        1.0  0.13500  0.59700  0.04030  1.0000
  S   S3        1.0  0.69600  0.78100  0.07570  1.0000
  S   S4        1.0  0.42200  0.83900  0.13700  1.0000
  S   S5        1.0  0.39000  0.44100  0.17000  1.0000
  S   S6        1.0  0.75100  0.96200  0.21800  1.0000
  S   S7        1.0  0.53500  0.51500  0.24500  1.0000
  S   S8        1.0  0.46500  0.01460  0.25500  1.0000
  S   S9        1.0  0.24900  0.46200  0.28200  1.0000
  S   S10       1.0  0.61000  0.94100  0.33000  1.0000
  S   S11       1.0  0.57800  0.33900  0.36300  1.0000
  S   S12       1.0  0.30400  0.28100  0.42400  1.0000
  S   S13       1.0  0.86500  0.09690  0.46000  1.0000
  S   S14       1.0  0.05520  0.06400  0.49300  1.0000
  S   S15       1.0  0.55500  0.43600  0.50700  1.0000
  S   S16       1.0  0.36500  0.40300  0.54000  1.0000
  S   S17       1.0  0.80400  0.21900  0.57600  1.0000
  S   S18       1.0  0.07760  0.16100  0.63700  1.0000
  S   S19       1.0  0.11000  0.55900  0.67000  1.0000
  S   S20       1.0  0.74900  0.03800  0.71800  1.0000
  S   S21       1.0  0.96500  0.48500  0.74500  1.0000
  S   S22       1.0  0.03460  0.98500  0.75500  1.0000
  S   S23       1.0  0.25100  0.53800  0.78200  1.0000
  S   S24       1.0  0.89000  0.05930  0.83000  1.0000
  S   S25       1.0  0.92200  0.66100  0.86300  1.0000
  S   S26       1.0  0.19600  0.71900  0.92400  1.0000
  S   S27       1.0  0.63500  0.90300  0.96000  1.0000
  S   S28       1.0  0.44500  0.93600  0.99300  1.0000
  Sb  Sb1       1.0  0.09330  0.06460  0.13600  1.0000
  Sb  Sb2       1.0  0.90700  0.56500  0.36400  1.0000
  Sb  Sb3       1.0  0.40700  0.93500  0.63600  1.0000
  Sb  Sb4       1.0  0.59300  0.43500  0.86400  1.0000
