data_image0
_chemical_formula_structural       F40O4Rb8Sb8
_chemical_formula_sum              "F40 O4 Rb8 Sb8"
_cell_length_a       7.67753
_cell_length_b       14.5097
_cell_length_c       8.05696
_cell_angle_alpha    90
_cell_angle_beta     97.6989
_cell_angle_gamma    90

_space_group_name_H-M_alt    "P 1"
_space_group_IT_number       1

loop_
  _space_group_symop_operation_xyz
  'x, y, z'

loop_
  _atom_site_type_symbol
  _atom_site_label
  _atom_site_symmetry_multiplicity
  _atom_site_fract_x
  _atom_site_fract_y
  _atom_site_fract_z
  _atom_site_occupancy
  F   F1        1.0  0.82300  0.50000  0.00240  1.0000
  F   F2        1.0  0.48800  0.17300  0.00320  1.0000
  F   F3        1.0  0.15100  0.87300  0.09420  1.0000
  F   F4        1.0  0.16900  0.18600  0.11900  1.0000
  F   F5        1.0  0.93900  0.69500  0.14400  1.0000
  F   F6        1.0  0.34200  0.02220  0.17200  1.0000
  F   F7        1.0  0.04780  0.36700  0.18300  1.0000
  F   F8        1.0  0.80600  0.86300  0.20000  1.0000
  F   F9        1.0  0.46500  0.51300  0.21200  1.0000
  F   F10       1.0  0.62900  0.71000  0.24900  1.0000
  F   F11       1.0  0.87100  0.21000  0.25100  1.0000
  F   F12       1.0  0.03530  0.01290  0.28800  1.0000
  F   F13       1.0  0.69400  0.36300  0.30000  1.0000
  F   F14       1.0  0.45200  0.86700  0.31700  1.0000
  F   F15       1.0  0.15800  0.52200  0.32800  1.0000
  F   F16       1.0  0.56100  0.19500  0.35600  1.0000
  F   F17       1.0  0.33100  0.68600  0.38100  1.0000
  F   F18       1.0  0.34900  0.37300  0.40600  1.0000
  F   F19       1.0  0.01150  0.67300  0.49700  1.0000
  F   F20       1.0  0.67700  0.00000  0.49800  1.0000
  F   F21       1.0  0.32300  0.00031  0.50200  1.0000
  F   F22       1.0  0.98800  0.32700  0.50300  1.0000
  F   F23       1.0  0.65100  0.62700  0.59400  1.0000
  F   F24       1.0  0.66900  0.31400  0.61900  1.0000
  F   F25       1.0  0.43900  0.80500  0.64400  1.0000
  F   F26       1.0  0.84200  0.47800  0.67200  1.0000
  F   F27       1.0  0.54800  0.13300  0.68300  1.0000
  F   F28       1.0  0.30600  0.63700  0.70000  1.0000
  F   F29       1.0  0.96500  0.98700  0.71200  1.0000
  F   F30       1.0  0.12900  0.79000  0.74900  1.0000
  F   F31       1.0  0.37100  0.29000  0.75100  1.0000
  F   F32       1.0  0.53500  0.48700  0.78800  1.0000
  F   F33       1.0  0.19400  0.13700  0.80000  1.0000
  F   F34       1.0  0.95200  0.63300  0.81700  1.0000
  F   F35       1.0  0.65800  0.97800  0.82800  1.0000
  F   F36       1.0  0.06100  0.30500  0.85600  1.0000
  F   F37       1.0  0.83100  0.81400  0.88100  1.0000
  F   F38       1.0  0.84900  0.12700  0.90600  1.0000
  F   F39       1.0  0.51200  0.82700  0.99700  1.0000
  F   F40       1.0  0.17700  0.50000  0.99800  1.0000
  O   O1        1.0  0.37900  0.34300  0.06970  1.0000
  O   O2        1.0  0.12100  0.84300  0.43000  1.0000
  O   O3        1.0  0.87900  0.15700  0.57000  1.0000
  O   O4        1.0  0.62100  0.65700  0.93000  1.0000
  Rb  Rb1       1.0  0.26300  0.68400  0.03970  1.0000
  Rb  Rb2       1.0  0.69800  0.04100  0.16800  1.0000
  Rb  Rb3       1.0  0.80200  0.54100  0.33200  1.0000
  Rb  Rb4       1.0  0.23700  0.18400  0.46000  1.0000
  Rb  Rb5       1.0  0.76300  0.81600  0.54000  1.0000
  Rb  Rb6       1.0  0.19800  0.45900  0.66800  1.0000
  Rb  Rb7       1.0  0.30200  0.95900  0.83200  1.0000
  Rb  Rb8       1.0  0.73700  0.31600  0.96000  1.0000
  Sb  Sb1       1.0  0.72700  0.76000  0.05950  1.0000
  Sb  Sb2       1.0  0.26600  0.43200  0.19700  1.0000
  Sb  Sb3       1.0  0.23400  0.93200  0.30300  1.0000
  Sb  Sb4       1.0  0.77300  0.26000  0.44100  1.0000
  Sb  Sb5       1.0  0.22700  0.74000  0.55900  1.0000
  Sb  Sb6       1.0  0.76600  0.06780  0.69700  1.0000
  Sb  Sb7       1.0  0.73400  0.56800  0.80300  1.0000
  Sb  Sb8       1.0  0.27300  0.24000  0.94100  1.0000
