data_image0
_chemical_formula_structural       Gd2O2Se2Sr2
_chemical_formula_sum              "Gd2 O2 Se2 Sr2"
_cell_length_a       4.8026
_cell_length_b       4.8026
_cell_length_c       10.0783
_cell_angle_alpha    90
_cell_angle_beta     103.784
_cell_angle_gamma    120

_space_group_name_H-M_alt    "P 1"
_space_group_IT_number       1

loop_
  _space_group_symop_operation_xyz
  'x, y, z'

loop_
  _atom_site_type_symbol
  _atom_site_label
  _atom_site_symmetry_multiplicity
  _atom_site_fract_x
  _atom_site_fract_y
  _atom_site_fract_z
  _atom_site_occupancy
  Gd  Gd1       1.0  0.57400  0.78700  0.36100  1.0000
  Gd  Gd2       1.0  0.42600  0.21300  0.63900  1.0000
  O   O1        1.0  0.41500  0.70800  0.12300  1.0000
  O   O2        1.0  0.58500  0.29200  0.87700  1.0000
  Se  Se1       1.0  0.22100  0.11100  0.33200  1.0000
  Se  Se2       1.0  0.77900  0.88900  0.66800  1.0000
  Sr  Sr1       1.0  0.74800  0.37400  0.12200  1.0000
  Sr  Sr2       1.0  0.25200  0.62600  0.87800  1.0000
