data_image0
_chemical_formula_structural       H16N8Na8O20P8
_chemical_formula_sum              "H16 N8 Na8 O20 P8"
_cell_length_a       5.02933
_cell_length_b       11.2764
_cell_length_c       11.3791
_cell_angle_alpha    93.7759
_cell_angle_beta     102.767
_cell_angle_gamma    77.1145

_space_group_name_H-M_alt    "P 1"
_space_group_IT_number       1

loop_
  _space_group_symop_operation_xyz
  'x, y, z'

loop_
  _atom_site_type_symbol
  _atom_site_label
  _atom_site_symmetry_multiplicity
  _atom_site_fract_x
  _atom_site_fract_y
  _atom_site_fract_z
  _atom_site_occupancy
  H   H1        1.0  0.33500  0.35000  0.13000  1.0000
  H   H2        1.0  0.76800  0.12700  0.15000  1.0000
  H   H3        1.0  0.96100  0.81000  0.15500  1.0000
  H   H4        1.0  0.85800  0.71100  0.21100  1.0000
  H   H5        1.0  0.35800  0.78900  0.28900  1.0000
  H   H6        1.0  0.61600  0.69000  0.34500  1.0000
  H   H7        1.0  0.74500  0.37300  0.35000  1.0000
  H   H8        1.0  0.55500  0.15000  0.37000  1.0000
  H   H9        1.0  0.44500  0.85000  0.63000  1.0000
  H   H10       1.0  0.25500  0.62700  0.65000  1.0000
  H   H11       1.0  0.38400  0.31000  0.65500  1.0000
  H   H12       1.0  0.64200  0.21100  0.71100  1.0000
  H   H13       1.0  0.14200  0.28900  0.78900  1.0000
  H   H14       1.0  0.03890  0.19000  0.84500  1.0000
  H   H15       1.0  0.23200  0.87300  0.85000  1.0000
  H   H16       1.0  0.66500  0.65000  0.87000  1.0000
  N   N1        1.0  0.14500  0.32700  0.12700  1.0000
  N   N2        1.0  0.98100  0.12300  0.17500  1.0000
  N   N3        1.0  0.92900  0.37700  0.32500  1.0000
  N   N4        1.0  0.34500  0.17300  0.37300  1.0000
  N   N5        1.0  0.65500  0.82700  0.62700  1.0000
  N   N6        1.0  0.07080  0.62300  0.67500  1.0000
  N   N7        1.0  0.01910  0.87700  0.82500  1.0000
  N   N8        1.0  0.85500  0.67300  0.87300  1.0000
  Na  Na1       1.0  0.31900  0.60700  0.09490  1.0000
  Na  Na2       1.0  0.43800  0.91300  0.10800  1.0000
  Na  Na3       1.0  0.24200  0.58700  0.39200  1.0000
  Na  Na4       1.0  0.83100  0.89300  0.40500  1.0000
  Na  Na5       1.0  0.16900  0.10700  0.59500  1.0000
  Na  Na6       1.0  0.75800  0.41300  0.60800  1.0000
  Na  Na7       1.0  0.56200  0.08720  0.89200  1.0000
  Na  Na8       1.0  0.68100  0.39300  0.90500  1.0000
  O   O1        1.0  0.10300  0.80700  0.03860  1.0000
  O   O2        1.0  0.40800  0.11600  0.07590  1.0000
  O   O3        1.0  0.61800  0.42100  0.11400  1.0000
  O   O4        1.0  0.99400  0.54800  0.19300  1.0000
  O   O5        1.0  0.85000  0.80000  0.21500  1.0000
  O   O6        1.0  0.43500  0.70000  0.28500  1.0000
  O   O7        1.0  0.34800  0.95200  0.30700  1.0000
  O   O8        1.0  0.92400  0.07940  0.38600  1.0000
  O   O9        1.0  0.44700  0.38400  0.42400  1.0000
  O   O10       1.0  0.87100  0.69300  0.46100  1.0000
  O   O11       1.0  0.12900  0.30700  0.53900  1.0000
  O   O12       1.0  0.55300  0.61600  0.57600  1.0000
  O   O13       1.0  0.07590  0.92100  0.61400  1.0000
  O   O14       1.0  0.65200  0.04760  0.69300  1.0000
  O   O15       1.0  0.56500  0.30000  0.71500  1.0000
  O   O16       1.0  0.15000  0.20000  0.78500  1.0000
  O   O17       1.0  0.00627  0.45200  0.80700  1.0000
  O   O18       1.0  0.38200  0.57900  0.88600  1.0000
  O   O19       1.0  0.59200  0.88400  0.92400  1.0000
  O   O20       1.0  0.89700  0.19300  0.96100  1.0000
  P   P1        1.0  0.11500  0.18600  0.07890  1.0000
  P   P2        1.0  0.90700  0.42600  0.18600  1.0000
  P   P3        1.0  0.14700  0.07380  0.31400  1.0000
  P   P4        1.0  0.22200  0.31400  0.42100  1.0000
  P   P5        1.0  0.77800  0.68600  0.57900  1.0000
  P   P6        1.0  0.85300  0.92600  0.68600  1.0000
  P   P7        1.0  0.09260  0.57400  0.81400  1.0000
  P   P8        1.0  0.88500  0.81400  0.92100  1.0000
