data_image0
_chemical_formula_structural       C8Cd4Cl12H32N4
_chemical_formula_sum              "C8 Cd4 Cl12 H32 N4"
_cell_length_a       8.61152
_cell_length_b       13.1019
_cell_length_c       6.72794
_cell_angle_alpha    90
_cell_angle_beta     98.6645
_cell_angle_gamma    90

_space_group_name_H-M_alt    "P 1"
_space_group_IT_number       1

loop_
  _space_group_symop_operation_xyz
  'x, y, z'

loop_
  _atom_site_type_symbol
  _atom_site_label
  _atom_site_symmetry_multiplicity
  _atom_site_fract_x
  _atom_site_fract_y
  _atom_site_fract_z
  _atom_site_occupancy
  C   C1        1.0  0.28600  0.41800  0.10500  1.0000
  C   C2        1.0  0.85900  0.89100  0.10600  1.0000
  C   C3        1.0  0.14100  0.39100  0.39400  1.0000
  C   C4        1.0  0.71400  0.91800  0.39500  1.0000
  C   C5        1.0  0.28600  0.08200  0.60500  1.0000
  C   C6        1.0  0.85900  0.60900  0.60600  1.0000
  C   C7        1.0  0.14100  0.10900  0.89400  1.0000
  C   C8        1.0  0.71400  0.58200  0.89500  1.0000
  Cd  Cd1       1.0  0.70200  0.25800  0.01980  1.0000
  Cd  Cd2       1.0  0.29800  0.75800  0.48000  1.0000
  Cd  Cd3       1.0  0.70200  0.24200  0.52000  1.0000
  Cd  Cd4       1.0  0.29800  0.74200  0.98000  1.0000
  Cl  Cl1       1.0  0.09670  0.66100  0.19300  1.0000
  Cl  Cl2       1.0  0.49000  0.16700  0.21400  1.0000
  Cl  Cl3       1.0  0.30400  0.90400  0.21800  1.0000
  Cl  Cl4       1.0  0.69600  0.40400  0.28200  1.0000
  Cl  Cl5       1.0  0.51000  0.66700  0.28600  1.0000
  Cl  Cl6       1.0  0.90300  0.16100  0.30700  1.0000
  Cl  Cl7       1.0  0.09670  0.83900  0.69300  1.0000
  Cl  Cl8       1.0  0.49000  0.33300  0.71400  1.0000
  Cl  Cl9       1.0  0.30400  0.59600  0.71800  1.0000
  Cl  Cl10      1.0  0.69600  0.09620  0.78200  1.0000
  Cl  Cl11      1.0  0.51000  0.83300  0.78600  1.0000
  Cl  Cl12      1.0  0.90300  0.33900  0.80700  1.0000
  H   H1        1.0  0.17500  0.44100  0.01340  1.0000
  H   H2        1.0  0.14200  0.08740  0.05180  1.0000
  H   H3        1.0  0.38400  0.46100  0.06050  1.0000
  H   H4        1.0  0.62100  0.92000  0.08930  1.0000
  H   H5        1.0  0.30700  0.33600  0.09140  1.0000
  H   H6        1.0  0.84600  0.80800  0.11900  1.0000
  H   H7        1.0  0.73500  0.02000  0.16700  1.0000
  H   H8        1.0  0.96800  0.91600  0.19700  1.0000
  H   H9        1.0  0.03180  0.41600  0.30300  1.0000
  H   H10       1.0  0.26500  0.52000  0.33300  1.0000
  H   H11       1.0  0.15400  0.30800  0.38100  1.0000
  H   H12       1.0  0.69300  0.83600  0.40900  1.0000
  H   H13       1.0  0.37900  0.42000  0.41100  1.0000
  H   H14       1.0  0.61600  0.96100  0.43900  1.0000
  H   H15       1.0  0.85800  0.58700  0.44800  1.0000
  H   H16       1.0  0.82500  0.94100  0.48700  1.0000
  H   H17       1.0  0.17500  0.05940  0.51300  1.0000
  H   H18       1.0  0.14200  0.41300  0.55200  1.0000
  H   H19       1.0  0.38400  0.03900  0.56100  1.0000
  H   H20       1.0  0.62100  0.58000  0.58900  1.0000
  H   H21       1.0  0.30700  0.16400  0.59100  1.0000
  H   H22       1.0  0.84600  0.69200  0.61900  1.0000
  H   H23       1.0  0.73500  0.48000  0.66700  1.0000
  H   H24       1.0  0.96800  0.58400  0.69700  1.0000
  H   H25       1.0  0.03180  0.08410  0.80300  1.0000
  H   H26       1.0  0.26500  0.98000  0.83300  1.0000
  H   H27       1.0  0.15400  0.19200  0.88100  1.0000
  H   H28       1.0  0.69300  0.66400  0.90900  1.0000
  H   H29       1.0  0.37900  0.07980  0.91100  1.0000
  H   H30       1.0  0.61600  0.53900  0.93900  1.0000
  H   H31       1.0  0.85800  0.91300  0.94800  1.0000
  H   H32       1.0  0.82500  0.55900  0.98700  1.0000
  N   N1        1.0  0.72400  0.94200  0.18100  1.0000
  N   N2        1.0  0.27600  0.44200  0.31900  1.0000
  N   N3        1.0  0.72400  0.55800  0.68100  1.0000
  N   N4        1.0  0.27600  0.05840  0.81900  1.0000
