data_image0
_chemical_formula_structural       K8O36Te16
_chemical_formula_sum              "K8 O36 Te16"
_cell_length_a       7.55387
_cell_length_b       17.6955
_cell_length_c       7.77226
_cell_angle_alpha    90
_cell_angle_beta     109.212
_cell_angle_gamma    90

_space_group_name_H-M_alt    "P 1"
_space_group_IT_number       1

loop_
  _space_group_symop_operation_xyz
  'x, y, z'

loop_
  _atom_site_type_symbol
  _atom_site_label
  _atom_site_symmetry_multiplicity
  _atom_site_fract_x
  _atom_site_fract_y
  _atom_site_fract_z
  _atom_site_occupancy
  K   K1        1.0  0.15900  0.24300  0.12100  1.0000
  K   K2        1.0  0.11700  0.59200  0.12500  1.0000
  K   K3        1.0  0.88300  0.09240  0.37500  1.0000
  K   K4        1.0  0.84100  0.74300  0.37900  1.0000
  K   K5        1.0  0.15900  0.25700  0.62100  1.0000
  K   K6        1.0  0.11700  0.90800  0.62500  1.0000
  K   K7        1.0  0.88300  0.40800  0.87500  1.0000
  K   K8        1.0  0.84100  0.75700  0.87900  1.0000
  O   O1        1.0  0.80400  0.19600  0.00832  1.0000
  O   O2        1.0  0.78200  0.64700  0.07920  1.0000
  O   O3        1.0  0.59500  0.80900  0.08190  1.0000
  O   O4        1.0  0.24700  0.08590  0.08810  1.0000
  O   O5        1.0  0.61000  0.05420  0.08930  1.0000
  O   O6        1.0  0.43700  0.67500  0.15200  1.0000
  O   O7        1.0  0.84200  0.49400  0.16700  1.0000
  O   O8        1.0  0.89200  0.33800  0.19200  1.0000
  O   O9        1.0  0.56400  0.41300  0.23200  1.0000
  O   O10       1.0  0.43600  0.91300  0.26800  1.0000
  O   O11       1.0  0.10800  0.83800  0.30800  1.0000
  O   O12       1.0  0.15800  0.99400  0.33300  1.0000
  O   O13       1.0  0.56300  0.17500  0.34800  1.0000
  O   O14       1.0  0.39000  0.55400  0.41100  1.0000
  O   O15       1.0  0.75300  0.58600  0.41200  1.0000
  O   O16       1.0  0.40500  0.30900  0.41800  1.0000
  O   O17       1.0  0.21800  0.14700  0.42100  1.0000
  O   O18       1.0  0.19600  0.69600  0.49200  1.0000
  O   O19       1.0  0.80400  0.30400  0.50800  1.0000
  O   O20       1.0  0.78200  0.85300  0.57900  1.0000
  O   O21       1.0  0.59500  0.69100  0.58200  1.0000
  O   O22       1.0  0.24700  0.41400  0.58800  1.0000
  O   O23       1.0  0.61000  0.44600  0.58900  1.0000
  O   O24       1.0  0.43700  0.82500  0.65200  1.0000
  O   O25       1.0  0.84200  0.00645  0.66700  1.0000
  O   O26       1.0  0.89200  0.16200  0.69200  1.0000
  O   O27       1.0  0.56400  0.08750  0.73200  1.0000
  O   O28       1.0  0.43600  0.58700  0.76800  1.0000
  O   O29       1.0  0.10800  0.66200  0.80800  1.0000
  O   O30       1.0  0.15800  0.50600  0.83300  1.0000
  O   O31       1.0  0.56300  0.32500  0.84800  1.0000
  O   O32       1.0  0.39000  0.94600  0.91100  1.0000
  O   O33       1.0  0.75300  0.91400  0.91200  1.0000
  O   O34       1.0  0.40500  0.19100  0.91800  1.0000
  O   O35       1.0  0.21800  0.35300  0.92100  1.0000
  O   O36       1.0  0.19600  0.80400  0.99200  1.0000
  Te  Te1       1.0  0.62100  0.25800  0.05450  1.0000
  Te  Te2       1.0  0.61300  0.92100  0.10200  1.0000
  Te  Te3       1.0  0.63800  0.57600  0.14600  1.0000
  Te  Te4       1.0  0.16500  0.91000  0.15500  1.0000
  Te  Te5       1.0  0.83500  0.41000  0.34500  1.0000
  Te  Te6       1.0  0.36200  0.07590  0.35400  1.0000
  Te  Te7       1.0  0.38700  0.42100  0.39800  1.0000
  Te  Te8       1.0  0.37900  0.75800  0.44600  1.0000
  Te  Te9       1.0  0.62100  0.24200  0.55400  1.0000
  Te  Te10      1.0  0.61300  0.57900  0.60200  1.0000
  Te  Te11      1.0  0.63800  0.92400  0.64600  1.0000
  Te  Te12      1.0  0.16500  0.59000  0.65500  1.0000
  Te  Te13      1.0  0.83500  0.08980  0.84500  1.0000
  Te  Te14      1.0  0.36200  0.42400  0.85400  1.0000
  Te  Te15      1.0  0.38700  0.07940  0.89800  1.0000
  Te  Te16      1.0  0.37900  0.74200  0.94600  1.0000
