data_image0
_chemical_formula_structural       Au8Nd16O36
_chemical_formula_sum              "Au8 Nd16 O36"
_cell_length_a       11.9631
_cell_length_b       6.12157
_cell_length_c       11.9767
_cell_angle_alpha    90
_cell_angle_beta     90
_cell_angle_gamma    90

_space_group_name_H-M_alt    "P 1"
_space_group_IT_number       1

loop_
  _space_group_symop_operation_xyz
  'x, y, z'

loop_
  _atom_site_type_symbol
  _atom_site_label
  _atom_site_symmetry_multiplicity
  _atom_site_fract_x
  _atom_site_fract_y
  _atom_site_fract_z
  _atom_site_occupancy
  Au  Au1       1.0  0.22800  0.08110  0.01090  1.0000
  Au  Au2       1.0  0.27200  0.58100  0.01090  1.0000
  Au  Au3       1.0  0.77200  0.08110  0.48900  1.0000
  Au  Au4       1.0  0.72800  0.58100  0.48900  1.0000
  Au  Au5       1.0  0.27200  0.41900  0.51100  1.0000
  Au  Au6       1.0  0.22800  0.91900  0.51100  1.0000
  Au  Au7       1.0  0.72800  0.41900  0.98900  1.0000
  Au  Au8       1.0  0.77200  0.91900  0.98900  1.0000
  Nd  Nd1       1.0  0.48800  0.24300  0.09010  1.0000
  Nd  Nd2       1.0  0.01190  0.74300  0.09010  1.0000
  Nd  Nd3       1.0  0.84100  0.30000  0.23600  1.0000
  Nd  Nd4       1.0  0.65900  0.80000  0.23600  1.0000
  Nd  Nd5       1.0  0.15900  0.30000  0.26400  1.0000
  Nd  Nd6       1.0  0.34100  0.80000  0.26400  1.0000
  Nd  Nd7       1.0  0.51200  0.24300  0.41000  1.0000
  Nd  Nd8       1.0  0.98800  0.74300  0.41000  1.0000
  Nd  Nd9       1.0  0.01190  0.25700  0.59000  1.0000
  Nd  Nd10      1.0  0.48800  0.75700  0.59000  1.0000
  Nd  Nd11      1.0  0.65900  0.20000  0.73600  1.0000
  Nd  Nd12      1.0  0.84100  0.70000  0.73600  1.0000
  Nd  Nd13      1.0  0.34100  0.20000  0.76400  1.0000
  Nd  Nd14      1.0  0.15900  0.70000  0.76400  1.0000
  Nd  Nd15      1.0  0.98800  0.25700  0.91000  1.0000
  Nd  Nd16      1.0  0.51200  0.75700  0.91000  1.0000
  O   O1        1.0  0.88400  0.44000  0.05390  1.0000
  O   O2        1.0  0.61600  0.94000  0.05390  1.0000
  O   O3        1.0  0.07580  0.11500  0.08990  1.0000
  O   O4        1.0  0.42400  0.61500  0.08990  1.0000
  O   O5        1.0  0.66300  0.43700  0.14900  1.0000
  O   O6        1.0  0.83700  0.93700  0.14900  1.0000
  O   O7        1.0  0.30300  0.12500  0.15900  1.0000
  O   O8        1.0  0.19700  0.62500  0.15900  1.0000
  O   O9        1.0  0.50000  0.02310  0.25000  1.0000
  O   O10       1.0  0.00000  0.52300  0.25000  1.0000
  O   O11       1.0  0.69700  0.12500  0.34100  1.0000
  O   O12       1.0  0.80300  0.62500  0.34100  1.0000
  O   O13       1.0  0.33700  0.43700  0.35100  1.0000
  O   O14       1.0  0.16300  0.93700  0.35100  1.0000
  O   O15       1.0  0.92400  0.11500  0.41000  1.0000
  O   O16       1.0  0.57600  0.61500  0.41000  1.0000
  O   O17       1.0  0.11600  0.44000  0.44600  1.0000
  O   O18       1.0  0.38400  0.94000  0.44600  1.0000
  O   O19       1.0  0.61600  0.05990  0.55400  1.0000
  O   O20       1.0  0.88400  0.56000  0.55400  1.0000
  O   O21       1.0  0.42400  0.38500  0.59000  1.0000
  O   O22       1.0  0.07580  0.88500  0.59000  1.0000
  O   O23       1.0  0.83700  0.06310  0.64900  1.0000
  O   O24       1.0  0.66300  0.56300  0.64900  1.0000
  O   O25       1.0  0.19700  0.37500  0.65900  1.0000
  O   O26       1.0  0.30300  0.87500  0.65900  1.0000
  O   O27       1.0  0.00000  0.47700  0.75000  1.0000
  O   O28       1.0  0.50000  0.97700  0.75000  1.0000
  O   O29       1.0  0.80300  0.37500  0.84100  1.0000
  O   O30       1.0  0.69700  0.87500  0.84100  1.0000
  O   O31       1.0  0.16300  0.06310  0.85100  1.0000
  O   O32       1.0  0.33700  0.56300  0.85100  1.0000
  O   O33       1.0  0.57600  0.38500  0.91000  1.0000
  O   O34       1.0  0.92400  0.88500  0.91000  1.0000
  O   O35       1.0  0.38400  0.05990  0.94600  1.0000
  O   O36       1.0  0.11600  0.56000  0.94600  1.0000
