data_image0
_chemical_formula_structural       Cl8Nd8O32Ti12
_chemical_formula_sum              "Cl8 Nd8 O32 Ti12"
_cell_length_a       14.668
_cell_length_b       11.5383
_cell_length_c       5.04062
_cell_angle_alpha    90
_cell_angle_beta     90
_cell_angle_gamma    90

_space_group_name_H-M_alt    "P 1"
_space_group_IT_number       1

loop_
  _space_group_symop_operation_xyz
  'x, y, z'

loop_
  _atom_site_type_symbol
  _atom_site_label
  _atom_site_symmetry_multiplicity
  _atom_site_fract_x
  _atom_site_fract_y
  _atom_site_fract_z
  _atom_site_occupancy
  Cl  Cl1       1.0  0.92600  0.10400  0.01530  1.0000
  Cl  Cl2       1.0  0.57400  0.60400  0.01530  1.0000
  Cl  Cl3       1.0  0.07360  0.10400  0.48500  1.0000
  Cl  Cl4       1.0  0.42600  0.60400  0.48500  1.0000
  Cl  Cl5       1.0  0.57400  0.39600  0.51500  1.0000
  Cl  Cl6       1.0  0.92600  0.89600  0.51500  1.0000
  Cl  Cl7       1.0  0.42600  0.39600  0.98500  1.0000
  Cl  Cl8       1.0  0.07360  0.89600  0.98500  1.0000
  Nd  Nd1       1.0  0.66000  0.36500  0.02080  1.0000
  Nd  Nd2       1.0  0.84000  0.86500  0.02080  1.0000
  Nd  Nd3       1.0  0.34000  0.36500  0.47900  1.0000
  Nd  Nd4       1.0  0.16000  0.86500  0.47900  1.0000
  Nd  Nd5       1.0  0.84000  0.13500  0.52100  1.0000
  Nd  Nd6       1.0  0.66000  0.63500  0.52100  1.0000
  Nd  Nd7       1.0  0.16000  0.13500  0.97900  1.0000
  Nd  Nd8       1.0  0.34000  0.63500  0.97900  1.0000
  O   O1        1.0  0.42300  0.04580  0.06430  1.0000
  O   O2        1.0  0.07720  0.54600  0.06430  1.0000
  O   O3        1.0  0.08160  0.31500  0.07350  1.0000
  O   O4        1.0  0.41800  0.81500  0.07350  1.0000
  O   O5        1.0  0.24100  0.46900  0.17300  1.0000
  O   O6        1.0  0.25900  0.96900  0.17300  1.0000
  O   O7        1.0  0.27700  0.20500  0.24800  1.0000
  O   O8        1.0  0.22300  0.70500  0.24800  1.0000
  O   O9        1.0  0.72300  0.20500  0.25200  1.0000
  O   O10       1.0  0.77700  0.70500  0.25200  1.0000
  O   O11       1.0  0.75900  0.46900  0.32700  1.0000
  O   O12       1.0  0.74100  0.96900  0.32700  1.0000
  O   O13       1.0  0.91800  0.31500  0.42700  1.0000
  O   O14       1.0  0.58200  0.81500  0.42700  1.0000
  O   O15       1.0  0.57700  0.04580  0.43600  1.0000
  O   O16       1.0  0.92300  0.54600  0.43600  1.0000
  O   O17       1.0  0.07720  0.45400  0.56400  1.0000
  O   O18       1.0  0.42300  0.95400  0.56400  1.0000
  O   O19       1.0  0.41800  0.18500  0.57300  1.0000
  O   O20       1.0  0.08160  0.68500  0.57300  1.0000
  O   O21       1.0  0.25900  0.03100  0.67300  1.0000
  O   O22       1.0  0.24100  0.53100  0.67300  1.0000
  O   O23       1.0  0.22300  0.29500  0.74800  1.0000
  O   O24       1.0  0.27700  0.79500  0.74800  1.0000
  O   O25       1.0  0.77700  0.29500  0.75200  1.0000
  O   O26       1.0  0.72300  0.79500  0.75200  1.0000
  O   O27       1.0  0.74100  0.03100  0.82700  1.0000
  O   O28       1.0  0.75900  0.53100  0.82700  1.0000
  O   O29       1.0  0.58200  0.18500  0.92700  1.0000
  O   O30       1.0  0.91800  0.68500  0.92700  1.0000
  O   O31       1.0  0.92300  0.45400  0.93600  1.0000
  O   O32       1.0  0.57700  0.95400  0.93600  1.0000
  Ti  Ti1       1.0  0.66400  0.07830  0.12700  1.0000
  Ti  Ti2       1.0  0.83600  0.57800  0.12700  1.0000
  Ti  Ti3       1.0  0.00000  0.41000  0.25000  1.0000
  Ti  Ti4       1.0  0.50000  0.91000  0.25000  1.0000
  Ti  Ti5       1.0  0.33600  0.07830  0.37300  1.0000
  Ti  Ti6       1.0  0.16400  0.57800  0.37300  1.0000
  Ti  Ti7       1.0  0.83600  0.42200  0.62700  1.0000
  Ti  Ti8       1.0  0.66400  0.92200  0.62700  1.0000
  Ti  Ti9       1.0  0.50000  0.09040  0.75000  1.0000
  Ti  Ti10      1.0  0.00000  0.59000  0.75000  1.0000
  Ti  Ti11      1.0  0.16400  0.42200  0.87300  1.0000
  Ti  Ti12      1.0  0.33600  0.92200  0.87300  1.0000
