data_image0
_chemical_formula_structural       K4O40P12Th4
_chemical_formula_sum              "K4 O40 P12 Th4"
_cell_length_a       8.21874
_cell_length_b       10.037
_cell_length_c       9.99375
_cell_angle_alpha    90
_cell_angle_beta     90
_cell_angle_gamma    90

_space_group_name_H-M_alt    "P 1"
_space_group_IT_number       1

loop_
  _space_group_symop_operation_xyz
  'x, y, z'

loop_
  _atom_site_type_symbol
  _atom_site_label
  _atom_site_symmetry_multiplicity
  _atom_site_fract_x
  _atom_site_fract_y
  _atom_site_fract_z
  _atom_site_occupancy
  K   K1        1.0  0.59100  0.66500  0.23900  1.0000
  K   K2        1.0  0.40900  0.16500  0.26100  1.0000
  K   K3        1.0  0.90900  0.33500  0.73900  1.0000
  K   K4        1.0  0.09080  0.83500  0.76100  1.0000
  O   O1        1.0  0.37600  0.46400  0.00331  1.0000
  O   O2        1.0  0.08010  0.73900  0.04290  1.0000
  O   O3        1.0  0.99600  0.26200  0.05300  1.0000
  O   O4        1.0  0.59500  0.98800  0.07240  1.0000
  O   O5        1.0  0.89700  0.54600  0.11300  1.0000
  O   O6        1.0  0.36700  0.83700  0.11500  1.0000
  O   O7        1.0  0.14600  0.05030  0.11700  1.0000
  O   O8        1.0  0.61500  0.38400  0.12900  1.0000
  O   O9        1.0  0.83600  0.87900  0.19500  1.0000
  O   O10       1.0  0.76500  0.12600  0.21700  1.0000
  O   O11       1.0  0.23500  0.62600  0.28300  1.0000
  O   O12       1.0  0.16400  0.37900  0.30500  1.0000
  O   O13       1.0  0.38500  0.88400  0.37100  1.0000
  O   O14       1.0  0.85400  0.55000  0.38300  1.0000
  O   O15       1.0  0.63300  0.33700  0.38500  1.0000
  O   O16       1.0  0.10300  0.04600  0.38700  1.0000
  O   O17       1.0  0.40500  0.48800  0.42800  1.0000
  O   O18       1.0  0.00441  0.76200  0.44700  1.0000
  O   O19       1.0  0.92000  0.23900  0.45700  1.0000
  O   O20       1.0  0.62400  0.96400  0.49700  1.0000
  O   O21       1.0  0.12400  0.53600  0.50300  1.0000
  O   O22       1.0  0.42000  0.26100  0.54300  1.0000
  O   O23       1.0  0.50400  0.73800  0.55300  1.0000
  O   O24       1.0  0.90500  0.01240  0.57200  1.0000
  O   O25       1.0  0.60300  0.45400  0.61300  1.0000
  O   O26       1.0  0.13300  0.16300  0.61500  1.0000
  O   O27       1.0  0.35400  0.95000  0.61700  1.0000
  O   O28       1.0  0.88500  0.61600  0.62900  1.0000
  O   O29       1.0  0.66400  0.12100  0.69500  1.0000
  O   O30       1.0  0.73500  0.87400  0.71700  1.0000
  O   O31       1.0  0.26500  0.37400  0.78300  1.0000
  O   O32       1.0  0.33600  0.62100  0.80500  1.0000
  O   O33       1.0  0.11500  0.11600  0.87100  1.0000
  O   O34       1.0  0.64600  0.45000  0.88300  1.0000
  O   O35       1.0  0.86700  0.66300  0.88500  1.0000
  O   O36       1.0  0.39700  0.95400  0.88700  1.0000
  O   O37       1.0  0.09500  0.51200  0.92800  1.0000
  O   O38       1.0  0.49600  0.23800  0.94700  1.0000
  O   O39       1.0  0.58000  0.76100  0.95700  1.0000
  O   O40       1.0  0.87600  0.03570  0.99700  1.0000
  P   P1        1.0  0.47600  0.87800  0.00035  1.0000
  P   P2        1.0  0.04510  0.12200  0.01120  1.0000
  P   P3        1.0  0.77100  0.00405  0.12900  1.0000
  P   P4        1.0  0.22900  0.50400  0.37100  1.0000
  P   P5        1.0  0.95500  0.62200  0.48900  1.0000
  P   P6        1.0  0.52400  0.37800  0.50000  1.0000
  P   P7        1.0  0.02430  0.12200  0.50000  1.0000
  P   P8        1.0  0.45500  0.87800  0.51100  1.0000
  P   P9        1.0  0.72900  0.99600  0.62900  1.0000
  P   P10       1.0  0.27100  0.49600  0.87100  1.0000
  P   P11       1.0  0.54500  0.37800  0.98900  1.0000
  P   P12       1.0  0.97600  0.62200  0.00000  1.0000
  Th  Th1       1.0  0.13300  0.84900  0.25000  1.0000
  Th  Th2       1.0  0.86700  0.34900  0.25000  1.0000
  Th  Th3       1.0  0.36700  0.15100  0.75000  1.0000
  Th  Th4       1.0  0.63300  0.65100  0.75000  1.0000
