data_image0
_chemical_formula_structural       H28N8O20V4
_chemical_formula_sum              "H28 N8 O20 V4"
_cell_length_a       7.91449
_cell_length_b       6.80696
_cell_length_c       8.96495
_cell_angle_alpha    90
_cell_angle_beta     90
_cell_angle_gamma    90

_space_group_name_H-M_alt    "P 1"
_space_group_IT_number       1

loop_
  _space_group_symop_operation_xyz
  'x, y, z'

loop_
  _atom_site_type_symbol
  _atom_site_label
  _atom_site_symmetry_multiplicity
  _atom_site_fract_x
  _atom_site_fract_y
  _atom_site_fract_z
  _atom_site_occupancy
  H   H1        1.0  0.44900  0.75000  0.01200  1.0000
  H   H2        1.0  0.87000  0.62700  0.03520  1.0000
  H   H3        1.0  0.87000  0.87300  0.03520  1.0000
  H   H4        1.0  0.96800  0.25000  0.04570  1.0000
  H   H5        1.0  0.30900  0.75000  0.15600  1.0000
  H   H6        1.0  0.49400  0.62800  0.17200  1.0000
  H   H7        1.0  0.49400  0.87200  0.17200  1.0000
  H   H8        1.0  0.99400  0.62800  0.32800  1.0000
  H   H9        1.0  0.99400  0.87200  0.32800  1.0000
  H   H10       1.0  0.80900  0.75000  0.34400  1.0000
  H   H11       1.0  0.46800  0.25000  0.45400  1.0000
  H   H12       1.0  0.37000  0.62700  0.46500  1.0000
  H   H13       1.0  0.37000  0.87300  0.46500  1.0000
  H   H14       1.0  0.94900  0.75000  0.48800  1.0000
  H   H15       1.0  0.05080  0.25000  0.51200  1.0000
  H   H16       1.0  0.63000  0.12700  0.53500  1.0000
  H   H17       1.0  0.63000  0.37300  0.53500  1.0000
  H   H18       1.0  0.53200  0.75000  0.54600  1.0000
  H   H19       1.0  0.19100  0.25000  0.65600  1.0000
  H   H20       1.0  0.00613  0.12800  0.67200  1.0000
  H   H21       1.0  0.00613  0.37200  0.67200  1.0000
  H   H22       1.0  0.50600  0.12800  0.82800  1.0000
  H   H23       1.0  0.50600  0.37200  0.82800  1.0000
  H   H24       1.0  0.69100  0.25000  0.84400  1.0000
  H   H25       1.0  0.03190  0.75000  0.95400  1.0000
  H   H26       1.0  0.13000  0.12700  0.96500  1.0000
  H   H27       1.0  0.13000  0.37300  0.96500  1.0000
  H   H28       1.0  0.55100  0.25000  0.98800  1.0000
  N   N1        1.0  0.09540  0.25000  0.02590  1.0000
  N   N2        1.0  0.43400  0.75000  0.12700  1.0000
  N   N3        1.0  0.93400  0.75000  0.37300  1.0000
  N   N4        1.0  0.59500  0.25000  0.47400  1.0000
  N   N5        1.0  0.40500  0.75000  0.52600  1.0000
  N   N6        1.0  0.06590  0.25000  0.62700  1.0000
  N   N7        1.0  0.56600  0.25000  0.87300  1.0000
  N   N8        1.0  0.90500  0.75000  0.97400  1.0000
  O   O1        1.0  0.73700  0.05120  0.12400  1.0000
  O   O2        1.0  0.73700  0.44900  0.12400  1.0000
  O   O3        1.0  0.42000  0.25000  0.15900  1.0000
  O   O4        1.0  0.16600  0.51900  0.23600  1.0000
  O   O5        1.0  0.16600  0.98100  0.23600  1.0000
  O   O6        1.0  0.66600  0.51900  0.26400  1.0000
  O   O7        1.0  0.66600  0.98100  0.26400  1.0000
  O   O8        1.0  0.92000  0.25000  0.34100  1.0000
  O   O9        1.0  0.23700  0.05120  0.37600  1.0000
  O   O10       1.0  0.23700  0.44900  0.37600  1.0000
  O   O11       1.0  0.76300  0.55100  0.62400  1.0000
  O   O12       1.0  0.76300  0.94900  0.62400  1.0000
  O   O13       1.0  0.07950  0.75000  0.65900  1.0000
  O   O14       1.0  0.33400  0.01890  0.73600  1.0000
  O   O15       1.0  0.33400  0.48100  0.73600  1.0000
  O   O16       1.0  0.83400  0.01890  0.76400  1.0000
  O   O17       1.0  0.83400  0.48100  0.76400  1.0000
  O   O18       1.0  0.58000  0.75000  0.84100  1.0000
  O   O19       1.0  0.26300  0.55100  0.87600  1.0000
  O   O20       1.0  0.26300  0.94900  0.87600  1.0000
  V   V1        1.0  0.22700  0.25000  0.22800  1.0000
  V   V2        1.0  0.72700  0.25000  0.27200  1.0000
  V   V3        1.0  0.27300  0.75000  0.72800  1.0000
  V   V4        1.0  0.77300  0.75000  0.77200  1.0000
