data_image0
_chemical_formula_structural       F20H24N4O4Zr4
_chemical_formula_sum              "F20 H24 N4 O4 Zr4"
_cell_length_a       9.26369
_cell_length_b       7.38848
_cell_length_c       6.67238
_cell_angle_alpha    90.0047
_cell_angle_beta     67.1131
_cell_angle_gamma    89.9982

_space_group_name_H-M_alt    "P 1"
_space_group_IT_number       1

loop_
  _space_group_symop_operation_xyz
  'x, y, z'

loop_
  _atom_site_type_symbol
  _atom_site_label
  _atom_site_symmetry_multiplicity
  _atom_site_fract_x
  _atom_site_fract_y
  _atom_site_fract_z
  _atom_site_occupancy
  F   F1        1.0  0.56800  0.63100  0.02210  1.0000
  F   F2        1.0  0.15300  0.20300  0.10600  1.0000
  F   F3        1.0  0.88900  0.09030  0.11400  1.0000
  F   F4        1.0  0.13300  0.67700  0.16300  1.0000
  F   F5        1.0  0.63500  0.29800  0.19000  1.0000
  F   F6        1.0  0.86600  0.79400  0.30400  1.0000
  F   F7        1.0  0.37000  0.17800  0.33400  1.0000
  F   F8        1.0  0.61100  0.59200  0.38400  1.0000
  F   F9        1.0  0.34600  0.70500  0.39500  1.0000
  F   F10       1.0  0.92900  0.12600  0.47700  1.0000
  F   F11       1.0  0.06790  0.86900  0.52200  1.0000
  F   F12       1.0  0.65300  0.29700  0.60600  1.0000
  F   F13       1.0  0.38900  0.41000  0.61400  1.0000
  F   F14       1.0  0.63300  0.82300  0.66300  1.0000
  F   F15       1.0  0.13500  0.20200  0.69000  1.0000
  F   F16       1.0  0.36600  0.70600  0.80300  1.0000
  F   F17       1.0  0.87000  0.32200  0.83400  1.0000
  F   F18       1.0  0.11100  0.90800  0.88400  1.0000
  F   F19       1.0  0.84600  0.79500  0.89500  1.0000
  F   F20       1.0  0.42900  0.37400  0.97700  1.0000
  H   H1        1.0  0.83100  0.40100  0.12400  1.0000
  H   H2        1.0  0.66500  0.86000  0.14200  1.0000
  H   H3        1.0  0.00434  0.37400  0.14400  1.0000
  H   H4        1.0  0.34500  0.04500  0.20200  1.0000
  H   H5        1.0  0.33400  0.82900  0.20800  1.0000
  H   H6        1.0  0.60700  0.06770  0.24700  1.0000
  H   H7        1.0  0.89400  0.56600  0.25200  1.0000
  H   H8        1.0  0.16600  0.32800  0.29500  1.0000
  H   H9        1.0  0.15400  0.54400  0.29800  1.0000
  H   H10       1.0  0.49600  0.87700  0.35500  1.0000
  H   H11       1.0  0.83700  0.35900  0.36100  1.0000
  H   H12       1.0  0.66700  0.90500  0.38200  1.0000
  H   H13       1.0  0.33100  0.09870  0.62300  1.0000
  H   H14       1.0  0.16400  0.64000  0.64200  1.0000
  H   H15       1.0  0.50400  0.12600  0.64400  1.0000
  H   H16       1.0  0.84500  0.45500  0.70200  1.0000
  H   H17       1.0  0.83400  0.67100  0.70800  1.0000
  H   H18       1.0  0.10700  0.43200  0.74800  1.0000
  H   H19       1.0  0.39400  0.93400  0.75200  1.0000
  H   H20       1.0  0.66600  0.17200  0.79500  1.0000
  H   H21       1.0  0.65400  0.95600  0.79800  1.0000
  H   H22       1.0  0.99600  0.62300  0.85600  1.0000
  H   H23       1.0  0.33700  0.14100  0.86100  1.0000
  H   H24       1.0  0.16800  0.59500  0.88100  1.0000
  N   N1        1.0  0.89400  0.42900  0.21800  1.0000
  N   N2        1.0  0.60700  0.93100  0.28400  1.0000
  N   N3        1.0  0.39400  0.07150  0.71800  1.0000
  N   N4        1.0  0.10700  0.56900  0.78400  1.0000
  O   O1        1.0  0.31300  0.93700  0.13400  1.0000
  O   O2        1.0  0.18600  0.43700  0.36700  1.0000
  O   O3        1.0  0.81300  0.56300  0.63400  1.0000
  O   O4        1.0  0.68600  0.06340  0.86700  1.0000
  Zr  Zr1       1.0  0.05830  0.94600  0.21500  1.0000
  Zr  Zr2       1.0  0.44200  0.44800  0.28300  1.0000
  Zr  Zr3       1.0  0.55800  0.55400  0.71500  1.0000
  Zr  Zr4       1.0  0.94200  0.05170  0.78300  1.0000
