data_image0
_chemical_formula_structural       Bi48Rh12
_chemical_formula_sum              "Bi48 Rh12"
_cell_length_a       13.0247
_cell_length_b       13.0247
_cell_length_c       13.0247
_cell_angle_alpha    109.471
_cell_angle_beta     109.471
_cell_angle_gamma    109.471

_space_group_name_H-M_alt    "P 1"
_space_group_IT_number       1

loop_
  _space_group_symop_operation_xyz
  'x, y, z'

loop_
  _atom_site_type_symbol
  _atom_site_label
  _atom_site_symmetry_multiplicity
  _atom_site_fract_x
  _atom_site_fract_y
  _atom_site_fract_z
  _atom_site_occupancy
  Bi  Bi1       1.0  0.21500  0.12700  0.03720  1.0000
  Bi  Bi2       1.0  0.32300  0.91000  0.03720  1.0000
  Bi  Bi3       1.0  0.87300  0.41000  0.08790  1.0000
  Bi  Bi4       1.0  0.71500  0.67700  0.08790  1.0000
  Bi  Bi5       1.0  0.62700  0.41200  0.08960  1.0000
  Bi  Bi6       1.0  0.96300  0.67700  0.08960  1.0000
  Bi  Bi7       1.0  0.03720  0.21500  0.12700  1.0000
  Bi  Bi8       1.0  0.59000  0.91200  0.12700  1.0000
  Bi  Bi9       1.0  0.21500  0.58800  0.17700  1.0000
  Bi  Bi10      1.0  0.46300  0.59000  0.17700  1.0000
  Bi  Bi11      1.0  0.58800  0.17700  0.21500  1.0000
  Bi  Bi12      1.0  0.12700  0.03720  0.21500  1.0000
  Bi  Bi13      1.0  0.46300  0.37300  0.28500  1.0000
  Bi  Bi14      1.0  0.32300  0.91200  0.28500  1.0000
  Bi  Bi15      1.0  0.91200  0.28500  0.32300  1.0000
  Bi  Bi16      1.0  0.91000  0.03720  0.32300  1.0000
  Bi  Bi17      1.0  0.28500  0.46300  0.37300  1.0000
  Bi  Bi18      1.0  0.58800  0.91000  0.37300  1.0000
  Bi  Bi19      1.0  0.82300  0.53700  0.41000  1.0000
  Bi  Bi20      1.0  0.08790  0.87300  0.41000  1.0000
  Bi  Bi21      1.0  0.08960  0.62700  0.41200  1.0000
  Bi  Bi22      1.0  0.82300  0.78500  0.41200  1.0000
  Bi  Bi23      1.0  0.37300  0.28500  0.46300  1.0000
  Bi  Bi24      1.0  0.59000  0.17700  0.46300  1.0000
  Bi  Bi25      1.0  0.41000  0.82300  0.53700  1.0000
  Bi  Bi26      1.0  0.62700  0.71500  0.53700  1.0000
  Bi  Bi27      1.0  0.17700  0.21500  0.58800  1.0000
  Bi  Bi28      1.0  0.91000  0.37300  0.58800  1.0000
  Bi  Bi29      1.0  0.91200  0.12700  0.59000  1.0000
  Bi  Bi30      1.0  0.17700  0.46300  0.59000  1.0000
  Bi  Bi31      1.0  0.41200  0.08960  0.62700  1.0000
  Bi  Bi32      1.0  0.71500  0.53700  0.62700  1.0000
  Bi  Bi33      1.0  0.08790  0.71500  0.67700  1.0000
  Bi  Bi34      1.0  0.08960  0.96300  0.67700  1.0000
  Bi  Bi35      1.0  0.67700  0.08790  0.71500  1.0000
  Bi  Bi36      1.0  0.53700  0.62700  0.71500  1.0000
  Bi  Bi37      1.0  0.87300  0.96300  0.78500  1.0000
  Bi  Bi38      1.0  0.41200  0.82300  0.78500  1.0000
  Bi  Bi39      1.0  0.53700  0.41000  0.82300  1.0000
  Bi  Bi40      1.0  0.78500  0.41200  0.82300  1.0000
  Bi  Bi41      1.0  0.96300  0.78500  0.87300  1.0000
  Bi  Bi42      1.0  0.41000  0.08790  0.87300  1.0000
  Bi  Bi43      1.0  0.03720  0.32300  0.91000  1.0000
  Bi  Bi44      1.0  0.37300  0.58800  0.91000  1.0000
  Bi  Bi45      1.0  0.28500  0.32300  0.91200  1.0000
  Bi  Bi46      1.0  0.12700  0.59000  0.91200  1.0000
  Bi  Bi47      1.0  0.67700  0.08960  0.96300  1.0000
  Bi  Bi48      1.0  0.78500  0.87300  0.96300  1.0000
  Rh  Rh1       1.0  0.25000  0.37500  0.12500  1.0000
  Rh  Rh2       1.0  0.37500  0.75000  0.12500  1.0000
  Rh  Rh3       1.0  0.37500  0.12500  0.25000  1.0000
  Rh  Rh4       1.0  0.87500  0.62500  0.25000  1.0000
  Rh  Rh5       1.0  0.12500  0.25000  0.37500  1.0000
  Rh  Rh6       1.0  0.75000  0.12500  0.37500  1.0000
  Rh  Rh7       1.0  0.87500  0.75000  0.62500  1.0000
  Rh  Rh8       1.0  0.25000  0.87500  0.62500  1.0000
  Rh  Rh9       1.0  0.12500  0.37500  0.75000  1.0000
  Rh  Rh10      1.0  0.62500  0.87500  0.75000  1.0000
  Rh  Rh11      1.0  0.62500  0.25000  0.87500  1.0000
  Rh  Rh12      1.0  0.75000  0.62500  0.87500  1.0000
