data_image0
_chemical_formula_structural       H32Mn4N16Na8
_chemical_formula_sum              "H32 Mn4 N16 Na8"
_cell_length_a       6.08839
_cell_length_b       14.1075
_cell_length_c       6.94776
_cell_angle_alpha    90.0013
_cell_angle_beta     115.571
_cell_angle_gamma    89.9989

_space_group_name_H-M_alt    "P 1"
_space_group_IT_number       1

loop_
  _space_group_symop_operation_xyz
  'x, y, z'

loop_
  _atom_site_type_symbol
  _atom_site_label
  _atom_site_symmetry_multiplicity
  _atom_site_fract_x
  _atom_site_fract_y
  _atom_site_fract_z
  _atom_site_occupancy
  H   H1        1.0  0.98800  0.24800  0.00893  1.0000
  H   H2        1.0  0.81200  0.44100  0.10000  1.0000
  H   H3        1.0  0.82800  0.22100  0.13700  1.0000
  H   H4        1.0  0.05720  0.49900  0.15200  1.0000
  H   H5        1.0  0.63500  0.33100  0.16700  1.0000
  H   H6        1.0  0.41700  0.27300  0.18500  1.0000
  H   H7        1.0  0.40700  0.52700  0.21500  1.0000
  H   H8        1.0  0.36200  0.63900  0.23700  1.0000
  H   H9        1.0  0.63800  0.13900  0.26300  1.0000
  H   H10       1.0  0.59300  0.02730  0.28500  1.0000
  H   H11       1.0  0.58300  0.77300  0.31500  1.0000
  H   H12       1.0  0.36500  0.83100  0.33300  1.0000
  H   H13       1.0  0.94300  0.99900  0.34800  1.0000
  H   H14       1.0  0.17200  0.72100  0.36300  1.0000
  H   H15       1.0  0.18800  0.94100  0.40000  1.0000
  H   H16       1.0  0.01220  0.74800  0.49100  1.0000
  H   H17       1.0  0.98800  0.25200  0.50900  1.0000
  H   H18       1.0  0.81200  0.05920  0.60000  1.0000
  H   H19       1.0  0.82800  0.27900  0.63700  1.0000
  H   H20       1.0  0.05720  0.00118  0.65200  1.0000
  H   H21       1.0  0.63500  0.16900  0.66700  1.0000
  H   H22       1.0  0.41700  0.22700  0.68500  1.0000
  H   H23       1.0  0.40700  0.97300  0.71500  1.0000
  H   H24       1.0  0.36200  0.86100  0.73700  1.0000
  H   H25       1.0  0.63800  0.36100  0.76300  1.0000
  H   H26       1.0  0.59300  0.47300  0.78500  1.0000
  H   H27       1.0  0.58300  0.72700  0.81500  1.0000
  H   H28       1.0  0.36500  0.66900  0.83300  1.0000
  H   H29       1.0  0.94300  0.50100  0.84800  1.0000
  H   H30       1.0  0.17200  0.77900  0.86300  1.0000
  H   H31       1.0  0.18800  0.55900  0.90000  1.0000
  H   H32       1.0  0.01230  0.75200  0.99100  1.0000
  Mn  Mn1       1.0  0.74300  0.61800  0.16500  1.0000
  Mn  Mn2       1.0  0.25700  0.11800  0.33500  1.0000
  Mn  Mn3       1.0  0.74300  0.88200  0.66500  1.0000
  Mn  Mn4       1.0  0.25700  0.38200  0.83500  1.0000
  N   N1        1.0  0.99900  0.21400  0.14400  1.0000
  N   N2        1.0  0.46100  0.34000  0.15100  1.0000
  N   N3        1.0  0.50600  0.08730  0.20200  1.0000
  N   N4        1.0  0.93200  0.48700  0.21200  1.0000
  N   N5        1.0  0.06800  0.98700  0.28800  1.0000
  N   N6        1.0  0.49400  0.58700  0.29800  1.0000
  N   N7        1.0  0.53900  0.84000  0.34900  1.0000
  N   N8        1.0  0.00125  0.71400  0.35600  1.0000
  N   N9        1.0  0.99900  0.28600  0.64400  1.0000
  N   N10       1.0  0.46100  0.16000  0.65100  1.0000
  N   N11       1.0  0.50600  0.41300  0.70200  1.0000
  N   N12       1.0  0.93200  0.01340  0.71200  1.0000
  N   N13       1.0  0.06800  0.51300  0.78800  1.0000
  N   N14       1.0  0.49400  0.91300  0.79800  1.0000
  N   N15       1.0  0.53900  0.66000  0.84900  1.0000
  N   N16       1.0  0.00125  0.78600  0.85600  1.0000
  Na  Na1       1.0  0.25000  0.94000  0.03730  1.0000
  Na  Na2       1.0  0.78000  0.85200  0.14100  1.0000
  Na  Na3       1.0  0.22000  0.35200  0.35900  1.0000
  Na  Na4       1.0  0.75000  0.44000  0.46300  1.0000
  Na  Na5       1.0  0.25000  0.56000  0.53700  1.0000
  Na  Na6       1.0  0.78000  0.64800  0.64100  1.0000
  Na  Na7       1.0  0.22000  0.14800  0.85900  1.0000
  Na  Na8       1.0  0.75000  0.06040  0.96300  1.0000
