data_image0
_chemical_formula_structural       C8F8O32Pd4S8
_chemical_formula_sum              "C8 F8 O32 Pd4 S8"
_cell_length_a       7.05047
_cell_length_b       14.2451
_cell_length_c       7.97505
_cell_angle_alpha    90
_cell_angle_beta     90.2212
_cell_angle_gamma    90

_space_group_name_H-M_alt    "P 1"
_space_group_IT_number       1

loop_
  _space_group_symop_operation_xyz
  'x, y, z'

loop_
  _atom_site_type_symbol
  _atom_site_label
  _atom_site_symmetry_multiplicity
  _atom_site_fract_x
  _atom_site_fract_y
  _atom_site_fract_z
  _atom_site_occupancy
  C   C1        1.0  0.56100  0.25100  0.08260  1.0000
  C   C2        1.0  0.77500  0.60200  0.24800  1.0000
  C   C3        1.0  0.72500  0.10200  0.25200  1.0000
  C   C4        1.0  0.93900  0.75100  0.41700  1.0000
  C   C5        1.0  0.06070  0.24900  0.58300  1.0000
  C   C6        1.0  0.27500  0.89800  0.74800  1.0000
  C   C7        1.0  0.22500  0.39800  0.75200  1.0000
  C   C8        1.0  0.43900  0.74900  0.91700  1.0000
  F   F1        1.0  0.89900  0.92400  0.05890  1.0000
  F   F2        1.0  0.92000  0.41100  0.17400  1.0000
  F   F3        1.0  0.58000  0.91100  0.32600  1.0000
  F   F4        1.0  0.60100  0.42400  0.44100  1.0000
  F   F5        1.0  0.39900  0.57600  0.55900  1.0000
  F   F6        1.0  0.42000  0.08940  0.67400  1.0000
  F   F7        1.0  0.08020  0.58900  0.82600  1.0000
  F   F8        1.0  0.10100  0.07600  0.94100  1.0000
  O   O1        1.0  0.06740  0.78000  0.01080  1.0000
  O   O2        1.0  0.60500  0.31600  0.01160  1.0000
  O   O3        1.0  0.36000  0.93200  0.09890  1.0000
  O   O4        1.0  0.25000  0.38000  0.12000  1.0000
  O   O5        1.0  0.74200  0.78000  0.12700  1.0000
  O   O6        1.0  0.14000  0.53800  0.15600  1.0000
  O   O7        1.0  0.19600  0.17800  0.16700  1.0000
  O   O8        1.0  0.62900  0.57100  0.22200  1.0000
  O   O9        1.0  0.87100  0.07120  0.27800  1.0000
  O   O10       1.0  0.30400  0.67800  0.33300  1.0000
  O   O11       1.0  0.36000  0.03780  0.34400  1.0000
  O   O12       1.0  0.75800  0.28000  0.37300  1.0000
  O   O13       1.0  0.25000  0.88000  0.38000  1.0000
  O   O14       1.0  0.14000  0.43200  0.40100  1.0000
  O   O15       1.0  0.89500  0.81600  0.48800  1.0000
  O   O16       1.0  0.43300  0.28000  0.48900  1.0000
  O   O17       1.0  0.56700  0.72000  0.51100  1.0000
  O   O18       1.0  0.10500  0.18400  0.51200  1.0000
  O   O19       1.0  0.86000  0.56800  0.59900  1.0000
  O   O20       1.0  0.75000  0.12000  0.62000  1.0000
  O   O21       1.0  0.24200  0.72000  0.62700  1.0000
  O   O22       1.0  0.64000  0.96200  0.65600  1.0000
  O   O23       1.0  0.69600  0.32200  0.66700  1.0000
  O   O24       1.0  0.12900  0.92900  0.72200  1.0000
  O   O25       1.0  0.37100  0.42900  0.77800  1.0000
  O   O26       1.0  0.80400  0.82200  0.83300  1.0000
  O   O27       1.0  0.86000  0.46200  0.84400  1.0000
  O   O28       1.0  0.25800  0.22000  0.87300  1.0000
  O   O29       1.0  0.75000  0.62000  0.88000  1.0000
  O   O30       1.0  0.64000  0.06800  0.90100  1.0000
  O   O31       1.0  0.39500  0.68400  0.98800  1.0000
  O   O32       1.0  0.93300  0.22000  0.98900  1.0000
  Pd  Pd1       1.0  0.47300  0.14400  0.20600  1.0000
  Pd  Pd2       1.0  0.02740  0.64400  0.29400  1.0000
  Pd  Pd3       1.0  0.97300  0.35600  0.70600  1.0000
  Pd  Pd4       1.0  0.52700  0.85600  0.79400  1.0000
  S   S1        1.0  0.87800  0.81600  0.00919  1.0000
  S   S2        1.0  0.13300  0.43900  0.22200  1.0000
  S   S3        1.0  0.36700  0.93900  0.27800  1.0000
  S   S4        1.0  0.62200  0.31600  0.49100  1.0000
  S   S5        1.0  0.37800  0.68400  0.50900  1.0000
  S   S6        1.0  0.63300  0.06140  0.72200  1.0000
  S   S7        1.0  0.86700  0.56100  0.77800  1.0000
  S   S8        1.0  0.12200  0.18400  0.99100  1.0000
