data_image0
_chemical_formula_structural       H32N8S16W4
_chemical_formula_sum              "H32 N8 S16 W4"
_cell_length_a       9.58619
_cell_length_b       6.97253
_cell_length_c       12.2596
_cell_angle_alpha    90
_cell_angle_beta     90
_cell_angle_gamma    90

_space_group_name_H-M_alt    "P 1"
_space_group_IT_number       1

loop_
  _space_group_symop_operation_xyz
  'x, y, z'

loop_
  _atom_site_type_symbol
  _atom_site_label
  _atom_site_symmetry_multiplicity
  _atom_site_fract_x
  _atom_site_fract_y
  _atom_site_fract_z
  _atom_site_occupancy
  H   H1        1.0  0.33000  0.12800  0.06290  1.0000
  H   H2        1.0  0.33000  0.37200  0.06290  1.0000
  H   H3        1.0  0.03320  0.75000  0.10800  1.0000
  H   H4        1.0  0.88900  0.62900  0.15200  1.0000
  H   H5        1.0  0.88900  0.87100  0.15200  1.0000
  H   H6        1.0  0.42800  0.25000  0.15400  1.0000
  H   H7        1.0  0.25200  0.25000  0.16600  1.0000
  H   H8        1.0  0.99100  0.75000  0.24100  1.0000
  H   H9        1.0  0.49100  0.75000  0.25900  1.0000
  H   H10       1.0  0.75200  0.25000  0.33400  1.0000
  H   H11       1.0  0.92800  0.25000  0.34600  1.0000
  H   H12       1.0  0.38900  0.62900  0.34800  1.0000
  H   H13       1.0  0.38900  0.87100  0.34800  1.0000
  H   H14       1.0  0.53300  0.75000  0.39200  1.0000
  H   H15       1.0  0.83000  0.12800  0.43700  1.0000
  H   H16       1.0  0.83000  0.37200  0.43700  1.0000
  H   H17       1.0  0.17000  0.62800  0.56300  1.0000
  H   H18       1.0  0.17000  0.87200  0.56300  1.0000
  H   H19       1.0  0.46700  0.25000  0.60800  1.0000
  H   H20       1.0  0.61100  0.12900  0.65200  1.0000
  H   H21       1.0  0.61100  0.37100  0.65200  1.0000
  H   H22       1.0  0.07160  0.75000  0.65400  1.0000
  H   H23       1.0  0.24800  0.75000  0.66600  1.0000
  H   H24       1.0  0.50900  0.25000  0.74100  1.0000
  H   H25       1.0  0.00945  0.25000  0.75900  1.0000
  H   H26       1.0  0.74800  0.75000  0.83400  1.0000
  H   H27       1.0  0.57200  0.75000  0.84600  1.0000
  H   H28       1.0  0.11100  0.12900  0.84800  1.0000
  H   H29       1.0  0.11100  0.37100  0.84800  1.0000
  H   H30       1.0  0.96700  0.25000  0.89200  1.0000
  H   H31       1.0  0.67000  0.62800  0.93700  1.0000
  H   H32       1.0  0.67000  0.87200  0.93700  1.0000
  N   N1        1.0  0.33500  0.25000  0.11100  1.0000
  N   N2        1.0  0.95000  0.75000  0.16300  1.0000
  N   N3        1.0  0.45000  0.75000  0.33700  1.0000
  N   N4        1.0  0.83500  0.25000  0.38900  1.0000
  N   N5        1.0  0.16500  0.75000  0.61100  1.0000
  N   N6        1.0  0.55000  0.25000  0.66300  1.0000
  N   N7        1.0  0.04950  0.25000  0.83700  1.0000
  N   N8        1.0  0.66500  0.75000  0.88900  1.0000
  S   S1        1.0  0.28000  0.75000  0.10700  1.0000
  S   S2        1.0  0.97400  0.25000  0.11100  1.0000
  S   S3        1.0  0.64900  0.50600  0.14100  1.0000
  S   S4        1.0  0.64900  0.99400  0.14100  1.0000
  S   S5        1.0  0.14900  0.50600  0.35900  1.0000
  S   S6        1.0  0.14900  0.99400  0.35900  1.0000
  S   S7        1.0  0.47400  0.25000  0.38900  1.0000
  S   S8        1.0  0.78000  0.75000  0.39300  1.0000
  S   S9        1.0  0.22000  0.25000  0.60700  1.0000
  S   S10       1.0  0.52600  0.75000  0.61100  1.0000
  S   S11       1.0  0.85100  0.00582  0.64100  1.0000
  S   S12       1.0  0.85100  0.49400  0.64100  1.0000
  S   S13       1.0  0.35100  0.00582  0.85900  1.0000
  S   S14       1.0  0.35100  0.49400  0.85900  1.0000
  S   S15       1.0  0.02620  0.75000  0.88900  1.0000
  S   S16       1.0  0.72000  0.25000  0.89300  1.0000
  W   W1        1.0  0.74900  0.25000  0.07130  1.0000
  W   W2        1.0  0.24900  0.25000  0.42900  1.0000
  W   W3        1.0  0.75100  0.75000  0.57100  1.0000
  W   W4        1.0  0.25100  0.75000  0.92900  1.0000
