data_image0
_chemical_formula_structural       B4Ga4H4O36P8Rb4
_chemical_formula_sum              "B4 Ga4 H4 O36 P8 Rb4"
_cell_length_a       9.26505
_cell_length_b       8.22378
_cell_length_c       9.48826
_cell_angle_alpha    90
_cell_angle_beta     101.95
_cell_angle_gamma    90

_space_group_name_H-M_alt    "P 1"
_space_group_IT_number       1

loop_
  _space_group_symop_operation_xyz
  'x, y, z'

loop_
  _atom_site_type_symbol
  _atom_site_label
  _atom_site_symmetry_multiplicity
  _atom_site_fract_x
  _atom_site_fract_y
  _atom_site_fract_z
  _atom_site_occupancy
  B   B1        1.0  0.82900  0.56500  0.19800  1.0000
  B   B2        1.0  0.17100  0.06460  0.30200  1.0000
  B   B3        1.0  0.82900  0.93500  0.69800  1.0000
  B   B4        1.0  0.17100  0.43500  0.80200  1.0000
  Ga  Ga1       1.0  0.29300  0.65000  0.06690  1.0000
  Ga  Ga2       1.0  0.70700  0.15000  0.43300  1.0000
  Ga  Ga3       1.0  0.29300  0.85000  0.56700  1.0000
  Ga  Ga4       1.0  0.70700  0.35000  0.93300  1.0000
  H   H1        1.0  0.90100  0.57900  0.00423  1.0000
  H   H2        1.0  0.09860  0.07880  0.49600  1.0000
  H   H3        1.0  0.90100  0.92100  0.50400  1.0000
  H   H4        1.0  0.09860  0.42100  0.99600  1.0000
  O   O1        1.0  0.81100  0.55600  0.03830  1.0000
  O   O2        1.0  0.85800  0.21700  0.05990  1.0000
  O   O3        1.0  0.58100  0.33700  0.07600  1.0000
  O   O4        1.0  0.39700  0.84100  0.15000  1.0000
  O   O5        1.0  0.14300  0.62200  0.18600  1.0000
  O   O6        1.0  0.41400  0.50700  0.20100  1.0000
  O   O7        1.0  0.68100  0.58400  0.22600  1.0000
  O   O8        1.0  0.09400  0.92000  0.23000  1.0000
  O   O9        1.0  0.09220  0.21300  0.24700  1.0000
  O   O10       1.0  0.90800  0.71300  0.25300  1.0000
  O   O11       1.0  0.90600  0.42000  0.27000  1.0000
  O   O12       1.0  0.31900  0.08410  0.27400  1.0000
  O   O13       1.0  0.58600  0.00713  0.29900  1.0000
  O   O14       1.0  0.85700  0.12200  0.31400  1.0000
  O   O15       1.0  0.60300  0.34100  0.35000  1.0000
  O   O16       1.0  0.41900  0.83700  0.42400  1.0000
  O   O17       1.0  0.14200  0.71700  0.44000  1.0000
  O   O18       1.0  0.18900  0.05610  0.46200  1.0000
  O   O19       1.0  0.81100  0.94400  0.53800  1.0000
  O   O20       1.0  0.85800  0.28300  0.56000  1.0000
  O   O21       1.0  0.58100  0.16300  0.57600  1.0000
  O   O22       1.0  0.39700  0.65900  0.65000  1.0000
  O   O23       1.0  0.14300  0.87800  0.68600  1.0000
  O   O24       1.0  0.41400  0.99300  0.70100  1.0000
  O   O25       1.0  0.68100  0.91600  0.72600  1.0000
  O   O26       1.0  0.09400  0.58000  0.73000  1.0000
  O   O27       1.0  0.09220  0.28700  0.74700  1.0000
  O   O28       1.0  0.90800  0.78700  0.75300  1.0000
  O   O29       1.0  0.90600  0.07980  0.77000  1.0000
  O   O30       1.0  0.31900  0.41600  0.77400  1.0000
  O   O31       1.0  0.58600  0.49300  0.79900  1.0000
  O   O32       1.0  0.85700  0.37800  0.81400  1.0000
  O   O33       1.0  0.60300  0.15900  0.85000  1.0000
  O   O34       1.0  0.41900  0.66300  0.92400  1.0000
  O   O35       1.0  0.14200  0.78300  0.94000  1.0000
  O   O36       1.0  0.18900  0.44400  0.96200  1.0000
  P   P1        1.0  0.56800  0.43600  0.20900  1.0000
  P   P2        1.0  0.92100  0.24100  0.22000  1.0000
  P   P3        1.0  0.07890  0.74100  0.28000  1.0000
  P   P4        1.0  0.43200  0.93600  0.29100  1.0000
  P   P5        1.0  0.56800  0.06350  0.70900  1.0000
  P   P6        1.0  0.92100  0.25900  0.72000  1.0000
  P   P7        1.0  0.07890  0.75900  0.78000  1.0000
  P   P8        1.0  0.43200  0.56400  0.79100  1.0000
  Rb  Rb1       1.0  0.69100  0.89500  0.05120  1.0000
  Rb  Rb2       1.0  0.30900  0.39500  0.44900  1.0000
  Rb  Rb3       1.0  0.69100  0.60500  0.55100  1.0000
  Rb  Rb4       1.0  0.30900  0.10500  0.94900  1.0000
