data_image0
_chemical_formula_structural       B12Ba6H12O30
_chemical_formula_sum              "B12 Ba6 H12 O30"
_cell_length_a       6.94539
_cell_length_b       7.12202
_cell_length_c       11.7978
_cell_angle_alpha    90
_cell_angle_beta     91.1532
_cell_angle_gamma    90

_space_group_name_H-M_alt    "P 1"
_space_group_IT_number       1

loop_
  _space_group_symop_operation_xyz
  'x, y, z'

loop_
  _atom_site_type_symbol
  _atom_site_label
  _atom_site_symmetry_multiplicity
  _atom_site_fract_x
  _atom_site_fract_y
  _atom_site_fract_z
  _atom_site_occupancy
  B   B1        1.0  0.82300  0.76300  0.06390  1.0000
  B   B2        1.0  0.66300  0.00374  0.19800  1.0000
  B   B3        1.0  0.50000  0.31600  0.25000  1.0000
  B   B4        1.0  0.00000  0.86100  0.25000  1.0000
  B   B5        1.0  0.33700  0.00374  0.30200  1.0000
  B   B6        1.0  0.17700  0.76300  0.43600  1.0000
  B   B7        1.0  0.82300  0.23700  0.56400  1.0000
  B   B8        1.0  0.66300  0.99600  0.69800  1.0000
  B   B9        1.0  0.50000  0.68400  0.75000  1.0000
  B   B10       1.0  0.00000  0.13900  0.75000  1.0000
  B   B11       1.0  0.33700  0.99600  0.80200  1.0000
  B   B12       1.0  0.17700  0.23700  0.93600  1.0000
  Ba  Ba1       1.0  0.31600  0.77700  0.05230  1.0000
  Ba  Ba2       1.0  0.00000  0.37900  0.25000  1.0000
  Ba  Ba3       1.0  0.68400  0.77700  0.44800  1.0000
  Ba  Ba4       1.0  0.31600  0.22300  0.55200  1.0000
  Ba  Ba5       1.0  0.00000  0.62100  0.75000  1.0000
  Ba  Ba6       1.0  0.68400  0.22300  0.94800  1.0000
  H   H1        1.0  0.11800  0.11800  0.09730  1.0000
  H   H2        1.0  0.35600  0.39200  0.10200  1.0000
  H   H3        1.0  0.63000  0.55300  0.11600  1.0000
  H   H4        1.0  0.37000  0.55300  0.38400  1.0000
  H   H5        1.0  0.64400  0.39200  0.39800  1.0000
  H   H6        1.0  0.88200  0.11800  0.40300  1.0000
  H   H7        1.0  0.11800  0.88200  0.59700  1.0000
  H   H8        1.0  0.35600  0.60800  0.60200  1.0000
  H   H9        1.0  0.63000  0.44700  0.61600  1.0000
  H   H10       1.0  0.37000  0.44700  0.88400  1.0000
  H   H11       1.0  0.64400  0.60800  0.89800  1.0000
  H   H12       1.0  0.88200  0.88200  0.90300  1.0000
  O   O1        1.0  0.07200  0.21800  0.04520  1.0000
  O   O2        1.0  0.70600  0.58300  0.04870  1.0000
  O   O3        1.0  0.69700  0.92100  0.08380  1.0000
  O   O4        1.0  0.96400  0.73200  0.15400  1.0000
  O   O5        1.0  0.38400  0.44900  0.17600  1.0000
  O   O6        1.0  0.62300  0.20500  0.17800  1.0000
  O   O7        1.0  0.16500  0.98400  0.22600  1.0000
  O   O8        1.0  0.50000  0.90800  0.25000  1.0000
  O   O9        1.0  0.83500  0.98400  0.27400  1.0000
  O   O10       1.0  0.37700  0.20500  0.32200  1.0000
  O   O11       1.0  0.61600  0.44900  0.32400  1.0000
  O   O12       1.0  0.03630  0.73200  0.34600  1.0000
  O   O13       1.0  0.30300  0.92100  0.41600  1.0000
  O   O14       1.0  0.29400  0.58300  0.45100  1.0000
  O   O15       1.0  0.92800  0.21800  0.45500  1.0000
  O   O16       1.0  0.07200  0.78200  0.54500  1.0000
  O   O17       1.0  0.70600  0.41700  0.54900  1.0000
  O   O18       1.0  0.69700  0.07880  0.58400  1.0000
  O   O19       1.0  0.96400  0.26800  0.65400  1.0000
  O   O20       1.0  0.38400  0.55100  0.67600  1.0000
  O   O21       1.0  0.62300  0.79500  0.67800  1.0000
  O   O22       1.0  0.16500  0.01600  0.72600  1.0000
  O   O23       1.0  0.50000  0.09250  0.75000  1.0000
  O   O24       1.0  0.83500  0.01600  0.77400  1.0000
  O   O25       1.0  0.37700  0.79500  0.82200  1.0000
  O   O26       1.0  0.61600  0.55100  0.82400  1.0000
  O   O27       1.0  0.03630  0.26800  0.84600  1.0000
  O   O28       1.0  0.30300  0.07880  0.91600  1.0000
  O   O29       1.0  0.29400  0.41700  0.95100  1.0000
  O   O30       1.0  0.92800  0.78200  0.95500  1.0000
