data_image0
_chemical_formula_structural       Bi16Cl4Nb4O32
_chemical_formula_sum              "Bi16 Cl4 Nb4 O32"
_cell_length_a       5.52344
_cell_length_b       5.56206
_cell_length_c       28.454
_cell_angle_alpha    90.0016
_cell_angle_beta     90
_cell_angle_gamma    90

_space_group_name_H-M_alt    "P 1"
_space_group_IT_number       1

loop_
  _space_group_symop_operation_xyz
  'x, y, z'

loop_
  _atom_site_type_symbol
  _atom_site_label
  _atom_site_symmetry_multiplicity
  _atom_site_fract_x
  _atom_site_fract_y
  _atom_site_fract_z
  _atom_site_occupancy
  Bi  Bi1       1.0  0.51100  0.76400  0.06620  1.0000
  Bi  Bi2       1.0  0.02760  0.26400  0.06620  1.0000
  Bi  Bi3       1.0  0.00137  0.80600  0.15700  1.0000
  Bi  Bi4       1.0  0.53800  0.30700  0.15700  1.0000
  Bi  Bi5       1.0  0.03770  0.80700  0.34300  1.0000
  Bi  Bi6       1.0  0.50100  0.30600  0.34300  1.0000
  Bi  Bi7       1.0  0.52800  0.76400  0.43400  1.0000
  Bi  Bi8       1.0  0.01070  0.26400  0.43400  1.0000
  Bi  Bi9       1.0  0.51100  0.73600  0.56600  1.0000
  Bi  Bi10      1.0  0.02760  0.23600  0.56600  1.0000
  Bi  Bi11      1.0  0.00137  0.69400  0.65700  1.0000
  Bi  Bi12      1.0  0.53800  0.19300  0.65700  1.0000
  Bi  Bi13      1.0  0.03770  0.69300  0.84300  1.0000
  Bi  Bi14      1.0  0.50100  0.19400  0.84300  1.0000
  Bi  Bi15      1.0  0.52800  0.73600  0.93400  1.0000
  Bi  Bi16      1.0  0.01070  0.23600  0.93400  1.0000
  Cl  Cl1       1.0  0.51900  0.25000  0.00000  1.0000
  Cl  Cl2       1.0  0.01850  0.75000  0.00000  1.0000
  Cl  Cl3       1.0  0.01860  0.75000  0.50000  1.0000
  Cl  Cl4       1.0  0.51900  0.25000  0.50000  1.0000
  Nb  Nb1       1.0  0.02150  0.25500  0.25000  1.0000
  Nb  Nb2       1.0  0.52100  0.75500  0.25000  1.0000
  Nb  Nb3       1.0  0.02150  0.24500  0.75000  1.0000
  Nb  Nb4       1.0  0.52100  0.74500  0.75000  1.0000
  O   O1        1.0  0.77000  0.00079  0.10300  1.0000
  O   O2        1.0  0.76900  0.50100  0.10300  1.0000
  O   O3        1.0  0.26700  0.01370  0.10600  1.0000
  O   O4        1.0  0.27100  0.51300  0.10600  1.0000
  O   O5        1.0  0.61900  0.68800  0.18400  1.0000
  O   O6        1.0  0.92100  0.18900  0.18400  1.0000
  O   O7        1.0  0.27000  0.96700  0.23300  1.0000
  O   O8        1.0  0.27600  0.46500  0.23300  1.0000
  O   O9        1.0  0.77600  0.96500  0.26700  1.0000
  O   O10       1.0  0.77000  0.46700  0.26700  1.0000
  O   O11       1.0  0.42100  0.68900  0.31600  1.0000
  O   O12       1.0  0.11900  0.18800  0.31600  1.0000
  O   O13       1.0  0.77100  0.01350  0.39400  1.0000
  O   O14       1.0  0.76700  0.51400  0.39400  1.0000
  O   O15       1.0  0.26900  0.00127  0.39700  1.0000
  O   O16       1.0  0.27000  0.50100  0.39700  1.0000
  O   O17       1.0  0.77000  0.49900  0.60300  1.0000
  O   O18       1.0  0.76900  0.99900  0.60300  1.0000
  O   O19       1.0  0.26700  0.48600  0.60600  1.0000
  O   O20       1.0  0.27100  0.98700  0.60600  1.0000
  O   O21       1.0  0.61900  0.81200  0.68400  1.0000
  O   O22       1.0  0.92100  0.31100  0.68400  1.0000
  O   O23       1.0  0.27000  0.53300  0.73300  1.0000
  O   O24       1.0  0.27600  0.03460  0.73300  1.0000
  O   O25       1.0  0.77600  0.53500  0.76700  1.0000
  O   O26       1.0  0.77000  0.03260  0.76700  1.0000
  O   O27       1.0  0.42100  0.81100  0.81600  1.0000
  O   O28       1.0  0.11900  0.31200  0.81600  1.0000
  O   O29       1.0  0.77100  0.48700  0.89400  1.0000
  O   O30       1.0  0.76700  0.98600  0.89400  1.0000
  O   O31       1.0  0.26900  0.49900  0.89700  1.0000
  O   O32       1.0  0.27000  0.99900  0.89700  1.0000
