data_image0
_chemical_formula_structural       Cl8O32Pr8Ti12
_chemical_formula_sum              "Cl8 O32 Pr8 Ti12"
_cell_length_a       14.663
_cell_length_b       11.6145
_cell_length_c       5.05939
_cell_angle_alpha    90
_cell_angle_beta     90
_cell_angle_gamma    90

_space_group_name_H-M_alt    "P 1"
_space_group_IT_number       1

loop_
  _space_group_symop_operation_xyz
  'x, y, z'

loop_
  _atom_site_type_symbol
  _atom_site_label
  _atom_site_symmetry_multiplicity
  _atom_site_fract_x
  _atom_site_fract_y
  _atom_site_fract_z
  _atom_site_occupancy
  Cl  Cl1       1.0  0.92800  0.10500  0.01470  1.0000
  Cl  Cl2       1.0  0.57200  0.60500  0.01470  1.0000
  Cl  Cl3       1.0  0.07220  0.10500  0.48500  1.0000
  Cl  Cl4       1.0  0.42800  0.60500  0.48500  1.0000
  Cl  Cl5       1.0  0.57200  0.39500  0.51500  1.0000
  Cl  Cl6       1.0  0.92800  0.89500  0.51500  1.0000
  Cl  Cl7       1.0  0.42800  0.39500  0.98500  1.0000
  Cl  Cl8       1.0  0.07220  0.89500  0.98500  1.0000
  O   O1        1.0  0.42300  0.04570  0.06450  1.0000
  O   O2        1.0  0.07730  0.54600  0.06450  1.0000
  O   O3        1.0  0.08140  0.31700  0.07400  1.0000
  O   O4        1.0  0.41900  0.81700  0.07400  1.0000
  O   O5        1.0  0.24100  0.46900  0.17300  1.0000
  O   O6        1.0  0.25900  0.96900  0.17300  1.0000
  O   O7        1.0  0.72300  0.20400  0.24900  1.0000
  O   O8        1.0  0.77700  0.70400  0.24900  1.0000
  O   O9        1.0  0.27700  0.20400  0.25100  1.0000
  O   O10       1.0  0.22300  0.70400  0.25100  1.0000
  O   O11       1.0  0.75900  0.46900  0.32700  1.0000
  O   O12       1.0  0.74100  0.96900  0.32700  1.0000
  O   O13       1.0  0.91900  0.31700  0.42600  1.0000
  O   O14       1.0  0.58100  0.81700  0.42600  1.0000
  O   O15       1.0  0.57700  0.04570  0.43600  1.0000
  O   O16       1.0  0.92300  0.54600  0.43600  1.0000
  O   O17       1.0  0.07730  0.45400  0.56400  1.0000
  O   O18       1.0  0.42300  0.95400  0.56400  1.0000
  O   O19       1.0  0.41900  0.18300  0.57400  1.0000
  O   O20       1.0  0.08140  0.68300  0.57400  1.0000
  O   O21       1.0  0.25900  0.03050  0.67300  1.0000
  O   O22       1.0  0.24100  0.53100  0.67300  1.0000
  O   O23       1.0  0.77700  0.29600  0.74900  1.0000
  O   O24       1.0  0.72300  0.79600  0.74900  1.0000
  O   O25       1.0  0.22300  0.29600  0.75100  1.0000
  O   O26       1.0  0.27700  0.79600  0.75100  1.0000
  O   O27       1.0  0.74100  0.03050  0.82700  1.0000
  O   O28       1.0  0.75900  0.53100  0.82700  1.0000
  O   O29       1.0  0.58100  0.18300  0.92600  1.0000
  O   O30       1.0  0.91900  0.68300  0.92600  1.0000
  O   O31       1.0  0.92300  0.45400  0.93600  1.0000
  O   O32       1.0  0.57700  0.95400  0.93600  1.0000
  Pr  Pr1       1.0  0.65900  0.36400  0.02050  1.0000
  Pr  Pr2       1.0  0.84100  0.86400  0.02050  1.0000
  Pr  Pr3       1.0  0.34100  0.36400  0.48000  1.0000
  Pr  Pr4       1.0  0.15900  0.86400  0.48000  1.0000
  Pr  Pr5       1.0  0.84100  0.13600  0.52000  1.0000
  Pr  Pr6       1.0  0.65900  0.63600  0.52000  1.0000
  Pr  Pr7       1.0  0.15900  0.13600  0.98000  1.0000
  Pr  Pr8       1.0  0.34100  0.63600  0.98000  1.0000
  Ti  Ti1       1.0  0.66400  0.07760  0.12600  1.0000
  Ti  Ti2       1.0  0.83600  0.57800  0.12600  1.0000
  Ti  Ti3       1.0  0.00000  0.41100  0.25000  1.0000
  Ti  Ti4       1.0  0.50000  0.91100  0.25000  1.0000
  Ti  Ti5       1.0  0.33600  0.07760  0.37400  1.0000
  Ti  Ti6       1.0  0.16400  0.57800  0.37400  1.0000
  Ti  Ti7       1.0  0.83600  0.42200  0.62600  1.0000
  Ti  Ti8       1.0  0.66400  0.92200  0.62600  1.0000
  Ti  Ti9       1.0  0.50000  0.08930  0.75000  1.0000
  Ti  Ti10      1.0  0.00000  0.58900  0.75000  1.0000
  Ti  Ti11      1.0  0.16400  0.42200  0.87400  1.0000
  Ti  Ti12      1.0  0.33600  0.92200  0.87400  1.0000
