data_image0
_chemical_formula_structural       Au8La16O36
_chemical_formula_sum              "Au8 La16 O36"
_cell_length_a       12.1028
_cell_length_b       6.28952
_cell_length_c       12.0926
_cell_angle_alpha    90
_cell_angle_beta     90
_cell_angle_gamma    90

_space_group_name_H-M_alt    "P 1"
_space_group_IT_number       1

loop_
  _space_group_symop_operation_xyz
  'x, y, z'

loop_
  _atom_site_type_symbol
  _atom_site_label
  _atom_site_symmetry_multiplicity
  _atom_site_fract_x
  _atom_site_fract_y
  _atom_site_fract_z
  _atom_site_occupancy
  Au  Au1       1.0  0.22900  0.07850  0.01120  1.0000
  Au  Au2       1.0  0.27100  0.57800  0.01120  1.0000
  Au  Au3       1.0  0.77100  0.07850  0.48900  1.0000
  Au  Au4       1.0  0.72900  0.57800  0.48900  1.0000
  Au  Au5       1.0  0.27100  0.42200  0.51100  1.0000
  Au  Au6       1.0  0.22900  0.92200  0.51100  1.0000
  Au  Au7       1.0  0.72900  0.42200  0.98900  1.0000
  Au  Au8       1.0  0.77100  0.92200  0.98900  1.0000
  La  La1       1.0  0.48900  0.24300  0.08970  1.0000
  La  La2       1.0  0.01120  0.74300  0.08970  1.0000
  La  La3       1.0  0.84100  0.30000  0.23600  1.0000
  La  La4       1.0  0.65900  0.80000  0.23600  1.0000
  La  La5       1.0  0.15900  0.30000  0.26400  1.0000
  La  La6       1.0  0.34100  0.80000  0.26400  1.0000
  La  La7       1.0  0.51100  0.24300  0.41000  1.0000
  La  La8       1.0  0.98900  0.74300  0.41000  1.0000
  La  La9       1.0  0.01120  0.25700  0.59000  1.0000
  La  La10      1.0  0.48900  0.75700  0.59000  1.0000
  La  La11      1.0  0.65900  0.20000  0.73600  1.0000
  La  La12      1.0  0.84100  0.70000  0.73600  1.0000
  La  La13      1.0  0.34100  0.20000  0.76400  1.0000
  La  La14      1.0  0.15900  0.70000  0.76400  1.0000
  La  La15      1.0  0.98900  0.25700  0.91000  1.0000
  La  La16      1.0  0.51100  0.75700  0.91000  1.0000
  O   O1        1.0  0.88400  0.44400  0.05320  1.0000
  O   O2        1.0  0.61600  0.94400  0.05320  1.0000
  O   O3        1.0  0.07800  0.11100  0.08780  1.0000
  O   O4        1.0  0.42200  0.61100  0.08780  1.0000
  O   O5        1.0  0.66300  0.44300  0.14600  1.0000
  O   O6        1.0  0.83700  0.94300  0.14600  1.0000
  O   O7        1.0  0.30200  0.12200  0.15800  1.0000
  O   O8        1.0  0.19800  0.62200  0.15800  1.0000
  O   O9        1.0  0.50000  0.02310  0.25000  1.0000
  O   O10       1.0  0.00000  0.52300  0.25000  1.0000
  O   O11       1.0  0.69800  0.12200  0.34200  1.0000
  O   O12       1.0  0.80200  0.62200  0.34200  1.0000
  O   O13       1.0  0.33700  0.44300  0.35400  1.0000
  O   O14       1.0  0.16300  0.94300  0.35400  1.0000
  O   O15       1.0  0.92200  0.11100  0.41200  1.0000
  O   O16       1.0  0.57800  0.61100  0.41200  1.0000
  O   O17       1.0  0.11600  0.44400  0.44700  1.0000
  O   O18       1.0  0.38400  0.94400  0.44700  1.0000
  O   O19       1.0  0.61600  0.05570  0.55300  1.0000
  O   O20       1.0  0.88400  0.55600  0.55300  1.0000
  O   O21       1.0  0.42200  0.38900  0.58800  1.0000
  O   O22       1.0  0.07800  0.88900  0.58800  1.0000
  O   O23       1.0  0.83700  0.05730  0.64600  1.0000
  O   O24       1.0  0.66300  0.55700  0.64600  1.0000
  O   O25       1.0  0.19800  0.37800  0.65800  1.0000
  O   O26       1.0  0.30200  0.87800  0.65800  1.0000
  O   O27       1.0  0.00000  0.47700  0.75000  1.0000
  O   O28       1.0  0.50000  0.97700  0.75000  1.0000
  O   O29       1.0  0.80200  0.37800  0.84200  1.0000
  O   O30       1.0  0.69800  0.87800  0.84200  1.0000
  O   O31       1.0  0.16300  0.05730  0.85400  1.0000
  O   O32       1.0  0.33700  0.55700  0.85400  1.0000
  O   O33       1.0  0.57800  0.38900  0.91200  1.0000
  O   O34       1.0  0.92200  0.88900  0.91200  1.0000
  O   O35       1.0  0.38400  0.05570  0.94700  1.0000
  O   O36       1.0  0.11600  0.55600  0.94700  1.0000
