data_image0
_chemical_formula_structural       Cu8I8P32Se12
_chemical_formula_sum              "Cu8 I8 P32 Se12"
_cell_length_a       9.27211
_cell_length_b       12.5743
_cell_length_c       13.9215
_cell_angle_alpha    90
_cell_angle_beta     90
_cell_angle_gamma    90

_space_group_name_H-M_alt    "P 1"
_space_group_IT_number       1

loop_
  _space_group_symop_operation_xyz
  'x, y, z'

loop_
  _atom_site_type_symbol
  _atom_site_label
  _atom_site_symmetry_multiplicity
  _atom_site_fract_x
  _atom_site_fract_y
  _atom_site_fract_z
  _atom_site_occupancy
  Cu  Cu1       1.0  0.80800  0.07980  0.25000  1.0000
  Cu  Cu2       1.0  0.99900  0.37400  0.25000  1.0000
  Cu  Cu3       1.0  0.19200  0.58000  0.25000  1.0000
  Cu  Cu4       1.0  0.00098  0.87400  0.25000  1.0000
  Cu  Cu5       1.0  0.99900  0.12600  0.75000  1.0000
  Cu  Cu6       1.0  0.80800  0.42000  0.75000  1.0000
  Cu  Cu7       1.0  0.00098  0.62600  0.75000  1.0000
  Cu  Cu8       1.0  0.19200  0.92000  0.75000  1.0000
  I   I1        1.0  0.09750  0.07350  0.25000  1.0000
  I   I2        1.0  0.28300  0.38400  0.25000  1.0000
  I   I3        1.0  0.90300  0.57300  0.25000  1.0000
  I   I4        1.0  0.71700  0.88400  0.25000  1.0000
  I   I5        1.0  0.28300  0.11600  0.75000  1.0000
  I   I6        1.0  0.09750  0.42700  0.75000  1.0000
  I   I7        1.0  0.71700  0.61600  0.75000  1.0000
  I   I8        1.0  0.90300  0.92700  0.75000  1.0000
  P   P1        1.0  0.81700  0.42800  0.02000  1.0000
  P   P2        1.0  0.18300  0.92800  0.02000  1.0000
  P   P3        1.0  0.55300  0.24400  0.07920  1.0000
  P   P4        1.0  0.44700  0.74400  0.07920  1.0000
  P   P5        1.0  0.92500  0.30500  0.10800  1.0000
  P   P6        1.0  0.07530  0.80500  0.10800  1.0000
  P   P7        1.0  0.76600  0.16700  0.11200  1.0000
  P   P8        1.0  0.23400  0.66700  0.11200  1.0000
  P   P9        1.0  0.76600  0.16700  0.38800  1.0000
  P   P10       1.0  0.23400  0.66700  0.38800  1.0000
  P   P11       1.0  0.92500  0.30500  0.39200  1.0000
  P   P12       1.0  0.07530  0.80500  0.39200  1.0000
  P   P13       1.0  0.55300  0.24400  0.42100  1.0000
  P   P14       1.0  0.44700  0.74400  0.42100  1.0000
  P   P15       1.0  0.81700  0.42800  0.48000  1.0000
  P   P16       1.0  0.18300  0.92800  0.48000  1.0000
  P   P17       1.0  0.81700  0.07170  0.52000  1.0000
  P   P18       1.0  0.18300  0.57200  0.52000  1.0000
  P   P19       1.0  0.55300  0.25600  0.57900  1.0000
  P   P20       1.0  0.44700  0.75600  0.57900  1.0000
  P   P21       1.0  0.92500  0.19500  0.60800  1.0000
  P   P22       1.0  0.07530  0.69500  0.60800  1.0000
  P   P23       1.0  0.76600  0.33300  0.61200  1.0000
  P   P24       1.0  0.23400  0.83300  0.61200  1.0000
  P   P25       1.0  0.76600  0.33300  0.88800  1.0000
  P   P26       1.0  0.23400  0.83300  0.88800  1.0000
  P   P27       1.0  0.92500  0.19500  0.89200  1.0000
  P   P28       1.0  0.07530  0.69500  0.89200  1.0000
  P   P29       1.0  0.55300  0.25600  0.92100  1.0000
  P   P30       1.0  0.44700  0.75600  0.92100  1.0000
  P   P31       1.0  0.81700  0.07170  0.98000  1.0000
  P   P32       1.0  0.18300  0.57200  0.98000  1.0000
  Se  Se1       1.0  0.09400  0.25000  0.00000  1.0000
  Se  Se2       1.0  0.90600  0.75000  0.00000  1.0000
  Se  Se3       1.0  0.60500  0.41900  0.10600  1.0000
  Se  Se4       1.0  0.39500  0.91900  0.10600  1.0000
  Se  Se5       1.0  0.60500  0.41900  0.39400  1.0000
  Se  Se6       1.0  0.39500  0.91900  0.39400  1.0000
  Se  Se7       1.0  0.09400  0.25000  0.50000  1.0000
  Se  Se8       1.0  0.90600  0.75000  0.50000  1.0000
  Se  Se9       1.0  0.60500  0.08090  0.60600  1.0000
  Se  Se10      1.0  0.39500  0.58100  0.60600  1.0000
  Se  Se11      1.0  0.60500  0.08090  0.89400  1.0000
  Se  Se12      1.0  0.39500  0.58100  0.89400  1.0000
