data_image0
_chemical_formula_structural       Fe8La16O16Se16
_chemical_formula_sum              "Fe8 La16 O16 Se16"
_cell_length_a       17.4848
_cell_length_b       16.411
_cell_length_c       4.00199
_cell_angle_alpha    90
_cell_angle_beta     90
_cell_angle_gamma    90

_space_group_name_H-M_alt    "P 1"
_space_group_IT_number       1

loop_
  _space_group_symop_operation_xyz
  'x, y, z'

loop_
  _atom_site_type_symbol
  _atom_site_label
  _atom_site_symmetry_multiplicity
  _atom_site_fract_x
  _atom_site_fract_y
  _atom_site_fract_z
  _atom_site_occupancy
  Fe  Fe1       1.0  0.27700  0.16200  0.49700  1.0000
  Fe  Fe2       1.0  0.77700  0.33800  0.49700  1.0000
  Fe  Fe3       1.0  0.74800  0.11600  0.49700  1.0000
  Fe  Fe4       1.0  0.24800  0.38400  0.49700  1.0000
  Fe  Fe5       1.0  0.22300  0.66200  0.99700  1.0000
  Fe  Fe6       1.0  0.72300  0.83800  0.99700  1.0000
  Fe  Fe7       1.0  0.75200  0.61600  0.99700  1.0000
  Fe  Fe8       1.0  0.25200  0.88400  0.99700  1.0000
  La  La1       1.0  0.09100  0.51800  0.49200  1.0000
  La  La2       1.0  0.59100  0.98200  0.49200  1.0000
  La  La3       1.0  0.91600  0.67800  0.49300  1.0000
  La  La4       1.0  0.41600  0.82200  0.49300  1.0000
  La  La5       1.0  0.40900  0.52400  0.49700  1.0000
  La  La6       1.0  0.90900  0.97600  0.49700  1.0000
  La  La7       1.0  0.58800  0.67200  0.49800  1.0000
  La  La8       1.0  0.08810  0.82800  0.49800  1.0000
  La  La9       1.0  0.40900  0.01790  0.99200  1.0000
  La  La10      1.0  0.90900  0.48200  0.99200  1.0000
  La  La11      1.0  0.58400  0.17800  0.99300  1.0000
  La  La12      1.0  0.08390  0.32200  0.99300  1.0000
  La  La13      1.0  0.09080  0.02400  0.99700  1.0000
  La  La14      1.0  0.59100  0.47600  0.99700  1.0000
  La  La15      1.0  0.91200  0.17200  0.99800  1.0000
  La  La16      1.0  0.41200  0.32800  0.99800  1.0000
  O   O1        1.0  0.95600  0.54200  0.49200  1.0000
  O   O2        1.0  0.45600  0.95800  0.49200  1.0000
  O   O3        1.0  0.63700  0.12200  0.49300  1.0000
  O   O4        1.0  0.13700  0.37800  0.49300  1.0000
  O   O5        1.0  0.85900  0.11700  0.49700  1.0000
  O   O6        1.0  0.35900  0.38300  0.49700  1.0000
  O   O7        1.0  0.54700  0.53800  0.49700  1.0000
  O   O8        1.0  0.04670  0.96200  0.49700  1.0000
  O   O9        1.0  0.54400  0.04210  0.99200  1.0000
  O   O10       1.0  0.04400  0.45800  0.99200  1.0000
  O   O11       1.0  0.86300  0.62200  0.99300  1.0000
  O   O12       1.0  0.36300  0.87800  0.99300  1.0000
  O   O13       1.0  0.64100  0.61700  0.99700  1.0000
  O   O14       1.0  0.14100  0.88300  0.99700  1.0000
  O   O15       1.0  0.95300  0.03790  0.99700  1.0000
  O   O16       1.0  0.45300  0.46200  0.99700  1.0000
  Se  Se1       1.0  0.25100  0.01200  0.49000  1.0000
  Se  Se2       1.0  0.75100  0.48800  0.49000  1.0000
  Se  Se3       1.0  0.42500  0.17000  0.49500  1.0000
  Se  Se4       1.0  0.92500  0.33000  0.49500  1.0000
  Se  Se5       1.0  0.75300  0.74700  0.49500  1.0000
  Se  Se6       1.0  0.25300  0.75300  0.49500  1.0000
  Se  Se7       1.0  0.06180  0.17300  0.49600  1.0000
  Se  Se8       1.0  0.56200  0.32700  0.49600  1.0000
  Se  Se9       1.0  0.24900  0.51200  0.99000  1.0000
  Se  Se10      1.0  0.74900  0.98800  0.99000  1.0000
  Se  Se11      1.0  0.07500  0.67000  0.99500  1.0000
  Se  Se12      1.0  0.57500  0.83000  0.99500  1.0000
  Se  Se13      1.0  0.74700  0.24700  0.99500  1.0000
  Se  Se14      1.0  0.24700  0.25300  0.99500  1.0000
  Se  Se15      1.0  0.43800  0.67300  0.99600  1.0000
  Se  Se16      1.0  0.93800  0.82700  0.99600  1.0000
