data_image0
_chemical_formula_structural       Se4Si2
_chemical_formula_sum              "Se4 Si2"
_cell_length_a       5.92203
_cell_length_b       6.23756
_cell_length_c       6.68575
_cell_angle_alpha    117.806
_cell_angle_beta     116.288
_cell_angle_gamma    90

_space_group_name_H-M_alt    "P 1"
_space_group_IT_number       1

loop_
  _space_group_symop_operation_xyz
  'x, y, z'

loop_
  _atom_site_type_symbol
  _atom_site_label
  _atom_site_symmetry_multiplicity
  _atom_site_fract_x
  _atom_site_fract_y
  _atom_site_fract_z
  _atom_site_occupancy
  Se  Se1       1.0  0.61900  0.32400  0.23800  1.0000
  Se  Se2       1.0  0.11900  0.91500  0.23800  1.0000
  Se  Se3       1.0  0.88100  0.08530  0.76200  1.0000
  Se  Se4       1.0  0.38100  0.67600  0.76200  1.0000
  Si  Si1       1.0  0.25000  0.00000  0.00000  1.0000
  Si  Si2       1.0  0.75000  0.00000  0.00000  1.0000
