data_image0
_chemical_formula_structural       Ba8F40Fe8
_chemical_formula_sum              "Ba8 F40 Fe8"
_cell_length_a       9.35815
_cell_length_b       7.68416
_cell_length_c       11.0204
_cell_angle_alpha    90
_cell_angle_beta     92.8635
_cell_angle_gamma    90

_space_group_name_H-M_alt    "P 1"
_space_group_IT_number       1

loop_
  _space_group_symop_operation_xyz
  'x, y, z'

loop_
  _atom_site_type_symbol
  _atom_site_label
  _atom_site_symmetry_multiplicity
  _atom_site_fract_x
  _atom_site_fract_y
  _atom_site_fract_z
  _atom_site_occupancy
  Ba  Ba1       1.0  0.26300  0.21500  0.05080  1.0000
  Ba  Ba2       1.0  0.80700  0.28700  0.14800  1.0000
  Ba  Ba3       1.0  0.69300  0.78700  0.35200  1.0000
  Ba  Ba4       1.0  0.23700  0.71500  0.44900  1.0000
  Ba  Ba5       1.0  0.76300  0.28500  0.55100  1.0000
  Ba  Ba6       1.0  0.30700  0.21300  0.64800  1.0000
  Ba  Ba7       1.0  0.19300  0.71300  0.85200  1.0000
  Ba  Ba8       1.0  0.73700  0.78500  0.94900  1.0000
  F   F1        1.0  0.01970  0.81800  0.01180  1.0000
  F   F2        1.0  0.32000  0.54300  0.03770  1.0000
  F   F3        1.0  0.33900  0.89200  0.03880  1.0000
  F   F4        1.0  0.57900  0.70100  0.13200  1.0000
  F   F5        1.0  0.52400  0.27800  0.14700  1.0000
  F   F6        1.0  0.86800  0.61600  0.15200  1.0000
  F   F7        1.0  0.81800  0.94700  0.16500  1.0000
  F   F8        1.0  0.17900  0.69400  0.20700  1.0000
  F   F9        1.0  0.08620  0.36500  0.21000  1.0000
  F   F10       1.0  0.09740  0.02960  0.21100  1.0000
  F   F11       1.0  0.40300  0.53000  0.28900  1.0000
  F   F12       1.0  0.41400  0.86500  0.29000  1.0000
  F   F13       1.0  0.32100  0.19400  0.29300  1.0000
  F   F14       1.0  0.68200  0.44700  0.33500  1.0000
  F   F15       1.0  0.63200  0.11600  0.34800  1.0000
  F   F16       1.0  0.97600  0.77800  0.35300  1.0000
  F   F17       1.0  0.92100  0.20100  0.36800  1.0000
  F   F18       1.0  0.16100  0.39200  0.46100  1.0000
  F   F19       1.0  0.18000  0.04290  0.46200  1.0000
  F   F20       1.0  0.48000  0.31800  0.48800  1.0000
  F   F21       1.0  0.52000  0.68200  0.51200  1.0000
  F   F22       1.0  0.82000  0.95700  0.53800  1.0000
  F   F23       1.0  0.83900  0.60800  0.53900  1.0000
  F   F24       1.0  0.07940  0.79900  0.63200  1.0000
  F   F25       1.0  0.02400  0.22200  0.64700  1.0000
  F   F26       1.0  0.36800  0.88400  0.65200  1.0000
  F   F27       1.0  0.31800  0.55300  0.66500  1.0000
  F   F28       1.0  0.67900  0.80600  0.70700  1.0000
  F   F29       1.0  0.58600  0.13500  0.71000  1.0000
  F   F30       1.0  0.59700  0.47000  0.71100  1.0000
  F   F31       1.0  0.90300  0.97000  0.78900  1.0000
  F   F32       1.0  0.91400  0.63500  0.79000  1.0000
  F   F33       1.0  0.82100  0.30600  0.79300  1.0000
  F   F34       1.0  0.18200  0.05340  0.83500  1.0000
  F   F35       1.0  0.13200  0.38400  0.84800  1.0000
  F   F36       1.0  0.47600  0.72200  0.85300  1.0000
  F   F37       1.0  0.42100  0.29900  0.86800  1.0000
  F   F38       1.0  0.66100  0.10800  0.96100  1.0000
  F   F39       1.0  0.68000  0.45700  0.96200  1.0000
  F   F40       1.0  0.98000  0.18200  0.98800  1.0000
  Fe  Fe1       1.0  0.38200  0.71400  0.15300  1.0000
  Fe  Fe2       1.0  0.99600  0.80900  0.18300  1.0000
  Fe  Fe3       1.0  0.50400  0.30900  0.31700  1.0000
  Fe  Fe4       1.0  0.11800  0.21400  0.34700  1.0000
  Fe  Fe5       1.0  0.88200  0.78600  0.65300  1.0000
  Fe  Fe6       1.0  0.49600  0.69100  0.68300  1.0000
  Fe  Fe7       1.0  0.00392  0.19100  0.81700  1.0000
  Fe  Fe8       1.0  0.61800  0.28600  0.84700  1.0000
