data_image0
_chemical_formula_structural       C12Cl12N12O4P4S12Sb4
_chemical_formula_sum              "C12 Cl12 N12 O4 P4 S12 Sb4"
_cell_length_a       12.0134
_cell_length_b       12.0134
_cell_length_c       12.0134
_cell_angle_alpha    109.471
_cell_angle_beta     109.471
_cell_angle_gamma    109.471

_space_group_name_H-M_alt    "P 1"
_space_group_IT_number       1

loop_
  _space_group_symop_operation_xyz
  'x, y, z'

loop_
  _atom_site_type_symbol
  _atom_site_label
  _atom_site_symmetry_multiplicity
  _atom_site_fract_x
  _atom_site_fract_y
  _atom_site_fract_z
  _atom_site_occupancy
  C   C1        1.0  0.77200  0.48400  0.00000  1.0000
  C   C2        1.0  0.48400  0.77200  0.00000  1.0000
  C   C3        1.0  0.71100  0.22800  0.22800  1.0000
  C   C4        1.0  0.22800  0.71100  0.22800  1.0000
  C   C5        1.0  0.51600  0.51600  0.28900  1.0000
  C   C6        1.0  0.77200  0.00000  0.48400  1.0000
  C   C7        1.0  0.00000  0.77200  0.48400  1.0000
  C   C8        1.0  0.51600  0.28900  0.51600  1.0000
  C   C9        1.0  0.28900  0.51600  0.51600  1.0000
  C   C10       1.0  0.22800  0.22800  0.71100  1.0000
  C   C11       1.0  0.48400  0.00000  0.77200  1.0000
  C   C12       1.0  0.00000  0.48400  0.77200  1.0000
  Cl  Cl1       1.0  0.37500  0.17800  0.00000  1.0000
  Cl  Cl2       1.0  0.17800  0.37500  0.00000  1.0000
  Cl  Cl3       1.0  0.37500  0.00000  0.17800  1.0000
  Cl  Cl4       1.0  0.00000  0.37500  0.17800  1.0000
  Cl  Cl5       1.0  0.82200  0.82200  0.19700  1.0000
  Cl  Cl6       1.0  0.17800  0.00000  0.37500  1.0000
  Cl  Cl7       1.0  0.00000  0.17800  0.37500  1.0000
  Cl  Cl8       1.0  0.80300  0.62500  0.62500  1.0000
  Cl  Cl9       1.0  0.62500  0.80300  0.62500  1.0000
  Cl  Cl10      1.0  0.62500  0.62500  0.80300  1.0000
  Cl  Cl11      1.0  0.82200  0.19700  0.82200  1.0000
  Cl  Cl12      1.0  0.19700  0.82200  0.82200  1.0000
  N   N1        1.0  0.86900  0.55800  0.00000  1.0000
  N   N2        1.0  0.55800  0.86900  0.00000  1.0000
  N   N3        1.0  0.68900  0.13100  0.13100  1.0000
  N   N4        1.0  0.13100  0.68900  0.13100  1.0000
  N   N5        1.0  0.44200  0.44200  0.31100  1.0000
  N   N6        1.0  0.44200  0.31100  0.44200  1.0000
  N   N7        1.0  0.31100  0.44200  0.44200  1.0000
  N   N8        1.0  0.86900  0.00000  0.55800  1.0000
  N   N9        1.0  0.00000  0.86900  0.55800  1.0000
  N   N10       1.0  0.13100  0.13100  0.68900  1.0000
  N   N11       1.0  0.55800  0.00000  0.86900  1.0000
  N   N12       1.0  0.00000  0.55800  0.86900  1.0000
  O   O1        1.0  0.77900  0.00000  0.00000  1.0000
  O   O2        1.0  0.00000  0.77900  0.00000  1.0000
  O   O3        1.0  0.22100  0.22100  0.22100  1.0000
  O   O4        1.0  0.00000  0.00000  0.77900  1.0000
  P   P1        1.0  0.65500  0.00000  0.00000  1.0000
  P   P2        1.0  0.00000  0.65500  0.00000  1.0000
  P   P3        1.0  0.34500  0.34500  0.34500  1.0000
  P   P4        1.0  0.00000  0.00000  0.65500  1.0000
  S   S1        1.0  0.64800  0.38900  0.00000  1.0000
  S   S2        1.0  0.38900  0.64800  0.00000  1.0000
  S   S3        1.0  0.61100  0.61100  0.25900  1.0000
  S   S4        1.0  0.74100  0.35200  0.35200  1.0000
  S   S5        1.0  0.35200  0.74100  0.35200  1.0000
  S   S6        1.0  0.64800  0.00000  0.38900  1.0000
  S   S7        1.0  0.00000  0.64800  0.38900  1.0000
  S   S8        1.0  0.61100  0.25900  0.61100  1.0000
  S   S9        1.0  0.25900  0.61100  0.61100  1.0000
  S   S10       1.0  0.38900  0.00000  0.64800  1.0000
  S   S11       1.0  0.00000  0.38900  0.64800  1.0000
  S   S12       1.0  0.35200  0.35200  0.74100  1.0000
  Sb  Sb1       1.0  0.20900  0.00000  0.00000  1.0000
  Sb  Sb2       1.0  0.00000  0.20900  0.00000  1.0000
  Sb  Sb3       1.0  0.00000  0.00000  0.20900  1.0000
  Sb  Sb4       1.0  0.79100  0.79100  0.79100  1.0000
