data_image0
_chemical_formula_structural       C8Cl12Cu4H32N4
_chemical_formula_sum              "C8 Cl12 Cu4 H32 N4"
_cell_length_a       8.57662
_cell_length_b       9.70963
_cell_length_c       10.7831
_cell_angle_alpha    91.3543
_cell_angle_beta     113.434
_cell_angle_gamma    63.7904

_space_group_name_H-M_alt    "P 1"
_space_group_IT_number       1

loop_
  _space_group_symop_operation_xyz
  'x, y, z'

loop_
  _atom_site_type_symbol
  _atom_site_label
  _atom_site_symmetry_multiplicity
  _atom_site_fract_x
  _atom_site_fract_y
  _atom_site_fract_z
  _atom_site_occupancy
  C   C1        1.0  0.46100  0.51400  0.16600  1.0000
  C   C2        1.0  0.36500  0.33100  0.23400  1.0000
  C   C3        1.0  0.96200  0.16900  0.26600  1.0000
  C   C4        1.0  0.30900  0.98600  0.33400  1.0000
  C   C5        1.0  0.69100  0.01390  0.66600  1.0000
  C   C6        1.0  0.03840  0.83100  0.73400  1.0000
  C   C7        1.0  0.63500  0.66900  0.76600  1.0000
  C   C8        1.0  0.53900  0.48600  0.83400  1.0000
  Cl  Cl1       1.0  0.42800  0.88800  0.02020  1.0000
  Cl  Cl2       1.0  0.98900  0.82200  0.04090  1.0000
  Cl  Cl3       1.0  0.86700  0.59000  0.15900  1.0000
  Cl  Cl4       1.0  0.79800  0.91000  0.34100  1.0000
  Cl  Cl5       1.0  0.27000  0.67800  0.45900  1.0000
  Cl  Cl6       1.0  0.79500  0.61200  0.48000  1.0000
  Cl  Cl7       1.0  0.20500  0.38800  0.52000  1.0000
  Cl  Cl8       1.0  0.73000  0.32200  0.54100  1.0000
  Cl  Cl9       1.0  0.20200  0.08990  0.65900  1.0000
  Cl  Cl10      1.0  0.13300  0.41000  0.84100  1.0000
  Cl  Cl11      1.0  0.01120  0.17800  0.95900  1.0000
  Cl  Cl12      1.0  0.57200  0.11200  0.98000  1.0000
  Cu  Cu1       1.0  0.73800  0.84800  0.08050  1.0000
  Cu  Cu2       1.0  0.00509  0.65200  0.42000  1.0000
  Cu  Cu3       1.0  0.99500  0.34800  0.58000  1.0000
  Cu  Cu4       1.0  0.26200  0.15200  0.92000  1.0000
  H   H1        1.0  0.42900  0.48000  0.06490  1.0000
  H   H2        1.0  0.30500  0.30700  0.13100  1.0000
  H   H3        1.0  0.42900  0.63700  0.15700  1.0000
  H   H4        1.0  0.19400  0.57100  0.15800  1.0000
  H   H5        1.0  0.07370  0.97200  0.18300  1.0000
  H   H6        1.0  0.81900  0.17700  0.20800  1.0000
  H   H7        1.0  0.97900  0.25100  0.21100  1.0000
  H   H8        1.0  0.61200  0.44100  0.23700  1.0000
  H   H9        1.0  0.31500  0.05950  0.26300  1.0000
  H   H10       1.0  0.51900  0.24900  0.28900  1.0000
  H   H11       1.0  0.28800  0.32300  0.29200  1.0000
  H   H12       1.0  0.36300  0.52800  0.31700  1.0000
  H   H13       1.0  0.10700  0.92900  0.34200  1.0000
  H   H14       1.0  0.40800  0.86300  0.34300  1.0000
  H   H15       1.0  0.98200  0.19300  0.36900  1.0000
  H   H16       1.0  0.34400  0.01950  0.43500  1.0000
  H   H17       1.0  0.65600  0.98000  0.56500  1.0000
  H   H18       1.0  0.01820  0.80700  0.63100  1.0000
  H   H19       1.0  0.59200  0.13700  0.65700  1.0000
  H   H20       1.0  0.89300  0.07090  0.65800  1.0000
  H   H21       1.0  0.63700  0.47200  0.68300  1.0000
  H   H22       1.0  0.71200  0.67700  0.70800  1.0000
  H   H23       1.0  0.48100  0.75100  0.71100  1.0000
  H   H24       1.0  0.68500  0.94100  0.73700  1.0000
  H   H25       1.0  0.38800  0.55900  0.76300  1.0000
  H   H26       1.0  0.02100  0.74900  0.78900  1.0000
  H   H27       1.0  0.18100  0.82300  0.79200  1.0000
  H   H28       1.0  0.92600  0.02760  0.81700  1.0000
  H   H29       1.0  0.80600  0.42900  0.84200  1.0000
  H   H30       1.0  0.57100  0.36300  0.84300  1.0000
  H   H31       1.0  0.69500  0.69300  0.86900  1.0000
  H   H32       1.0  0.57100  0.52000  0.93500  1.0000
  N   N1        1.0  0.33800  0.49300  0.22100  1.0000
  N   N2        1.0  0.11000  0.00740  0.27900  1.0000
  N   N3        1.0  0.89000  0.99300  0.72100  1.0000
  N   N4        1.0  0.66200  0.50700  0.77900  1.0000
