data_image0
_chemical_formula_structural       Cs4H8O32P8Sc4
_chemical_formula_sum              "Cs4 H8 O32 P8 Sc4"
_cell_length_a       5.30814
_cell_length_b       9.05102
_cell_length_c       14.5417
_cell_angle_alpha    90.0014
_cell_angle_beta     94.9182
_cell_angle_gamma    89.9986

_space_group_name_H-M_alt    "P 1"
_space_group_IT_number       1

loop_
  _space_group_symop_operation_xyz
  'x, y, z'

loop_
  _atom_site_type_symbol
  _atom_site_label
  _atom_site_symmetry_multiplicity
  _atom_site_fract_x
  _atom_site_fract_y
  _atom_site_fract_z
  _atom_site_occupancy
  Cs  Cs1       1.0  0.26600  0.50200  0.10600  1.0000
  Cs  Cs2       1.0  0.73400  0.00157  0.39400  1.0000
  Cs  Cs3       1.0  0.26600  0.99800  0.60600  1.0000
  Cs  Cs4       1.0  0.73400  0.49800  0.89400  1.0000
  H   H1        1.0  0.73900  0.20600  0.03960  1.0000
  H   H2        1.0  0.83800  0.69300  0.17500  1.0000
  H   H3        1.0  0.16300  0.19300  0.32500  1.0000
  H   H4        1.0  0.26100  0.70600  0.46000  1.0000
  H   H5        1.0  0.73900  0.29400  0.54000  1.0000
  H   H6        1.0  0.83800  0.80700  0.67500  1.0000
  H   H7        1.0  0.16300  0.30700  0.82500  1.0000
  H   H8        1.0  0.26100  0.79400  0.96000  1.0000
  O   O1        1.0  0.25500  0.18200  0.04110  1.0000
  O   O2        1.0  0.43500  0.87600  0.07600  1.0000
  O   O3        1.0  0.76200  0.29300  0.08090  1.0000
  O   O4        1.0  0.89600  0.95700  0.10500  1.0000
  O   O5        1.0  0.78000  0.68500  0.10700  1.0000
  O   O6        1.0  0.57100  0.14600  0.21000  1.0000
  O   O7        1.0  0.04240  0.19900  0.22000  1.0000
  O   O8        1.0  0.73400  0.40800  0.23100  1.0000
  O   O9        1.0  0.26600  0.90900  0.26900  1.0000
  O   O10       1.0  0.95800  0.69900  0.28000  1.0000
  O   O11       1.0  0.42900  0.64600  0.29000  1.0000
  O   O12       1.0  0.22000  0.18500  0.39300  1.0000
  O   O13       1.0  0.10400  0.45700  0.39500  1.0000
  O   O14       1.0  0.23800  0.79300  0.41900  1.0000
  O   O15       1.0  0.56500  0.37600  0.42400  1.0000
  O   O16       1.0  0.74500  0.68200  0.45900  1.0000
  O   O17       1.0  0.25500  0.31800  0.54100  1.0000
  O   O18       1.0  0.43500  0.62400  0.57600  1.0000
  O   O19       1.0  0.76200  0.20700  0.58100  1.0000
  O   O20       1.0  0.89600  0.54300  0.60500  1.0000
  O   O21       1.0  0.78000  0.81600  0.60700  1.0000
  O   O22       1.0  0.57100  0.35400  0.71000  1.0000
  O   O23       1.0  0.04240  0.30100  0.72000  1.0000
  O   O24       1.0  0.73400  0.09150  0.73100  1.0000
  O   O25       1.0  0.26600  0.59100  0.76900  1.0000
  O   O26       1.0  0.95800  0.80100  0.78000  1.0000
  O   O27       1.0  0.42900  0.85400  0.79000  1.0000
  O   O28       1.0  0.22000  0.31500  0.89300  1.0000
  O   O29       1.0  0.10400  0.04310  0.89500  1.0000
  O   O30       1.0  0.23800  0.70700  0.91900  1.0000
  O   O31       1.0  0.56500  0.12400  0.92400  1.0000
  O   O32       1.0  0.74500  0.81800  0.95900  1.0000
  P   P1        1.0  0.71400  0.84200  0.06110  1.0000
  P   P2        1.0  0.77500  0.25700  0.18900  1.0000
  P   P3        1.0  0.22500  0.75700  0.31100  1.0000
  P   P4        1.0  0.28600  0.34200  0.43900  1.0000
  P   P5        1.0  0.71400  0.65800  0.56100  1.0000
  P   P6        1.0  0.77500  0.24300  0.68900  1.0000
  P   P7        1.0  0.22500  0.74300  0.81100  1.0000
  P   P8        1.0  0.28600  0.15800  0.93900  1.0000
  Sc  Sc1       1.0  0.25000  0.03560  0.15100  1.0000
  Sc  Sc2       1.0  0.75000  0.53600  0.34900  1.0000
  Sc  Sc3       1.0  0.25000  0.46400  0.65100  1.0000
  Sc  Sc4       1.0  0.75000  0.96400  0.84900  1.0000
