data_image0
_chemical_formula_structural       Ga4Pr16S36Sb4
_chemical_formula_sum              "Ga4 Pr16 S36 Sb4"
_cell_length_a       10.2205
_cell_length_b       10.2205
_cell_length_c       13.9254
_cell_angle_alpha    90
_cell_angle_beta     90
_cell_angle_gamma    89.2811

_space_group_name_H-M_alt    "P 1"
_space_group_IT_number       1

loop_
  _space_group_symop_operation_xyz
  'x, y, z'

loop_
  _atom_site_type_symbol
  _atom_site_label
  _atom_site_symmetry_multiplicity
  _atom_site_fract_x
  _atom_site_fract_y
  _atom_site_fract_z
  _atom_site_occupancy
  Ga  Ga1       1.0  0.38400  0.17600  0.09340  1.0000
  Ga  Ga2       1.0  0.88400  0.67600  0.40700  1.0000
  Ga  Ga3       1.0  0.67600  0.88400  0.59300  1.0000
  Ga  Ga4       1.0  0.17600  0.38400  0.90700  1.0000
  Pr  Pr1       1.0  0.83300  0.17800  0.10100  1.0000
  Pr  Pr2       1.0  0.45100  0.67600  0.10400  1.0000
  Pr  Pr3       1.0  0.12500  0.45700  0.17900  1.0000
  Pr  Pr4       1.0  0.12800  0.91000  0.18600  1.0000
  Pr  Pr5       1.0  0.62800  0.41000  0.31400  1.0000
  Pr  Pr6       1.0  0.62500  0.95700  0.32100  1.0000
  Pr  Pr7       1.0  0.95100  0.17600  0.39600  1.0000
  Pr  Pr8       1.0  0.33300  0.67800  0.39900  1.0000
  Pr  Pr9       1.0  0.67800  0.33300  0.60100  1.0000
  Pr  Pr10      1.0  0.17600  0.95100  0.60400  1.0000
  Pr  Pr11      1.0  0.95700  0.62500  0.67900  1.0000
  Pr  Pr12      1.0  0.41000  0.62800  0.68600  1.0000
  Pr  Pr13      1.0  0.91000  0.12800  0.81400  1.0000
  Pr  Pr14      1.0  0.45700  0.12500  0.82100  1.0000
  Pr  Pr15      1.0  0.67600  0.45100  0.89600  1.0000
  Pr  Pr16      1.0  0.17800  0.83300  0.89900  1.0000
  S   S1        1.0  0.00182  0.00182  0.00000  1.0000
  S   S2        1.0  0.36700  0.36700  0.00000  1.0000
  S   S3        1.0  0.99200  0.37700  0.00224  1.0000
  S   S4        1.0  0.18000  0.68500  0.06860  1.0000
  S   S5        1.0  0.66900  0.85400  0.07900  1.0000
  S   S6        1.0  0.66600  0.48800  0.10000  1.0000
  S   S7        1.0  0.56900  0.17900  0.19000  1.0000
  S   S8        1.0  0.20900  0.18300  0.20100  1.0000
  S   S9        1.0  0.39000  0.85900  0.24800  1.0000
  S   S10       1.0  0.38100  0.49700  0.25000  1.0000
  S   S11       1.0  0.88100  0.99700  0.25000  1.0000
  S   S12       1.0  0.89000  0.35900  0.25200  1.0000
  S   S13       1.0  0.70900  0.68300  0.29900  1.0000
  S   S14       1.0  0.06940  0.67900  0.31000  1.0000
  S   S15       1.0  0.16600  0.98800  0.40000  1.0000
  S   S16       1.0  0.16900  0.35400  0.42100  1.0000
  S   S17       1.0  0.68000  0.18500  0.43100  1.0000
  S   S18       1.0  0.49200  0.87700  0.49800  1.0000
  S   S19       1.0  0.50200  0.50200  0.50000  1.0000
  S   S20       1.0  0.86700  0.86700  0.50000  1.0000
  S   S21       1.0  0.87700  0.49200  0.50200  1.0000
  S   S22       1.0  0.18500  0.68000  0.56900  1.0000
  S   S23       1.0  0.35400  0.16900  0.57900  1.0000
  S   S24       1.0  0.98800  0.16600  0.60000  1.0000
  S   S25       1.0  0.67900  0.06940  0.69000  1.0000
  S   S26       1.0  0.68300  0.70900  0.70100  1.0000
  S   S27       1.0  0.35900  0.89000  0.74800  1.0000
  S   S28       1.0  0.99700  0.88100  0.75000  1.0000
  S   S29       1.0  0.49700  0.38100  0.75000  1.0000
  S   S30       1.0  0.85900  0.39000  0.75200  1.0000
  S   S31       1.0  0.18300  0.20900  0.79900  1.0000
  S   S32       1.0  0.17900  0.56900  0.81000  1.0000
  S   S33       1.0  0.48800  0.66600  0.90000  1.0000
  S   S34       1.0  0.85400  0.66900  0.92100  1.0000
  S   S35       1.0  0.68500  0.18000  0.93100  1.0000
  S   S36       1.0  0.37700  0.99200  0.99800  1.0000
  Sb  Sb1       1.0  0.82400  0.67100  0.11400  1.0000
  Sb  Sb2       1.0  0.32400  0.17100  0.38600  1.0000
  Sb  Sb3       1.0  0.17100  0.32400  0.61400  1.0000
  Sb  Sb4       1.0  0.67100  0.82400  0.88600  1.0000
