data_image0
_chemical_formula_structural       Fe4Hg4O4Se4
_chemical_formula_sum              "Fe4 Hg4 O4 Se4"
_cell_length_a       6.06454
_cell_length_b       3.84573
_cell_length_c       13.1527
_cell_angle_alpha    90
_cell_angle_beta     90
_cell_angle_gamma    90

_space_group_name_H-M_alt    "P 1"
_space_group_IT_number       1

loop_
  _space_group_symop_operation_xyz
  'x, y, z'

loop_
  _atom_site_type_symbol
  _atom_site_label
  _atom_site_symmetry_multiplicity
  _atom_site_fract_x
  _atom_site_fract_y
  _atom_site_fract_z
  _atom_site_occupancy
  Fe  Fe1       1.0  0.61400  0.25000  0.20700  1.0000
  Fe  Fe2       1.0  0.11400  0.25000  0.29300  1.0000
  Fe  Fe3       1.0  0.88600  0.75000  0.70700  1.0000
  Fe  Fe4       1.0  0.38600  0.75000  0.79300  1.0000
  Hg  Hg1       1.0  0.22800  0.75000  0.06920  1.0000
  Hg  Hg2       1.0  0.72800  0.75000  0.43100  1.0000
  Hg  Hg3       1.0  0.27200  0.25000  0.56900  1.0000
  Hg  Hg4       1.0  0.77200  0.25000  0.93100  1.0000
  O   O1        1.0  0.30200  0.25000  0.17500  1.0000
  O   O2        1.0  0.80200  0.25000  0.32500  1.0000
  O   O3        1.0  0.19800  0.75000  0.67500  1.0000
  O   O4        1.0  0.69800  0.75000  0.82500  1.0000
  Se  Se1       1.0  0.76700  0.75000  0.09180  1.0000
  Se  Se2       1.0  0.26700  0.75000  0.40800  1.0000
  Se  Se3       1.0  0.73300  0.25000  0.59200  1.0000
  Se  Se4       1.0  0.23300  0.25000  0.90800  1.0000
