data_image0
_chemical_formula_structural       Cu2H24K4O28S4
_chemical_formula_sum              "Cu2 H24 K4 O28 S4"
_cell_length_a       8.89897
_cell_length_b       11.8162
_cell_length_c       6.02856
_cell_angle_alpha    90
_cell_angle_beta     104.377
_cell_angle_gamma    90

_space_group_name_H-M_alt    "P 1"
_space_group_IT_number       1

loop_
  _space_group_symop_operation_xyz
  'x, y, z'

loop_
  _atom_site_type_symbol
  _atom_site_label
  _atom_site_symmetry_multiplicity
  _atom_site_fract_x
  _atom_site_fract_y
  _atom_site_fract_z
  _atom_site_occupancy
  Cu  Cu1       1.0  0.00000  0.00000  0.00000  1.0000
  Cu  Cu2       1.0  0.50000  0.50000  0.00000  1.0000
  H   H1        1.0  0.83900  0.19800  0.00678  1.0000
  H   H2        1.0  0.33900  0.30200  0.00678  1.0000
  H   H3        1.0  0.78900  0.60400  0.07290  1.0000
  H   H4        1.0  0.28900  0.89600  0.07290  1.0000
  H   H5        1.0  0.74400  0.37500  0.08190  1.0000
  H   H6        1.0  0.24400  0.12500  0.08190  1.0000
  H   H7        1.0  0.70600  0.41200  0.31800  1.0000
  H   H8        1.0  0.20600  0.08800  0.31800  1.0000
  H   H9        1.0  0.53600  0.64300  0.32500  1.0000
  H   H10       1.0  0.03630  0.85700  0.32500  1.0000
  H   H11       1.0  0.90000  0.94500  0.33400  1.0000
  H   H12       1.0  0.40000  0.55500  0.33400  1.0000
  H   H13       1.0  0.60000  0.44500  0.66600  1.0000
  H   H14       1.0  0.09980  0.05470  0.66600  1.0000
  H   H15       1.0  0.96400  0.14300  0.67500  1.0000
  H   H16       1.0  0.46400  0.35700  0.67500  1.0000
  H   H17       1.0  0.79400  0.91200  0.68200  1.0000
  H   H18       1.0  0.29400  0.58800  0.68200  1.0000
  H   H19       1.0  0.75600  0.87500  0.91800  1.0000
  H   H20       1.0  0.25600  0.62500  0.91800  1.0000
  H   H21       1.0  0.71100  0.10400  0.92700  1.0000
  H   H22       1.0  0.21100  0.39600  0.92700  1.0000
  H   H23       1.0  0.66100  0.69800  0.99300  1.0000
  H   H24       1.0  0.16100  0.80200  0.99300  1.0000
  K   K1        1.0  0.62400  0.16000  0.34600  1.0000
  K   K2        1.0  0.12400  0.34000  0.34600  1.0000
  K   K3        1.0  0.87600  0.66000  0.65400  1.0000
  K   K4        1.0  0.37600  0.84000  0.65400  1.0000
  O   O1        1.0  0.80700  0.12300  0.04760  1.0000
  O   O2        1.0  0.30700  0.37700  0.04760  1.0000
  O   O3        1.0  0.61400  0.83600  0.04790  1.0000
  O   O4        1.0  0.11400  0.66400  0.04790  1.0000
  O   O5        1.0  0.65900  0.38200  0.16100  1.0000
  O   O6        1.0  0.15900  0.11800  0.16100  1.0000
  O   O7        1.0  0.95300  0.56900  0.26400  1.0000
  O   O8        1.0  0.45300  0.93100  0.26400  1.0000
  O   O9        1.0  0.50400  0.56200  0.29800  1.0000
  O   O10       1.0  0.00377  0.93800  0.29800  1.0000
  O   O11       1.0  0.73200  0.94100  0.39800  1.0000
  O   O12       1.0  0.23200  0.55900  0.39800  1.0000
  O   O13       1.0  0.60100  0.76400  0.42300  1.0000
  O   O14       1.0  0.10100  0.73600  0.42300  1.0000
  O   O15       1.0  0.89900  0.26400  0.57700  1.0000
  O   O16       1.0  0.39900  0.23600  0.57700  1.0000
  O   O17       1.0  0.76800  0.44100  0.60200  1.0000
  O   O18       1.0  0.26800  0.05930  0.60200  1.0000
  O   O19       1.0  0.49600  0.43800  0.70200  1.0000
  O   O20       1.0  0.99600  0.06170  0.70200  1.0000
  O   O21       1.0  0.54700  0.06880  0.73600  1.0000
  O   O22       1.0  0.04720  0.43100  0.73600  1.0000
  O   O23       1.0  0.84100  0.88200  0.83900  1.0000
  O   O24       1.0  0.34100  0.61800  0.83900  1.0000
  O   O25       1.0  0.88600  0.33600  0.95200  1.0000
  O   O26       1.0  0.38600  0.16400  0.95200  1.0000
  O   O27       1.0  0.69300  0.62300  0.95200  1.0000
  O   O28       1.0  0.19300  0.87700  0.95200  1.0000
  S   S1        1.0  0.59800  0.86800  0.28100  1.0000
  S   S2        1.0  0.09840  0.63200  0.28100  1.0000
  S   S3        1.0  0.90200  0.36800  0.71900  1.0000
  S   S4        1.0  0.40200  0.13200  0.71900  1.0000
