data_image0
_chemical_formula_structural       Ba4Ca4O4Se4
_chemical_formula_sum              "Ba4 Ca4 O4 Se4"
_cell_length_a       6.65402
_cell_length_b       4.37574
_cell_length_c       15.3902
_cell_angle_alpha    90
_cell_angle_beta     90
_cell_angle_gamma    90

_space_group_name_H-M_alt    "P 1"
_space_group_IT_number       1

loop_
  _space_group_symop_operation_xyz
  'x, y, z'

loop_
  _atom_site_type_symbol
  _atom_site_label
  _atom_site_symmetry_multiplicity
  _atom_site_fract_x
  _atom_site_fract_y
  _atom_site_fract_z
  _atom_site_occupancy
  Ba  Ba1       1.0  0.23900  0.75000  0.08950  1.0000
  Ba  Ba2       1.0  0.73900  0.75000  0.41100  1.0000
  Ba  Ba3       1.0  0.26100  0.25000  0.58900  1.0000
  Ba  Ba4       1.0  0.76100  0.25000  0.91100  1.0000
  Ca  Ca1       1.0  0.64300  0.25000  0.19300  1.0000
  Ca  Ca2       1.0  0.14300  0.25000  0.30700  1.0000
  Ca  Ca3       1.0  0.85700  0.75000  0.69300  1.0000
  Ca  Ca4       1.0  0.35700  0.75000  0.80700  1.0000
  O   O1        1.0  0.31000  0.25000  0.18400  1.0000
  O   O2        1.0  0.81000  0.25000  0.31600  1.0000
  O   O3        1.0  0.19000  0.75000  0.68400  1.0000
  O   O4        1.0  0.69000  0.75000  0.81600  1.0000
  Se  Se1       1.0  0.74500  0.75000  0.08090  1.0000
  Se  Se2       1.0  0.24500  0.75000  0.41900  1.0000
  Se  Se3       1.0  0.75500  0.25000  0.58100  1.0000
  Se  Se4       1.0  0.25500  0.25000  0.91900  1.0000
