data_image0
_chemical_formula_structural       B20Cs4Na4O34
_chemical_formula_sum              "B20 Cs4 Na4 O34"
_cell_length_a       6.52989
_cell_length_b       10.9985
_cell_length_c       11.161
_cell_angle_alpha    105.9
_cell_angle_beta     107.01
_cell_angle_gamma    90

_space_group_name_H-M_alt    "P 1"
_space_group_IT_number       1

loop_
  _space_group_symop_operation_xyz
  'x, y, z'

loop_
  _atom_site_type_symbol
  _atom_site_label
  _atom_site_symmetry_multiplicity
  _atom_site_fract_x
  _atom_site_fract_y
  _atom_site_fract_z
  _atom_site_occupancy
  B   B1        1.0  0.24200  0.23400  0.10700  1.0000
  B   B2        1.0  0.86500  0.73400  0.10700  1.0000
  B   B3        1.0  0.96900  0.63900  0.29000  1.0000
  B   B4        1.0  0.32100  0.13900  0.29000  1.0000
  B   B5        1.0  0.52300  0.34700  0.30900  1.0000
  B   B6        1.0  0.78600  0.84700  0.30900  1.0000
  B   B7        1.0  0.89400  0.43300  0.33100  1.0000
  B   B8        1.0  0.43700  0.93300  0.33100  1.0000
  B   B9        1.0  0.10100  0.00537  0.36200  1.0000
  B   B10       1.0  0.26100  0.50500  0.36200  1.0000
  B   B11       1.0  0.73900  0.49500  0.63800  1.0000
  B   B12       1.0  0.89900  0.99500  0.63800  1.0000
  B   B13       1.0  0.56300  0.06660  0.66900  1.0000
  B   B14       1.0  0.10600  0.56700  0.66900  1.0000
  B   B15       1.0  0.21400  0.15300  0.69100  1.0000
  B   B16       1.0  0.47700  0.65300  0.69100  1.0000
  B   B17       1.0  0.03110  0.36100  0.71000  1.0000
  B   B18       1.0  0.67900  0.86100  0.71000  1.0000
  B   B19       1.0  0.13500  0.26600  0.89300  1.0000
  B   B20       1.0  0.75800  0.76600  0.89300  1.0000
  Cs  Cs1       1.0  0.36100  0.59700  0.11100  1.0000
  Cs  Cs2       1.0  0.74900  0.09660  0.11100  1.0000
  Cs  Cs3       1.0  0.63900  0.40300  0.88900  1.0000
  Cs  Cs4       1.0  0.25100  0.90300  0.88900  1.0000
  Na  Na1       1.0  0.77600  0.18200  0.46400  1.0000
  Na  Na2       1.0  0.68800  0.68200  0.46400  1.0000
  Na  Na3       1.0  0.31200  0.31800  0.53600  1.0000
  Na  Na4       1.0  0.22400  0.81800  0.53600  1.0000
  O   O1        1.0  0.08400  0.25000  0.00000  1.0000
  O   O2        1.0  0.91600  0.75000  0.00000  1.0000
  O   O3        1.0  0.20600  0.13500  0.15200  1.0000
  O   O4        1.0  0.94600  0.63500  0.15200  1.0000
  O   O5        1.0  0.42400  0.31600  0.16300  1.0000
  O   O6        1.0  0.73900  0.81600  0.16300  1.0000
  O   O7        1.0  0.46200  0.03310  0.28500  1.0000
  O   O8        1.0  0.82300  0.53300  0.28500  1.0000
  O   O9        1.0  0.75900  0.34500  0.34100  1.0000
  O   O10       1.0  0.58100  0.84500  0.34100  1.0000
  O   O11       1.0  0.15100  0.12100  0.35000  1.0000
  O   O12       1.0  0.19800  0.62100  0.35000  1.0000
  O   O13       1.0  0.45000  0.25600  0.36300  1.0000
  O   O14       1.0  0.91300  0.75600  0.36300  1.0000
  O   O15       1.0  0.46500  0.47700  0.36300  1.0000
  O   O16       1.0  0.89800  0.97700  0.36300  1.0000
  O   O17       1.0  0.11400  0.41700  0.36900  1.0000
  O   O18       1.0  0.25400  0.91700  0.36900  1.0000
  O   O19       1.0  0.74600  0.08340  0.63100  1.0000
  O   O20       1.0  0.88600  0.58300  0.63100  1.0000
  O   O21       1.0  0.53500  0.52300  0.63700  1.0000
  O   O22       1.0  0.10200  0.02250  0.63700  1.0000
  O   O23       1.0  0.08680  0.24400  0.63700  1.0000
  O   O24       1.0  0.55000  0.74400  0.63700  1.0000
  O   O25       1.0  0.80200  0.37900  0.65000  1.0000
  O   O26       1.0  0.84900  0.87900  0.65000  1.0000
  O   O27       1.0  0.41900  0.15500  0.65900  1.0000
  O   O28       1.0  0.24100  0.65500  0.65900  1.0000
  O   O29       1.0  0.17700  0.46700  0.71500  1.0000
  O   O30       1.0  0.53800  0.96700  0.71500  1.0000
  O   O31       1.0  0.57600  0.68400  0.83700  1.0000
  O   O32       1.0  0.26100  0.18400  0.83700  1.0000
  O   O33       1.0  0.05400  0.36500  0.84800  1.0000
  O   O34       1.0  0.79400  0.86500  0.84800  1.0000
