data_image0
_chemical_formula_structural       Cd8O8Pd8Se8
_chemical_formula_sum              "Cd8 O8 Pd8 Se8"
_cell_length_a       6.62684
_cell_length_b       12.9739
_cell_length_c       6.6827
_cell_angle_alpha    90
_cell_angle_beta     90
_cell_angle_gamma    90

_space_group_name_H-M_alt    "P 1"
_space_group_IT_number       1

loop_
  _space_group_symop_operation_xyz
  'x, y, z'

loop_
  _atom_site_type_symbol
  _atom_site_label
  _atom_site_symmetry_multiplicity
  _atom_site_fract_x
  _atom_site_fract_y
  _atom_site_fract_z
  _atom_site_occupancy
  Cd  Cd1       1.0  0.98500  0.26900  0.21800  1.0000
  Cd  Cd2       1.0  0.51500  0.76900  0.21800  1.0000
  Cd  Cd3       1.0  0.48500  0.26900  0.28200  1.0000
  Cd  Cd4       1.0  0.01460  0.76900  0.28200  1.0000
  Cd  Cd5       1.0  0.98500  0.23100  0.71800  1.0000
  Cd  Cd6       1.0  0.51500  0.73100  0.71800  1.0000
  Cd  Cd7       1.0  0.48500  0.23100  0.78200  1.0000
  Cd  Cd8       1.0  0.01460  0.73100  0.78200  1.0000
  O   O1        1.0  0.71000  0.24100  0.05090  1.0000
  O   O2        1.0  0.79000  0.74100  0.05090  1.0000
  O   O3        1.0  0.21000  0.24100  0.44900  1.0000
  O   O4        1.0  0.29000  0.74100  0.44900  1.0000
  O   O5        1.0  0.71000  0.25900  0.55100  1.0000
  O   O6        1.0  0.79000  0.75900  0.55100  1.0000
  O   O7        1.0  0.21000  0.25900  0.94900  1.0000
  O   O8        1.0  0.29000  0.75900  0.94900  1.0000
  Pd  Pd1       1.0  0.25900  0.43100  0.03530  1.0000
  Pd  Pd2       1.0  0.24100  0.93100  0.03530  1.0000
  Pd  Pd3       1.0  0.75900  0.43100  0.46500  1.0000
  Pd  Pd4       1.0  0.74100  0.93100  0.46500  1.0000
  Pd  Pd5       1.0  0.25900  0.06920  0.53500  1.0000
  Pd  Pd6       1.0  0.24100  0.56900  0.53500  1.0000
  Pd  Pd7       1.0  0.75900  0.06920  0.96500  1.0000
  Pd  Pd8       1.0  0.74100  0.56900  0.96500  1.0000
  Se  Se1       1.0  0.50100  0.02130  0.24800  1.0000
  Se  Se2       1.0  0.99900  0.52100  0.24800  1.0000
  Se  Se3       1.0  0.00075  0.02130  0.25200  1.0000
  Se  Se4       1.0  0.49900  0.52100  0.25200  1.0000
  Se  Se5       1.0  0.50100  0.47900  0.74800  1.0000
  Se  Se6       1.0  0.99900  0.97900  0.74800  1.0000
  Se  Se7       1.0  0.00075  0.47900  0.75200  1.0000
  Se  Se8       1.0  0.49900  0.97900  0.75200  1.0000
