data_image0
_chemical_formula_structural       As10Bi4Na10O36
_chemical_formula_sum              "As10 Bi4 Na10 O36"
_cell_length_a       9.97436
_cell_length_b       12.0788
_cell_length_c       6.99294
_cell_angle_alpha    92.3496
_cell_angle_beta     90.6223
_cell_angle_gamma    97.6385

_space_group_name_H-M_alt    "P 1"
_space_group_IT_number       1

loop_
  _space_group_symop_operation_xyz
  'x, y, z'

loop_
  _atom_site_type_symbol
  _atom_site_label
  _atom_site_symmetry_multiplicity
  _atom_site_fract_x
  _atom_site_fract_y
  _atom_site_fract_z
  _atom_site_occupancy
  As  As1       1.0  0.58000  0.15800  0.17100  1.0000
  As  As2       1.0  0.25700  0.11100  0.18000  1.0000
  As  As3       1.0  0.01870  0.39400  0.22000  1.0000
  As  As4       1.0  0.57500  0.66300  0.28200  1.0000
  As  As5       1.0  0.06900  0.80300  0.49000  1.0000
  As  As6       1.0  0.93100  0.19700  0.51000  1.0000
  As  As7       1.0  0.42500  0.33700  0.71800  1.0000
  As  As8       1.0  0.98100  0.60600  0.78000  1.0000
  As  As9       1.0  0.74300  0.88900  0.82000  1.0000
  As  As10      1.0  0.42000  0.84200  0.82900  1.0000
  Bi  Bi1       1.0  0.37700  0.39700  0.22700  1.0000
  Bi  Bi2       1.0  0.76500  0.93700  0.32300  1.0000
  Bi  Bi3       1.0  0.23500  0.06310  0.67700  1.0000
  Bi  Bi4       1.0  0.62300  0.60300  0.77300  1.0000
  Na  Na1       1.0  0.07250  0.87400  0.02500  1.0000
  Na  Na2       1.0  0.22400  0.65300  0.07080  1.0000
  Na  Na3       1.0  0.87800  0.64300  0.23700  1.0000
  Na  Na4       1.0  0.39600  0.88800  0.33000  1.0000
  Na  Na5       1.0  0.73100  0.40200  0.47600  1.0000
  Na  Na6       1.0  0.26900  0.59800  0.52400  1.0000
  Na  Na7       1.0  0.60400  0.11200  0.67000  1.0000
  Na  Na8       1.0  0.12200  0.35700  0.76300  1.0000
  Na  Na9       1.0  0.77600  0.34700  0.92900  1.0000
  Na  Na10      1.0  0.92700  0.12600  0.97500  1.0000
  O   O1        1.0  0.85300  0.93400  0.00201  1.0000
  O   O2        1.0  0.31300  0.84300  0.01250  1.0000
  O   O3        1.0  0.99700  0.30800  0.02400  1.0000
  O   O4        1.0  0.41500  0.11100  0.06120  1.0000
  O   O5        1.0  0.68100  0.66600  0.08870  1.0000
  O   O6        1.0  0.41400  0.60400  0.22100  1.0000
  O   O7        1.0  0.17500  0.47600  0.23200  1.0000
  O   O8        1.0  0.88200  0.46200  0.24100  1.0000
  O   O9        1.0  0.57300  0.29000  0.26300  1.0000
  O   O10       1.0  0.24200  0.23800  0.28300  1.0000
  O   O11       1.0  0.90800  0.10500  0.31600  1.0000
  O   O12       1.0  0.95800  0.84100  0.32500  1.0000
  O   O13       1.0  0.59300  0.05720  0.33400  1.0000
  O   O14       1.0  0.24200  0.01550  0.35400  1.0000
  O   O15       1.0  0.57800  0.79700  0.37300  1.0000
  O   O16       1.0  0.20600  0.75900  0.39000  1.0000
  O   O17       1.0  0.02800  0.32400  0.44100  1.0000
  O   O18       1.0  0.64100  0.57800  0.44300  1.0000
  O   O19       1.0  0.35900  0.42200  0.55700  1.0000
  O   O20       1.0  0.97200  0.67600  0.55900  1.0000
  O   O21       1.0  0.79400  0.24100  0.61000  1.0000
  O   O22       1.0  0.42200  0.20300  0.62700  1.0000
  O   O23       1.0  0.75800  0.98500  0.64600  1.0000
  O   O24       1.0  0.40700  0.94300  0.66600  1.0000
  O   O25       1.0  0.04220  0.15900  0.67500  1.0000
  O   O26       1.0  0.09190  0.89500  0.68400  1.0000
  O   O27       1.0  0.75800  0.76200  0.71700  1.0000
  O   O28       1.0  0.42700  0.71000  0.73700  1.0000
  O   O29       1.0  0.11800  0.53800  0.75900  1.0000
  O   O30       1.0  0.82500  0.52400  0.76800  1.0000
  O   O31       1.0  0.58600  0.39600  0.77900  1.0000
  O   O32       1.0  0.31900  0.33400  0.91100  1.0000
  O   O33       1.0  0.58500  0.88900  0.93900  1.0000
  O   O34       1.0  0.00299  0.69200  0.97600  1.0000
  O   O35       1.0  0.68700  0.15700  0.98800  1.0000
  O   O36       1.0  0.14700  0.06560  0.99800  1.0000
