data_image0
_chemical_formula_structural       Au24Te36
_chemical_formula_sum              "Au24 Te36"
_cell_length_a       12.1863
_cell_length_b       13.5758
_cell_length_c       10.7428
_cell_angle_alpha    104.275
_cell_angle_beta     97.16
_cell_angle_gamma    108.849

_space_group_name_H-M_alt    "P 1"
_space_group_IT_number       1

loop_
  _space_group_symop_operation_xyz
  'x, y, z'

loop_
  _atom_site_type_symbol
  _atom_site_label
  _atom_site_symmetry_multiplicity
  _atom_site_fract_x
  _atom_site_fract_y
  _atom_site_fract_z
  _atom_site_occupancy
  Au  Au1       1.0  0.88100  0.16800  0.03450  1.0000
  Au  Au2       1.0  0.32600  0.24700  0.04610  1.0000
  Au  Au3       1.0  0.65700  0.49300  0.09170  1.0000
  Au  Au4       1.0  0.98700  0.74000  0.14600  1.0000
  Au  Au5       1.0  0.30000  0.98200  0.19700  1.0000
  Au  Au6       1.0  0.76200  0.07350  0.20400  1.0000
  Au  Au7       1.0  0.07660  0.30600  0.25200  1.0000
  Au  Au8       1.0  0.40800  0.56200  0.31200  1.0000
  Au  Au9       1.0  0.74100  0.80600  0.35500  1.0000
  Au  Au10      1.0  0.18300  0.88300  0.38000  1.0000
  Au  Au11      1.0  0.06940  0.04080  0.41600  1.0000
  Au  Au12      1.0  0.50600  0.13000  0.42600  1.0000
  Au  Au13      1.0  0.83100  0.37400  0.47200  1.0000
  Au  Au14      1.0  0.15700  0.62000  0.52100  1.0000
  Au  Au15      1.0  0.49700  0.87100  0.57200  1.0000
  Au  Au16      1.0  0.82400  0.11700  0.62000  1.0000
  Au  Au17      1.0  0.14400  0.35500  0.67000  1.0000
  Au  Au18      1.0  0.58500  0.44200  0.68200  1.0000
  Au  Au19      1.0  0.91400  0.69100  0.73500  1.0000
  Au  Au20      1.0  0.24200  0.93500  0.78400  1.0000
  Au  Au21      1.0  0.56900  0.17900  0.83100  1.0000
  Au  Au22      1.0  0.90000  0.42500  0.88500  1.0000
  Au  Au23      1.0  0.22400  0.67400  0.92800  1.0000
  Au  Au24      1.0  0.67100  0.75700  0.94900  1.0000
  Te  Te1       1.0  0.58300  0.92400  0.00037  1.0000
  Te  Te2       1.0  0.75700  0.33000  0.03730  1.0000
  Te  Te3       1.0  0.08220  0.57900  0.08500  1.0000
  Te  Te4       1.0  0.22800  0.40700  0.11200  1.0000
  Te  Te5       1.0  0.56800  0.66300  0.13600  1.0000
  Te  Te6       1.0  0.40900  0.83700  0.16300  1.0000
  Te  Te7       1.0  0.88900  0.89900  0.20200  1.0000
  Te  Te8       1.0  0.17400  0.11200  0.22800  1.0000
  Te  Te9       1.0  0.51200  0.38900  0.25000  1.0000
  Te  Te10      1.0  0.63600  0.23500  0.27200  1.0000
  Te  Te11      1.0  0.85100  0.63500  0.29500  1.0000
  Te  Te12      1.0  0.97300  0.48200  0.31000  1.0000
  Te  Te13      1.0  0.30400  0.74000  0.36700  1.0000
  Te  Te14      1.0  0.64200  0.99700  0.39500  1.0000
  Te  Te15      1.0  0.94200  0.22000  0.41100  1.0000
  Te  Te16      1.0  0.40300  0.28800  0.47200  1.0000
  Te  Te17      1.0  0.25700  0.45800  0.48000  1.0000
  Te  Te18      1.0  0.59200  0.71200  0.50800  1.0000
  Te  Te19      1.0  0.73300  0.53500  0.53400  1.0000
  Te  Te20      1.0  0.91900  0.95600  0.56600  1.0000
  Te  Te21      1.0  0.06400  0.78700  0.58100  1.0000
  Te  Te22      1.0  0.40500  0.03340  0.60400  1.0000
  Te  Te23      1.0  0.23900  0.19600  0.63500  1.0000
  Te  Te24      1.0  0.72300  0.27600  0.67500  1.0000
  Te  Te25      1.0  0.01710  0.49100  0.69500  1.0000
  Te  Te26      1.0  0.47000  0.60600  0.71900  1.0000
  Te  Te27      1.0  0.33000  0.75900  0.74200  1.0000
  Te  Te28      1.0  0.68300  0.01240  0.78800  1.0000
  Te  Te29      1.0  0.81900  0.87000  0.81300  1.0000
  Te  Te30      1.0  0.99700  0.24100  0.84900  1.0000
  Te  Te31      1.0  0.13600  0.09650  0.85500  1.0000
  Te  Te32      1.0  0.48300  0.35700  0.86600  1.0000
  Te  Te33      1.0  0.76900  0.59600  0.89200  1.0000
  Te  Te34      1.0  0.32600  0.51700  0.89300  1.0000
  Te  Te35      1.0  0.09510  0.81000  0.95600  1.0000
  Te  Te36      1.0  0.41900  0.08360  0.98800  1.0000
