data_image0
_chemical_formula_structural       O36V8Zn16
_chemical_formula_sum              "O36 V8 Zn16"
_cell_length_a       10.5133
_cell_length_b       8.16543
_cell_length_c       9.63633
_cell_angle_alpha    90
_cell_angle_beta     118.673
_cell_angle_gamma    90

_space_group_name_H-M_alt    "P 1"
_space_group_IT_number       1

loop_
  _space_group_symop_operation_xyz
  'x, y, z'

loop_
  _atom_site_type_symbol
  _atom_site_label
  _atom_site_symmetry_multiplicity
  _atom_site_fract_x
  _atom_site_fract_y
  _atom_site_fract_z
  _atom_site_occupancy
  O   O1        1.0  0.74400  0.83300  0.00376  1.0000
  O   O2        1.0  0.23300  0.98700  0.01010  1.0000
  O   O3        1.0  0.54200  0.12300  0.03940  1.0000
  O   O4        1.0  0.07660  0.62500  0.06110  1.0000
  O   O5        1.0  0.84800  0.17000  0.17300  1.0000
  O   O6        1.0  0.36200  0.63600  0.17800  1.0000
  O   O7        1.0  0.05460  0.91400  0.19600  1.0000
  O   O8        1.0  0.13200  0.26000  0.20600  1.0000
  O   O9        1.0  0.60600  0.81900  0.22700  1.0000
  O   O10       1.0  0.63700  0.46400  0.24400  1.0000
  O   O11       1.0  0.95200  0.57300  0.30200  1.0000
  O   O12       1.0  0.51200  0.16400  0.32700  1.0000
  O   O13       1.0  0.34000  0.82700  0.39300  1.0000
  O   O14       1.0  0.84600  0.96200  0.39800  1.0000
  O   O15       1.0  0.33000  0.47500  0.40800  1.0000
  O   O16       1.0  0.11100  0.13400  0.44700  1.0000
  O   O17       1.0  0.87600  0.29900  0.45900  1.0000
  O   O18       1.0  0.60300  0.63900  0.46800  1.0000
  O   O19       1.0  0.39700  0.13900  0.53200  1.0000
  O   O20       1.0  0.12400  0.79900  0.54100  1.0000
  O   O21       1.0  0.88900  0.63400  0.55300  1.0000
  O   O22       1.0  0.67000  0.97500  0.59200  1.0000
  O   O23       1.0  0.15400  0.46200  0.60200  1.0000
  O   O24       1.0  0.66000  0.32700  0.60700  1.0000
  O   O25       1.0  0.48800  0.66400  0.67300  1.0000
  O   O26       1.0  0.04820  0.07260  0.69800  1.0000
  O   O27       1.0  0.36300  0.96400  0.75600  1.0000
  O   O28       1.0  0.39400  0.31900  0.77300  1.0000
  O   O29       1.0  0.86800  0.76000  0.79400  1.0000
  O   O30       1.0  0.94500  0.41400  0.80400  1.0000
  O   O31       1.0  0.63800  0.13600  0.82200  1.0000
  O   O32       1.0  0.15200  0.67000  0.82700  1.0000
  O   O33       1.0  0.92300  0.12500  0.93900  1.0000
  O   O34       1.0  0.45800  0.62300  0.96100  1.0000
  O   O35       1.0  0.76700  0.48700  0.99000  1.0000
  O   O36       1.0  0.25600  0.33300  0.99600  1.0000
  V   V1        1.0  0.00034  0.11700  0.15300  1.0000
  V   V2        1.0  0.52000  0.63400  0.16400  1.0000
  V   V3        1.0  0.44300  0.64900  0.48200  1.0000
  V   V4        1.0  0.96900  0.11900  0.49800  1.0000
  V   V5        1.0  0.03120  0.61900  0.50200  1.0000
  V   V6        1.0  0.55700  0.14900  0.51800  1.0000
  V   V7        1.0  0.48000  0.13400  0.83600  1.0000
  V   V8        1.0  0.00000  0.61700  0.84700  1.0000
  Zn  Zn1       1.0  0.39100  0.14600  0.10400  1.0000
  Zn  Zn2       1.0  0.91800  0.69200  0.10900  1.0000
  Zn  Zn3       1.0  0.22200  0.83100  0.15500  1.0000
  Zn  Zn4       1.0  0.71500  0.97200  0.15600  1.0000
  Zn  Zn5       1.0  0.23400  0.44500  0.16800  1.0000
  Zn  Zn6       1.0  0.79000  0.39500  0.19200  1.0000
  Zn  Zn7       1.0  0.74100  0.82400  0.48400  1.0000
  Zn  Zn8       1.0  0.74000  0.44600  0.49000  1.0000
  Zn  Zn9       1.0  0.26000  0.94600  0.51000  1.0000
  Zn  Zn10      1.0  0.25900  0.32400  0.51600  1.0000
  Zn  Zn11      1.0  0.21000  0.89500  0.80800  1.0000
  Zn  Zn12      1.0  0.76600  0.94500  0.83200  1.0000
  Zn  Zn13      1.0  0.28500  0.47200  0.84400  1.0000
  Zn  Zn14      1.0  0.77800  0.33100  0.84500  1.0000
  Zn  Zn15      1.0  0.08220  0.19200  0.89100  1.0000
  Zn  Zn16      1.0  0.60900  0.64600  0.89600  1.0000
