data_image0
_chemical_formula_structural       F40Lu12Rb4
_chemical_formula_sum              "F40 Lu12 Rb4"
_cell_length_a       7.49884
_cell_length_b       7.49884
_cell_length_c       15.4116
_cell_angle_alpha    90
_cell_angle_beta     90
_cell_angle_gamma    114.068

_space_group_name_H-M_alt    "P 1"
_space_group_IT_number       1

loop_
  _space_group_symop_operation_xyz
  'x, y, z'

loop_
  _atom_site_type_symbol
  _atom_site_label
  _atom_site_symmetry_multiplicity
  _atom_site_fract_x
  _atom_site_fract_y
  _atom_site_fract_z
  _atom_site_occupancy
  F   F1        1.0  0.39900  0.09110  0.01690  1.0000
  F   F2        1.0  0.90900  0.60100  0.01690  1.0000
  F   F3        1.0  0.31500  0.68500  0.09740  1.0000
  F   F4        1.0  0.75100  0.24900  0.12000  1.0000
  F   F5        1.0  0.16100  0.26900  0.12300  1.0000
  F   F6        1.0  0.73100  0.83900  0.12300  1.0000
  F   F7        1.0  0.30600  0.02260  0.18000  1.0000
  F   F8        1.0  0.97700  0.69400  0.18000  1.0000
  F   F9        1.0  0.49500  0.50500  0.21300  1.0000
  F   F10       1.0  0.07750  0.42200  0.25000  1.0000
  F   F11       1.0  0.57800  0.92200  0.25000  1.0000
  F   F12       1.0  0.99500  0.00548  0.28700  1.0000
  F   F13       1.0  0.47700  0.19400  0.32000  1.0000
  F   F14       1.0  0.80600  0.52300  0.32000  1.0000
  F   F15       1.0  0.23100  0.33900  0.37700  1.0000
  F   F16       1.0  0.66100  0.76900  0.37700  1.0000
  F   F17       1.0  0.25100  0.74900  0.38000  1.0000
  F   F18       1.0  0.81500  0.18500  0.40300  1.0000
  F   F19       1.0  0.40900  0.10100  0.48300  1.0000
  F   F20       1.0  0.89900  0.59100  0.48300  1.0000
  F   F21       1.0  0.10100  0.40900  0.51700  1.0000
  F   F22       1.0  0.59100  0.89900  0.51700  1.0000
  F   F23       1.0  0.18500  0.81500  0.59700  1.0000
  F   F24       1.0  0.74900  0.25100  0.62000  1.0000
  F   F25       1.0  0.33900  0.23100  0.62300  1.0000
  F   F26       1.0  0.76900  0.66100  0.62300  1.0000
  F   F27       1.0  0.19400  0.47700  0.68000  1.0000
  F   F28       1.0  0.52300  0.80600  0.68000  1.0000
  F   F29       1.0  0.00548  0.99500  0.71300  1.0000
  F   F30       1.0  0.42200  0.07750  0.75000  1.0000
  F   F31       1.0  0.92200  0.57800  0.75000  1.0000
  F   F32       1.0  0.50500  0.49500  0.78700  1.0000
  F   F33       1.0  0.02260  0.30600  0.82000  1.0000
  F   F34       1.0  0.69400  0.97700  0.82000  1.0000
  F   F35       1.0  0.26900  0.16100  0.87700  1.0000
  F   F36       1.0  0.83900  0.73100  0.87700  1.0000
  F   F37       1.0  0.24900  0.75100  0.88000  1.0000
  F   F38       1.0  0.68500  0.31500  0.90300  1.0000
  F   F39       1.0  0.09110  0.39900  0.98300  1.0000
  F   F40       1.0  0.60100  0.90900  0.98300  1.0000
  Lu  Lu1       1.0  0.02970  0.47700  0.11300  1.0000
  Lu  Lu2       1.0  0.52300  0.97000  0.11300  1.0000
  Lu  Lu3       1.0  0.25900  0.24100  0.25000  1.0000
  Lu  Lu4       1.0  0.75900  0.74100  0.25000  1.0000
  Lu  Lu5       1.0  0.02270  0.47000  0.38700  1.0000
  Lu  Lu6       1.0  0.53000  0.97700  0.38700  1.0000
  Lu  Lu7       1.0  0.47000  0.02270  0.61300  1.0000
  Lu  Lu8       1.0  0.97700  0.53000  0.61300  1.0000
  Lu  Lu9       1.0  0.24100  0.25900  0.75000  1.0000
  Lu  Lu10      1.0  0.74100  0.75900  0.75000  1.0000
  Lu  Lu11      1.0  0.47700  0.02970  0.88700  1.0000
  Lu  Lu12      1.0  0.97000  0.52300  0.88700  1.0000
  Rb  Rb1       1.0  0.00000  0.00000  0.00000  1.0000
  Rb  Rb2       1.0  0.50000  0.50000  0.00000  1.0000
  Rb  Rb3       1.0  0.00000  0.00000  0.50000  1.0000
  Rb  Rb4       1.0  0.50000  0.50000  0.50000  1.0000
