data_image0
_chemical_formula_structural       H24N2O26P6Zn2
_chemical_formula_sum              "H24 N2 O26 P6 Zn2"
_cell_length_a       8.52479
_cell_length_b       10.1144
_cell_length_c       7.14873
_cell_angle_alpha    104.642
_cell_angle_beta     111.644
_cell_angle_gamma    71.1983

_space_group_name_H-M_alt    "P 1"
_space_group_IT_number       1

loop_
  _space_group_symop_operation_xyz
  'x, y, z'

loop_
  _atom_site_type_symbol
  _atom_site_label
  _atom_site_symmetry_multiplicity
  _atom_site_fract_x
  _atom_site_fract_y
  _atom_site_fract_z
  _atom_site_occupancy
  H   H1        1.0  0.26000  0.60700  0.03560  1.0000
  H   H2        1.0  0.82300  0.51300  0.16200  1.0000
  H   H3        1.0  0.68600  0.42600  0.18000  1.0000
  H   H4        1.0  0.89200  0.34100  0.18200  1.0000
  H   H5        1.0  0.34900  0.94500  0.20100  1.0000
  H   H6        1.0  0.46800  0.69900  0.26900  1.0000
  H   H7        1.0  0.23200  0.96000  0.33700  1.0000
  H   H8        1.0  0.19100  0.18800  0.34400  1.0000
  H   H9        1.0  0.15200  0.56400  0.37300  1.0000
  H   H10       1.0  0.32200  0.74200  0.38100  1.0000
  H   H11       1.0  0.21900  0.40700  0.42800  1.0000
  H   H12       1.0  0.88800  0.71200  0.48200  1.0000
  H   H13       1.0  0.11200  0.28800  0.51800  1.0000
  H   H14       1.0  0.78100  0.59300  0.57200  1.0000
  H   H15       1.0  0.67800  0.25800  0.61900  1.0000
  H   H16       1.0  0.84800  0.43600  0.62700  1.0000
  H   H17       1.0  0.80900  0.81200  0.65600  1.0000
  H   H18       1.0  0.76800  0.03960  0.66300  1.0000
  H   H19       1.0  0.53200  0.30100  0.73100  1.0000
  H   H20       1.0  0.65100  0.05550  0.79900  1.0000
  H   H21       1.0  0.10800  0.65900  0.81800  1.0000
  H   H22       1.0  0.31400  0.57400  0.82000  1.0000
  H   H23       1.0  0.17700  0.48700  0.83800  1.0000
  H   H24       1.0  0.74000  0.39300  0.96400  1.0000
  N   N1        1.0  0.78400  0.42000  0.12200  1.0000
  N   N2        1.0  0.21600  0.58000  0.87800  1.0000
  O   O1        1.0  0.27800  0.24100  0.05530  1.0000
  O   O2        1.0  0.01470  0.80500  0.06520  1.0000
  O   O3        1.0  0.51100  0.79100  0.14000  1.0000
  O   O4        1.0  0.57200  0.10100  0.18000  1.0000
  O   O5        1.0  0.87400  0.11200  0.20700  1.0000
  O   O6        1.0  0.51600  0.36800  0.20900  1.0000
  O   O7        1.0  0.24600  0.00860  0.23900  1.0000
  O   O8        1.0  0.94800  0.64300  0.24200  1.0000
  O   O9        1.0  0.81900  0.90100  0.29500  1.0000
  O   O10       1.0  0.40000  0.65900  0.32000  1.0000
  O   O11       1.0  0.13500  0.28700  0.39200  1.0000
  O   O12       1.0  0.25200  0.50100  0.46100  1.0000
  O   O13       1.0  0.20100  0.87300  0.47200  1.0000
  O   O14       1.0  0.79900  0.12700  0.52800  1.0000
  O   O15       1.0  0.74800  0.49900  0.53900  1.0000
  O   O16       1.0  0.86500  0.71300  0.60800  1.0000
  O   O17       1.0  0.60000  0.34100  0.68000  1.0000
  O   O18       1.0  0.18100  0.09920  0.70500  1.0000
  O   O19       1.0  0.05160  0.35700  0.75800  1.0000
  O   O20       1.0  0.75400  0.99100  0.76100  1.0000
  O   O21       1.0  0.48400  0.63200  0.79100  1.0000
  O   O22       1.0  0.12600  0.88800  0.79300  1.0000
  O   O23       1.0  0.42800  0.89900  0.82000  1.0000
  O   O24       1.0  0.48900  0.20900  0.86000  1.0000
  O   O25       1.0  0.98500  0.19500  0.93500  1.0000
  O   O26       1.0  0.72200  0.75900  0.94500  1.0000
  P   P1        1.0  0.47000  0.23900  0.06830  1.0000
  P   P2        1.0  0.89200  0.77100  0.14000  1.0000
  P   P3        1.0  0.77700  0.06840  0.30900  1.0000
  P   P4        1.0  0.22300  0.93200  0.69100  1.0000
  P   P5        1.0  0.10800  0.22900  0.86000  1.0000
  P   P6        1.0  0.53000  0.76100  0.93200  1.0000
  Zn  Zn1       1.0  0.00000  0.00000  0.00000  1.0000
  Zn  Zn2       1.0  0.50000  0.50000  0.50000  1.0000
