data_image0
_chemical_formula_structural       Cl36In28
_chemical_formula_sum              "Cl36 In28"
_cell_length_a       12.2689
_cell_length_b       12.2689
_cell_length_c       12.2689
_cell_angle_alpha    90
_cell_angle_beta     90
_cell_angle_gamma    90

_space_group_name_H-M_alt    "P 1"
_space_group_IT_number       1

loop_
  _space_group_symop_operation_xyz
  'x, y, z'

loop_
  _atom_site_type_symbol
  _atom_site_label
  _atom_site_symmetry_multiplicity
  _atom_site_fract_x
  _atom_site_fract_y
  _atom_site_fract_z
  _atom_site_occupancy
  Cl  Cl1       1.0  0.00000  0.00000  0.00000  1.0000
  Cl  Cl2       1.0  0.50000  0.50000  0.00000  1.0000
  Cl  Cl3       1.0  0.44900  0.19700  0.04420  1.0000
  Cl  Cl4       1.0  0.05140  0.69700  0.04420  1.0000
  Cl  Cl5       1.0  0.69700  0.04420  0.05140  1.0000
  Cl  Cl6       1.0  0.80300  0.54400  0.05140  1.0000
  Cl  Cl7       1.0  0.16800  0.16800  0.16800  1.0000
  Cl  Cl8       1.0  0.33200  0.66800  0.16800  1.0000
  Cl  Cl9       1.0  0.04420  0.44900  0.19700  1.0000
  Cl  Cl10      1.0  0.45600  0.94900  0.19700  1.0000
  Cl  Cl11      1.0  0.54400  0.44900  0.30300  1.0000
  Cl  Cl12      1.0  0.95600  0.94900  0.30300  1.0000
  Cl  Cl13      1.0  0.66800  0.16800  0.33200  1.0000
  Cl  Cl14      1.0  0.83200  0.66800  0.33200  1.0000
  Cl  Cl15      1.0  0.19700  0.04420  0.44900  1.0000
  Cl  Cl16      1.0  0.30300  0.54400  0.44900  1.0000
  Cl  Cl17      1.0  0.94900  0.19700  0.45600  1.0000
  Cl  Cl18      1.0  0.55100  0.69700  0.45600  1.0000
  Cl  Cl19      1.0  0.50000  0.00000  0.50000  1.0000
  Cl  Cl20      1.0  0.00000  0.50000  0.50000  1.0000
  Cl  Cl21      1.0  0.44900  0.30300  0.54400  1.0000
  Cl  Cl22      1.0  0.05140  0.80300  0.54400  1.0000
  Cl  Cl23      1.0  0.69700  0.45600  0.55100  1.0000
  Cl  Cl24      1.0  0.80300  0.95600  0.55100  1.0000
  Cl  Cl25      1.0  0.16800  0.33200  0.66800  1.0000
  Cl  Cl26      1.0  0.33200  0.83200  0.66800  1.0000
  Cl  Cl27      1.0  0.04420  0.05140  0.69700  1.0000
  Cl  Cl28      1.0  0.45600  0.55100  0.69700  1.0000
  Cl  Cl29      1.0  0.54400  0.05140  0.80300  1.0000
  Cl  Cl30      1.0  0.95600  0.55100  0.80300  1.0000
  Cl  Cl31      1.0  0.66800  0.33200  0.83200  1.0000
  Cl  Cl32      1.0  0.83200  0.83200  0.83200  1.0000
  Cl  Cl33      1.0  0.19700  0.45600  0.94900  1.0000
  Cl  Cl34      1.0  0.30300  0.95600  0.94900  1.0000
  Cl  Cl35      1.0  0.94900  0.30300  0.95600  1.0000
  Cl  Cl36      1.0  0.55100  0.80300  0.95600  1.0000
  In  In1       1.0  0.50000  0.00000  0.00000  1.0000
  In  In2       1.0  0.00000  0.50000  0.00000  1.0000
  In  In3       1.0  0.67200  0.31700  0.06920  1.0000
  In  In4       1.0  0.82800  0.81700  0.06920  1.0000
  In  In5       1.0  0.31700  0.43100  0.17200  1.0000
  In  In6       1.0  0.18300  0.93100  0.17200  1.0000
  In  In7       1.0  0.93100  0.17200  0.18300  1.0000
  In  In8       1.0  0.56900  0.67200  0.18300  1.0000
  In  In9       1.0  0.43100  0.17200  0.31700  1.0000
  In  In10      1.0  0.06920  0.67200  0.31700  1.0000
  In  In11      1.0  0.81700  0.43100  0.32800  1.0000
  In  In12      1.0  0.68300  0.93100  0.32800  1.0000
  In  In13      1.0  0.17200  0.31700  0.43100  1.0000
  In  In14      1.0  0.32800  0.81700  0.43100  1.0000
  In  In15      1.0  0.00000  0.00000  0.50000  1.0000
  In  In16      1.0  0.50000  0.50000  0.50000  1.0000
  In  In17      1.0  0.67200  0.18300  0.56900  1.0000
  In  In18      1.0  0.82800  0.68300  0.56900  1.0000
  In  In19      1.0  0.31700  0.06920  0.67200  1.0000
  In  In20      1.0  0.18300  0.56900  0.67200  1.0000
  In  In21      1.0  0.93100  0.32800  0.68300  1.0000
  In  In22      1.0  0.56900  0.82800  0.68300  1.0000
  In  In23      1.0  0.43100  0.32800  0.81700  1.0000
  In  In24      1.0  0.06920  0.82800  0.81700  1.0000
  In  In25      1.0  0.81700  0.06920  0.82800  1.0000
  In  In26      1.0  0.68300  0.56900  0.82800  1.0000
  In  In27      1.0  0.17200  0.18300  0.93100  1.0000
  In  In28      1.0  0.32800  0.68300  0.93100  1.0000
