data_image0
_chemical_formula_structural       Cu16O36P8
_chemical_formula_sum              "Cu16 O36 P8"
_cell_length_a       8.07793
_cell_length_b       6.25094
_cell_length_c       13.3016
_cell_angle_alpha    90
_cell_angle_beta     90
_cell_angle_gamma    90

_space_group_name_H-M_alt    "P 1"
_space_group_IT_number       1

loop_
  _space_group_symop_operation_xyz
  'x, y, z'

loop_
  _atom_site_type_symbol
  _atom_site_label
  _atom_site_symmetry_multiplicity
  _atom_site_fract_x
  _atom_site_fract_y
  _atom_site_fract_z
  _atom_site_occupancy
  Cu  Cu1       1.0  0.14400  0.25000  0.05720  1.0000
  Cu  Cu2       1.0  0.56700  0.75000  0.08650  1.0000
  Cu  Cu3       1.0  0.85500  0.00602  0.15700  1.0000
  Cu  Cu4       1.0  0.85500  0.49400  0.15700  1.0000
  Cu  Cu5       1.0  0.35500  0.00602  0.34300  1.0000
  Cu  Cu6       1.0  0.35500  0.49400  0.34300  1.0000
  Cu  Cu7       1.0  0.06720  0.75000  0.41400  1.0000
  Cu  Cu8       1.0  0.64400  0.25000  0.44300  1.0000
  Cu  Cu9       1.0  0.35600  0.75000  0.55700  1.0000
  Cu  Cu10      1.0  0.93300  0.25000  0.58600  1.0000
  Cu  Cu11      1.0  0.64500  0.50600  0.65700  1.0000
  Cu  Cu12      1.0  0.64500  0.99400  0.65700  1.0000
  Cu  Cu13      1.0  0.14500  0.50600  0.84300  1.0000
  Cu  Cu14      1.0  0.14500  0.99400  0.84300  1.0000
  Cu  Cu15      1.0  0.43300  0.25000  0.91400  1.0000
  Cu  Cu16      1.0  0.85600  0.75000  0.94300  1.0000
  O   O1        1.0  0.90600  0.25000  0.02880  1.0000
  O   O2        1.0  0.38000  0.25000  0.06900  1.0000
  O   O3        1.0  0.34000  0.75000  0.08580  1.0000
  O   O4        1.0  0.80200  0.75000  0.09350  1.0000
  O   O5        1.0  0.08940  0.54600  0.13700  1.0000
  O   O6        1.0  0.08940  0.95400  0.13700  1.0000
  O   O7        1.0  0.61400  0.04720  0.15200  1.0000
  O   O8        1.0  0.61400  0.45300  0.15200  1.0000
  O   O9        1.0  0.90100  0.25000  0.24400  1.0000
  O   O10       1.0  0.40100  0.25000  0.25600  1.0000
  O   O11       1.0  0.11400  0.04720  0.34800  1.0000
  O   O12       1.0  0.11400  0.45300  0.34800  1.0000
  O   O13       1.0  0.58900  0.54600  0.36300  1.0000
  O   O14       1.0  0.58900  0.95400  0.36300  1.0000
  O   O15       1.0  0.30200  0.75000  0.40700  1.0000
  O   O16       1.0  0.84000  0.75000  0.41400  1.0000
  O   O17       1.0  0.88000  0.25000  0.43100  1.0000
  O   O18       1.0  0.40600  0.25000  0.47100  1.0000
  O   O19       1.0  0.59400  0.75000  0.52900  1.0000
  O   O20       1.0  0.12000  0.75000  0.56900  1.0000
  O   O21       1.0  0.16000  0.25000  0.58600  1.0000
  O   O22       1.0  0.69800  0.25000  0.59300  1.0000
  O   O23       1.0  0.41100  0.04560  0.63700  1.0000
  O   O24       1.0  0.41100  0.45400  0.63700  1.0000
  O   O25       1.0  0.88600  0.54700  0.65200  1.0000
  O   O26       1.0  0.88600  0.95300  0.65200  1.0000
  O   O27       1.0  0.59900  0.75000  0.74400  1.0000
  O   O28       1.0  0.09930  0.75000  0.75600  1.0000
  O   O29       1.0  0.38600  0.54700  0.84800  1.0000
  O   O30       1.0  0.38600  0.95300  0.84800  1.0000
  O   O31       1.0  0.91100  0.04560  0.86300  1.0000
  O   O32       1.0  0.91100  0.45400  0.86300  1.0000
  O   O33       1.0  0.19800  0.25000  0.90700  1.0000
  O   O34       1.0  0.66000  0.25000  0.91400  1.0000
  O   O35       1.0  0.62000  0.75000  0.93100  1.0000
  O   O36       1.0  0.09390  0.75000  0.97100  1.0000
  P   P1        1.0  0.15400  0.75000  0.08250  1.0000
  P   P2        1.0  0.50400  0.25000  0.15700  1.0000
  P   P3        1.0  0.00400  0.25000  0.34300  1.0000
  P   P4        1.0  0.65400  0.75000  0.41800  1.0000
  P   P5        1.0  0.34600  0.25000  0.58200  1.0000
  P   P6        1.0  0.99600  0.75000  0.65700  1.0000
  P   P7        1.0  0.49600  0.75000  0.84300  1.0000
  P   P8        1.0  0.84600  0.25000  0.91800  1.0000
