data_image0
_chemical_formula_structural       H36Na4O20
_chemical_formula_sum              "H36 Na4 O20"
_cell_length_a       5.92361
_cell_length_b       6.04649
_cell_length_c       12.6664
_cell_angle_alpha    90
_cell_angle_beta     90
_cell_angle_gamma    90

_space_group_name_H-M_alt    "P 1"
_space_group_IT_number       1

loop_
  _space_group_symop_operation_xyz
  'x, y, z'

loop_
  _atom_site_type_symbol
  _atom_site_label
  _atom_site_symmetry_multiplicity
  _atom_site_fract_x
  _atom_site_fract_y
  _atom_site_fract_z
  _atom_site_occupancy
  H   H1        1.0  0.73900  0.86800  0.05640  1.0000
  H   H2        1.0  0.25600  0.62100  0.07240  1.0000
  H   H3        1.0  0.72000  0.55500  0.14300  1.0000
  H   H4        1.0  0.20900  0.94100  0.14500  1.0000
  H   H5        1.0  0.27300  0.17700  0.18900  1.0000
  H   H6        1.0  0.78300  0.31900  0.19100  1.0000
  H   H7        1.0  0.04390  0.64800  0.19700  1.0000
  H   H8        1.0  0.50000  0.82000  0.19900  1.0000
  H   H9        1.0  0.71500  0.97500  0.23700  1.0000
  H   H10       1.0  0.28500  0.47500  0.26300  1.0000
  H   H11       1.0  0.50000  0.32000  0.30100  1.0000
  H   H12       1.0  0.95600  0.14800  0.30300  1.0000
  H   H13       1.0  0.21700  0.81900  0.30900  1.0000
  H   H14       1.0  0.72700  0.67700  0.31100  1.0000
  H   H15       1.0  0.79100  0.44100  0.35500  1.0000
  H   H16       1.0  0.28000  0.05510  0.35700  1.0000
  H   H17       1.0  0.74400  0.12100  0.42800  1.0000
  H   H18       1.0  0.26100  0.36800  0.44400  1.0000
  H   H19       1.0  0.76100  0.13200  0.55600  1.0000
  H   H20       1.0  0.24400  0.37900  0.57200  1.0000
  H   H21       1.0  0.78000  0.44500  0.64300  1.0000
  H   H22       1.0  0.29100  0.05910  0.64500  1.0000
  H   H23       1.0  0.22700  0.82300  0.68900  1.0000
  H   H24       1.0  0.71700  0.68100  0.69100  1.0000
  H   H25       1.0  0.45600  0.35200  0.69700  1.0000
  H   H26       1.0  0.00000  0.18000  0.69900  1.0000
  H   H27       1.0  0.78500  0.02540  0.73700  1.0000
  H   H28       1.0  0.21500  0.52500  0.76300  1.0000
  H   H29       1.0  0.00046  0.68000  0.80100  1.0000
  H   H30       1.0  0.54400  0.85200  0.80300  1.0000
  H   H31       1.0  0.28300  0.18100  0.80900  1.0000
  H   H32       1.0  0.77300  0.32300  0.81100  1.0000
  H   H33       1.0  0.70900  0.55900  0.85500  1.0000
  H   H34       1.0  0.22000  0.94500  0.85700  1.0000
  H   H35       1.0  0.75600  0.87900  0.92800  1.0000
  H   H36       1.0  0.23900  0.63200  0.94400  1.0000
  Na  Na1       1.0  0.51500  0.23300  0.00263  1.0000
  Na  Na2       1.0  0.48500  0.73300  0.49700  1.0000
  Na  Na3       1.0  0.98500  0.76700  0.50300  1.0000
  Na  Na4       1.0  0.01540  0.26700  0.99700  1.0000
  O   O1        1.0  0.29600  0.54800  0.00414  1.0000
  O   O2        1.0  0.76600  0.40500  0.12200  1.0000
  O   O3        1.0  0.24400  0.09480  0.12300  1.0000
  O   O4        1.0  0.66600  0.82700  0.19900  1.0000
  O   O5        1.0  0.20600  0.67500  0.20300  1.0000
  O   O6        1.0  0.79400  0.17500  0.29700  1.0000
  O   O7        1.0  0.33400  0.32700  0.30100  1.0000
  O   O8        1.0  0.75600  0.59500  0.37700  1.0000
  O   O9        1.0  0.23400  0.90500  0.37800  1.0000
  O   O10       1.0  0.70400  0.04810  0.49600  1.0000
  O   O11       1.0  0.20400  0.45200  0.50400  1.0000
  O   O12       1.0  0.73400  0.59500  0.62200  1.0000
  O   O13       1.0  0.25600  0.90500  0.62300  1.0000
  O   O14       1.0  0.83400  0.17300  0.69900  1.0000
  O   O15       1.0  0.29400  0.32500  0.70300  1.0000
  O   O16       1.0  0.70600  0.82500  0.79700  1.0000
  O   O17       1.0  0.16600  0.67300  0.80100  1.0000
  O   O18       1.0  0.74400  0.40500  0.87700  1.0000
  O   O19       1.0  0.26600  0.09470  0.87800  1.0000
  O   O20       1.0  0.79600  0.95200  0.99600  1.0000
