data_image0
_chemical_formula_structural       Hg32Rb30
_chemical_formula_sum              "Hg32 Rb30"
_cell_length_a       14.9119
_cell_length_b       14.9119
_cell_length_c       14.9119
_cell_angle_alpha    104.881
_cell_angle_beta     111.814
_cell_angle_gamma    111.814

_space_group_name_H-M_alt    "P 1"
_space_group_IT_number       1

loop_
  _space_group_symop_operation_xyz
  'x, y, z'

loop_
  _atom_site_type_symbol
  _atom_site_label
  _atom_site_symmetry_multiplicity
  _atom_site_fract_x
  _atom_site_fract_y
  _atom_site_fract_z
  _atom_site_occupancy
  Hg  Hg1       1.0  0.99700  0.39800  0.08430  1.0000
  Hg  Hg2       1.0  0.49200  0.40100  0.08530  1.0000
  Hg  Hg3       1.0  0.18500  0.58500  0.09370  1.0000
  Hg  Hg4       1.0  0.49700  0.91300  0.09910  1.0000
  Hg  Hg5       1.0  0.68500  0.09100  0.09930  1.0000
  Hg  Hg6       1.0  0.68700  0.59900  0.10200  1.0000
  Hg  Hg7       1.0  0.05990  0.93600  0.19900  1.0000
  Hg  Hg8       1.0  0.24100  0.12800  0.20100  1.0000
  Hg  Hg9       1.0  0.23700  0.30100  0.36100  1.0000
  Hg  Hg10      1.0  0.07370  0.11300  0.37200  1.0000
  Hg  Hg11      1.0  0.44000  0.13900  0.37600  1.0000
  Hg  Hg12      1.0  0.25900  0.96000  0.38700  1.0000
  Hg  Hg13      1.0  0.00839  0.59400  0.40900  1.0000
  Hg  Hg14      1.0  0.81300  0.41600  0.41300  1.0000
  Hg  Hg15      1.0  0.73700  0.87600  0.43600  1.0000
  Hg  Hg16      1.0  0.57400  0.70100  0.46000  1.0000
  Hg  Hg17      1.0  0.42600  0.29900  0.54000  1.0000
  Hg  Hg18      1.0  0.26300  0.12400  0.56400  1.0000
  Hg  Hg19      1.0  0.18700  0.58400  0.58700  1.0000
  Hg  Hg20      1.0  0.99200  0.40600  0.59100  1.0000
  Hg  Hg21      1.0  0.74100  0.03970  0.61300  1.0000
  Hg  Hg22      1.0  0.56000  0.86100  0.62400  1.0000
  Hg  Hg23      1.0  0.92600  0.88700  0.62800  1.0000
  Hg  Hg24      1.0  0.76300  0.69900  0.63900  1.0000
  Hg  Hg25      1.0  0.75900  0.87200  0.79900  1.0000
  Hg  Hg26      1.0  0.94000  0.06440  0.80100  1.0000
  Hg  Hg27      1.0  0.31300  0.40100  0.89800  1.0000
  Hg  Hg28      1.0  0.31500  0.90900  0.90100  1.0000
  Hg  Hg29      1.0  0.50300  0.08740  0.90100  1.0000
  Hg  Hg30      1.0  0.81500  0.41500  0.90600  1.0000
  Hg  Hg31      1.0  0.50800  0.59900  0.91500  1.0000
  Hg  Hg32      1.0  0.00313  0.60200  0.91600  1.0000
  Rb  Rb1       1.0  0.20700  0.31400  0.07100  1.0000
  Rb  Rb2       1.0  0.95300  0.08880  0.08970  1.0000
  Rb  Rb3       1.0  0.25000  0.86900  0.11900  1.0000
  Rb  Rb4       1.0  0.75000  0.37500  0.12500  1.0000
  Rb  Rb5       1.0  0.48500  0.17100  0.14800  1.0000
  Rb  Rb6       1.0  0.47700  0.64800  0.16300  1.0000
  Rb  Rb7       1.0  0.01480  0.66300  0.18600  1.0000
  Rb  Rb8       1.0  0.75700  0.89300  0.18600  1.0000
  Rb  Rb9       1.0  0.97700  0.31400  0.32900  1.0000
  Rb  Rb10      1.0  0.25700  0.57100  0.36400  1.0000
  Rb  Rb11      1.0  0.49900  0.41000  0.36400  1.0000
  Rb  Rb12      1.0  0.45300  0.86400  0.36500  1.0000
  Rb  Rb13      1.0  0.75000  0.61900  0.36900  1.0000
  Rb  Rb14      1.0  0.70700  0.13600  0.39300  1.0000
  Rb  Rb15      1.0  0.00093  0.86500  0.41100  1.0000
  Rb  Rb16      1.0  0.99900  0.13500  0.58900  1.0000
  Rb  Rb17      1.0  0.29300  0.86400  0.60700  1.0000
  Rb  Rb18      1.0  0.25000  0.38100  0.63100  1.0000
  Rb  Rb19      1.0  0.54700  0.13600  0.63500  1.0000
  Rb  Rb20      1.0  0.50100  0.59000  0.63600  1.0000
  Rb  Rb21      1.0  0.74300  0.42900  0.63600  1.0000
  Rb  Rb22      1.0  0.02290  0.68600  0.67100  1.0000
  Rb  Rb23      1.0  0.24300  0.10700  0.81400  1.0000
  Rb  Rb24      1.0  0.98500  0.33700  0.81400  1.0000
  Rb  Rb25      1.0  0.52300  0.35200  0.83700  1.0000
  Rb  Rb26      1.0  0.51500  0.82900  0.85200  1.0000
  Rb  Rb27      1.0  0.25000  0.62500  0.87500  1.0000
  Rb  Rb28      1.0  0.75000  0.13100  0.88100  1.0000
  Rb  Rb29      1.0  0.04660  0.91100  0.91000  1.0000
  Rb  Rb30      1.0  0.79300  0.68600  0.92900  1.0000
