data_image0
_chemical_formula_structural       Ba4H8O36Re8
_chemical_formula_sum              "Ba4 H8 O36 Re8"
_cell_length_a       7.14922
_cell_length_b       7.39888
_cell_length_c       15.2938
_cell_angle_alpha    89.8232
_cell_angle_beta     95.7594
_cell_angle_gamma    90.5033

_space_group_name_H-M_alt    "P 1"
_space_group_IT_number       1

loop_
  _space_group_symop_operation_xyz
  'x, y, z'

loop_
  _atom_site_type_symbol
  _atom_site_label
  _atom_site_symmetry_multiplicity
  _atom_site_fract_x
  _atom_site_fract_y
  _atom_site_fract_z
  _atom_site_occupancy
  Ba  Ba1       1.0  0.27700  0.31800  0.14100  1.0000
  Ba  Ba2       1.0  0.71600  0.30900  0.36000  1.0000
  Ba  Ba3       1.0  0.28400  0.69100  0.64000  1.0000
  Ba  Ba4       1.0  0.72300  0.68200  0.85900  1.0000
  H   H1        1.0  0.57500  0.00028  0.21300  1.0000
  H   H2        1.0  0.91400  0.04660  0.21900  1.0000
  H   H3        1.0  0.41700  0.99300  0.27700  1.0000
  H   H4        1.0  0.07730  0.06830  0.29100  1.0000
  H   H5        1.0  0.92300  0.93200  0.70900  1.0000
  H   H6        1.0  0.58300  0.00719  0.72300  1.0000
  H   H7        1.0  0.08570  0.95300  0.78100  1.0000
  H   H8        1.0  0.42500  0.00000  0.78700  1.0000
  O   O1        1.0  0.71300  0.62700  0.03390  1.0000
  O   O2        1.0  0.93300  0.30500  0.03950  1.0000
  O   O3        1.0  0.18900  0.00690  0.05860  1.0000
  O   O4        1.0  0.57800  0.15300  0.06390  1.0000
  O   O5        1.0  0.37200  0.67200  0.09950  1.0000
  O   O6        1.0  0.02280  0.59500  0.16200  1.0000
  O   O7        1.0  0.74900  0.85900  0.18500  1.0000
  O   O8        1.0  0.65700  0.47000  0.20000  1.0000
  O   O9        1.0  0.49700  0.07870  0.24700  1.0000
  O   O10       1.0  0.99100  0.14100  0.25200  1.0000
  O   O11       1.0  0.24400  0.85300  0.30400  1.0000
  O   O12       1.0  0.32100  0.46500  0.30700  1.0000
  O   O13       1.0  0.95600  0.60700  0.33700  1.0000
  O   O14       1.0  0.62000  0.65100  0.41400  1.0000
  O   O15       1.0  0.82000  0.98600  0.43200  1.0000
  O   O16       1.0  0.41800  0.13000  0.43500  1.0000
  O   O17       1.0  0.07430  0.30500  0.45000  1.0000
  O   O18       1.0  0.26500  0.66000  0.46400  1.0000
  O   O19       1.0  0.73500  0.34000  0.53600  1.0000
  O   O20       1.0  0.92600  0.69500  0.55000  1.0000
  O   O21       1.0  0.58200  0.87000  0.56500  1.0000
  O   O22       1.0  0.18000  0.01370  0.56800  1.0000
  O   O23       1.0  0.38000  0.34900  0.58600  1.0000
  O   O24       1.0  0.04430  0.39300  0.66300  1.0000
  O   O25       1.0  0.67900  0.53500  0.69300  1.0000
  O   O26       1.0  0.75600  0.14700  0.69600  1.0000
  O   O27       1.0  0.00903  0.85900  0.74800  1.0000
  O   O28       1.0  0.50300  0.92100  0.75300  1.0000
  O   O29       1.0  0.34300  0.53000  0.80000  1.0000
  O   O30       1.0  0.25100  0.14100  0.81500  1.0000
  O   O31       1.0  0.97700  0.40500  0.83800  1.0000
  O   O32       1.0  0.62800  0.32800  0.90000  1.0000
  O   O33       1.0  0.42200  0.84700  0.93600  1.0000
  O   O34       1.0  0.81100  0.99300  0.94100  1.0000
  O   O35       1.0  0.06710  0.69500  0.96100  1.0000
  O   O36       1.0  0.28700  0.37300  0.96600  1.0000
  Re  Re1       1.0  0.26300  0.80600  0.01380  1.0000
  Re  Re2       1.0  0.78100  0.63800  0.14600  1.0000
  Re  Re3       1.0  0.19900  0.64300  0.35200  1.0000
  Re  Re4       1.0  0.73700  0.80200  0.49000  1.0000
  Re  Re5       1.0  0.26300  0.19800  0.51000  1.0000
  Re  Re6       1.0  0.80100  0.35700  0.64800  1.0000
  Re  Re7       1.0  0.21900  0.36200  0.85400  1.0000
  Re  Re8       1.0  0.73700  0.19400  0.98600  1.0000
