data_image0
_chemical_formula_structural       Al8Na28O26
_chemical_formula_sum              "Al8 Na28 O26"
_cell_length_a       5.96003
_cell_length_b       26.9935
_cell_length_c       5.92132
_cell_angle_alpha    90
_cell_angle_beta     120.183
_cell_angle_gamma    90

_space_group_name_H-M_alt    "P 1"
_space_group_IT_number       1

loop_
  _space_group_symop_operation_xyz
  'x, y, z'

loop_
  _atom_site_type_symbol
  _atom_site_label
  _atom_site_symmetry_multiplicity
  _atom_site_fract_x
  _atom_site_fract_y
  _atom_site_fract_z
  _atom_site_occupancy
  Al  Al1       1.0  0.15600  0.83400  0.15600  1.0000
  Al  Al2       1.0  0.16700  0.05510  0.16600  1.0000
  Al  Al3       1.0  0.83300  0.55500  0.33400  1.0000
  Al  Al4       1.0  0.84400  0.33400  0.34400  1.0000
  Al  Al5       1.0  0.15600  0.66600  0.65600  1.0000
  Al  Al6       1.0  0.16700  0.44500  0.66600  1.0000
  Al  Al7       1.0  0.83300  0.94500  0.83400  1.0000
  Al  Al8       1.0  0.84400  0.16600  0.84400  1.0000
  Na  Na1       1.0  0.63200  0.66000  0.13700  1.0000
  Na  Na2       1.0  0.65200  0.44700  0.15000  1.0000
  Na  Na3       1.0  0.74700  0.88800  0.21200  1.0000
  Na  Na4       1.0  0.78000  0.22600  0.22200  1.0000
  Na  Na5       1.0  0.76700  0.00035  0.23200  1.0000
  Na  Na6       1.0  0.78700  0.78100  0.23800  1.0000
  Na  Na7       1.0  0.78500  0.11300  0.24700  1.0000
  Na  Na8       1.0  0.21500  0.61300  0.25300  1.0000
  Na  Na9       1.0  0.21300  0.28100  0.26200  1.0000
  Na  Na10      1.0  0.23300  0.50000  0.26800  1.0000
  Na  Na11      1.0  0.22000  0.72600  0.27800  1.0000
  Na  Na12      1.0  0.25300  0.38800  0.28800  1.0000
  Na  Na13      1.0  0.34800  0.94700  0.35000  1.0000
  Na  Na14      1.0  0.36800  0.16000  0.36300  1.0000
  Na  Na15      1.0  0.63200  0.84000  0.63700  1.0000
  Na  Na16      1.0  0.65200  0.05330  0.65000  1.0000
  Na  Na17      1.0  0.74700  0.61200  0.71200  1.0000
  Na  Na18      1.0  0.78000  0.27400  0.72200  1.0000
  Na  Na19      1.0  0.76700  0.50000  0.73200  1.0000
  Na  Na20      1.0  0.78700  0.71900  0.73800  1.0000
  Na  Na21      1.0  0.78500  0.38700  0.74700  1.0000
  Na  Na22      1.0  0.21500  0.88700  0.75300  1.0000
  Na  Na23      1.0  0.21300  0.21900  0.76200  1.0000
  Na  Na24      1.0  0.23300  0.00000  0.76800  1.0000
  Na  Na25      1.0  0.22000  0.77400  0.77800  1.0000
  Na  Na26      1.0  0.25300  0.11200  0.78800  1.0000
  Na  Na27      1.0  0.34800  0.55300  0.85000  1.0000
  Na  Na28      1.0  0.36800  0.34000  0.86300  1.0000
  O   O1        1.0  0.00000  0.00000  0.00000  1.0000
  O   O2        1.0  0.81700  0.55700  0.02980  1.0000
  O   O3        1.0  0.02960  0.89500  0.03100  1.0000
  O   O4        1.0  0.81800  0.32900  0.03470  1.0000
  O   O5        1.0  0.06650  0.21000  0.05760  1.0000
  O   O6        1.0  0.45600  0.82800  0.16700  1.0000
  O   O7        1.0  0.46800  0.05730  0.18200  1.0000
  O   O8        1.0  0.53200  0.55700  0.31800  1.0000
  O   O9        1.0  0.54400  0.32800  0.33300  1.0000
  O   O10       1.0  0.93400  0.71000  0.44200  1.0000
  O   O11       1.0  0.18200  0.82900  0.46500  1.0000
  O   O12       1.0  0.97000  0.39500  0.46900  1.0000
  O   O13       1.0  0.18300  0.05730  0.47000  1.0000
  O   O14       1.0  0.00000  0.50000  0.50000  1.0000
  O   O15       1.0  0.81700  0.94300  0.53000  1.0000
  O   O16       1.0  0.02960  0.60500  0.53100  1.0000
  O   O17       1.0  0.81800  0.17100  0.53500  1.0000
  O   O18       1.0  0.06650  0.29000  0.55800  1.0000
  O   O19       1.0  0.45600  0.67200  0.66700  1.0000
  O   O20       1.0  0.46800  0.44300  0.68200  1.0000
  O   O21       1.0  0.53200  0.94300  0.81800  1.0000
  O   O22       1.0  0.54400  0.17200  0.83300  1.0000
  O   O23       1.0  0.93400  0.79000  0.94200  1.0000
  O   O24       1.0  0.18200  0.67100  0.96500  1.0000
  O   O25       1.0  0.97000  0.10500  0.96900  1.0000
  O   O26       1.0  0.18300  0.44300  0.97000  1.0000
