data_image0
_chemical_formula_structural       Cs8O38S8V4
_chemical_formula_sum              "Cs8 O38 S8 V4"
_cell_length_a       7.9586
_cell_length_b       10.9754
_cell_length_c       11.5473
_cell_angle_alpha    79.3035
_cell_angle_beta     87.9853
_cell_angle_gamma    75.4342

_space_group_name_H-M_alt    "P 1"
_space_group_IT_number       1

loop_
  _space_group_symop_operation_xyz
  'x, y, z'

loop_
  _atom_site_type_symbol
  _atom_site_label
  _atom_site_symmetry_multiplicity
  _atom_site_fract_x
  _atom_site_fract_y
  _atom_site_fract_z
  _atom_site_occupancy
  Cs  Cs1       1.0  0.18400  0.80900  0.09700  1.0000
  Cs  Cs2       1.0  0.24300  0.28400  0.11100  1.0000
  Cs  Cs3       1.0  0.53200  0.77700  0.41500  1.0000
  Cs  Cs4       1.0  0.96000  0.30500  0.49200  1.0000
  Cs  Cs5       1.0  0.04050  0.69500  0.50800  1.0000
  Cs  Cs6       1.0  0.46800  0.22300  0.58500  1.0000
  Cs  Cs7       1.0  0.75700  0.71600  0.88900  1.0000
  Cs  Cs8       1.0  0.81600  0.19100  0.90300  1.0000
  O   O1        1.0  0.78800  0.91600  0.03570  1.0000
  O   O2        1.0  0.66800  0.40300  0.04340  1.0000
  O   O3        1.0  0.98600  0.60300  0.12000  1.0000
  O   O4        1.0  0.62000  0.09230  0.13000  1.0000
  O   O5        1.0  0.51900  0.89600  0.13900  1.0000
  O   O6        1.0  0.68100  0.59900  0.16500  1.0000
  O   O7        1.0  0.99500  0.07850  0.19500  1.0000
  O   O8        1.0  0.41600  0.47600  0.19500  1.0000
  O   O9        1.0  0.89800  0.41400  0.22800  1.0000
  O   O10       1.0  0.77300  0.90600  0.25100  1.0000
  O   O11       1.0  0.69100  0.25500  0.25500  1.0000
  O   O12       1.0  0.88200  0.60000  0.32300  1.0000
  O   O13       1.0  0.30400  0.62500  0.32900  1.0000
  O   O14       1.0  0.17400  0.89900  0.33300  1.0000
  O   O15       1.0  0.16900  0.11900  0.34800  1.0000
  O   O16       1.0  0.27500  0.40500  0.37800  1.0000
  O   O17       1.0  0.56500  0.44900  0.37800  1.0000
  O   O18       1.0  0.56500  0.07180  0.38000  1.0000
  O   O19       1.0  0.90900  0.03730  0.39500  1.0000
  O   O20       1.0  0.09130  0.96300  0.60500  1.0000
  O   O21       1.0  0.43500  0.92800  0.62000  1.0000
  O   O22       1.0  0.43500  0.55100  0.62200  1.0000
  O   O23       1.0  0.72500  0.59500  0.62200  1.0000
  O   O24       1.0  0.83100  0.88100  0.65200  1.0000
  O   O25       1.0  0.82600  0.10100  0.66700  1.0000
  O   O26       1.0  0.69600  0.37500  0.67100  1.0000
  O   O27       1.0  0.11800  0.40000  0.67700  1.0000
  O   O28       1.0  0.30900  0.74500  0.74500  1.0000
  O   O29       1.0  0.22700  0.09360  0.74900  1.0000
  O   O30       1.0  0.10200  0.58600  0.77200  1.0000
  O   O31       1.0  0.58400  0.52400  0.80500  1.0000
  O   O32       1.0  0.00507  0.92200  0.80500  1.0000
  O   O33       1.0  0.31900  0.40100  0.83500  1.0000
  O   O34       1.0  0.48100  0.10400  0.86100  1.0000
  O   O35       1.0  0.38000  0.90800  0.87000  1.0000
  O   O36       1.0  0.01440  0.39700  0.88000  1.0000
  O   O37       1.0  0.33200  0.59700  0.95700  1.0000
  O   O38       1.0  0.21200  0.08400  0.96400  1.0000
  S   S1        1.0  0.67200  0.94600  0.13200  1.0000
  S   S2        1.0  0.87100  0.56200  0.21100  1.0000
  S   S3        1.0  0.07650  0.03290  0.31400  1.0000
  S   S4        1.0  0.38500  0.49000  0.33000  1.0000
  S   S5        1.0  0.61500  0.51000  0.67000  1.0000
  S   S6        1.0  0.92300  0.96700  0.68600  1.0000
  S   S7        1.0  0.12900  0.43800  0.78900  1.0000
  S   S8        1.0  0.32800  0.05450  0.86800  1.0000
  V   V1        1.0  0.65800  0.41700  0.18000  1.0000
  V   V2        1.0  0.72000  0.08550  0.28800  1.0000
  V   V3        1.0  0.28000  0.91500  0.71200  1.0000
  V   V4        1.0  0.34200  0.58300  0.82000  1.0000
