data_image0
_chemical_formula_structural       Cs4F44Sb8
_chemical_formula_sum              "Cs4 F44 Sb8"
_cell_length_a       7.33076
_cell_length_b       13.2585
_cell_length_c       8.80664
_cell_angle_alpha    90
_cell_angle_beta     114.23
_cell_angle_gamma    90

_space_group_name_H-M_alt    "P 1"
_space_group_IT_number       1

loop_
  _space_group_symop_operation_xyz
  'x, y, z'

loop_
  _atom_site_type_symbol
  _atom_site_label
  _atom_site_symmetry_multiplicity
  _atom_site_fract_x
  _atom_site_fract_y
  _atom_site_fract_z
  _atom_site_occupancy
  Cs  Cs1       1.0  0.50900  0.13500  0.22300  1.0000
  Cs  Cs2       1.0  0.99100  0.63500  0.27700  1.0000
  Cs  Cs3       1.0  0.00923  0.36500  0.72300  1.0000
  Cs  Cs4       1.0  0.49100  0.86500  0.77700  1.0000
  F   F1        1.0  0.12900  0.62600  0.01470  1.0000
  F   F2        1.0  0.78000  0.19000  0.06650  1.0000
  F   F3        1.0  0.72100  0.97900  0.08180  1.0000
  F   F4        1.0  0.27300  0.41200  0.08410  1.0000
  F   F5        1.0  0.98400  0.83500  0.11500  1.0000
  F   F6        1.0  0.59900  0.75600  0.11800  1.0000
  F   F7        1.0  0.55400  0.55900  0.13700  1.0000
  F   F8        1.0  0.12000  0.03790  0.14600  1.0000
  F   F9        1.0  0.64700  0.36200  0.14800  1.0000
  F   F10       1.0  0.45000  0.92100  0.20000  1.0000
  F   F11       1.0  0.16500  0.24200  0.21600  1.0000
  F   F12       1.0  0.33500  0.74200  0.28400  1.0000
  F   F13       1.0  0.04990  0.42100  0.30000  1.0000
  F   F14       1.0  0.85300  0.86200  0.35200  1.0000
  F   F15       1.0  0.38000  0.53800  0.35400  1.0000
  F   F16       1.0  0.94600  0.05900  0.36300  1.0000
  F   F17       1.0  0.90100  0.25600  0.38200  1.0000
  F   F18       1.0  0.51600  0.33500  0.38500  1.0000
  F   F19       1.0  0.22700  0.91200  0.41600  1.0000
  F   F20       1.0  0.77900  0.47900  0.41800  1.0000
  F   F21       1.0  0.72000  0.69000  0.43400  1.0000
  F   F22       1.0  0.37100  0.12600  0.48500  1.0000
  F   F23       1.0  0.62900  0.87400  0.51500  1.0000
  F   F24       1.0  0.28000  0.31000  0.56600  1.0000
  F   F25       1.0  0.22100  0.52100  0.58200  1.0000
  F   F26       1.0  0.77300  0.08820  0.58400  1.0000
  F   F27       1.0  0.48400  0.66500  0.61500  1.0000
  F   F28       1.0  0.09920  0.74400  0.61800  1.0000
  F   F29       1.0  0.05390  0.94100  0.63700  1.0000
  F   F30       1.0  0.62000  0.46200  0.64600  1.0000
  F   F31       1.0  0.14700  0.13800  0.64800  1.0000
  F   F32       1.0  0.95000  0.57900  0.70000  1.0000
  F   F33       1.0  0.66500  0.25800  0.71600  1.0000
  F   F34       1.0  0.83500  0.75800  0.78400  1.0000
  F   F35       1.0  0.55000  0.07860  0.80000  1.0000
  F   F36       1.0  0.35300  0.63800  0.85200  1.0000
  F   F37       1.0  0.88000  0.96200  0.85400  1.0000
  F   F38       1.0  0.44600  0.44100  0.86300  1.0000
  F   F39       1.0  0.40100  0.24400  0.88200  1.0000
  F   F40       1.0  0.01590  0.16500  0.88500  1.0000
  F   F41       1.0  0.72700  0.58800  0.91600  1.0000
  F   F42       1.0  0.27900  0.02150  0.91800  1.0000
  F   F43       1.0  0.22000  0.81000  0.93400  1.0000
  F   F44       1.0  0.87100  0.37400  0.98500  1.0000
  Sb  Sb1       1.0  0.92300  0.30400  0.18600  1.0000
  Sb  Sb2       1.0  0.98700  0.95300  0.23800  1.0000
  Sb  Sb3       1.0  0.51300  0.45300  0.26200  1.0000
  Sb  Sb4       1.0  0.57700  0.80400  0.31400  1.0000
  Sb  Sb5       1.0  0.42300  0.19600  0.68600  1.0000
  Sb  Sb6       1.0  0.48700  0.54700  0.73800  1.0000
  Sb  Sb7       1.0  0.01270  0.04720  0.76200  1.0000
  Sb  Sb8       1.0  0.07730  0.69600  0.81400  1.0000
