data_image0
_chemical_formula_structural       GdMo16O44
_chemical_formula_sum              "Gd1 Mo16 O44"
_cell_length_a       10.7215
_cell_length_b       10.7215
_cell_length_c       11.0689
_cell_angle_alpha    61.0329
_cell_angle_beta     118.967
_cell_angle_gamma    120

_space_group_name_H-M_alt    "P 1"
_space_group_IT_number       1

loop_
  _space_group_symop_operation_xyz
  'x, y, z'

loop_
  _atom_site_type_symbol
  _atom_site_label
  _atom_site_symmetry_multiplicity
  _atom_site_fract_x
  _atom_site_fract_y
  _atom_site_fract_z
  _atom_site_occupancy
  Gd  Gd1       1.0  0.00000  0.00000  0.00000  1.0000
  Mo  Mo1       1.0  0.42900  0.11800  0.14200  1.0000
  Mo  Mo2       1.0  0.88200  0.16900  0.14200  1.0000
  Mo  Mo3       1.0  0.83100  0.57100  0.14200  1.0000
  Mo  Mo4       1.0  0.38200  0.61800  0.14600  1.0000
  Mo  Mo5       1.0  0.57200  0.33200  0.38100  1.0000
  Mo  Mo6       1.0  0.14100  0.42800  0.38100  1.0000
  Mo  Mo7       1.0  0.66800  0.85900  0.38100  1.0000
  Mo  Mo8       1.0  0.14600  0.85400  0.43800  1.0000
  Mo  Mo9       1.0  0.85400  0.14600  0.56200  1.0000
  Mo  Mo10      1.0  0.33200  0.14100  0.61900  1.0000
  Mo  Mo11      1.0  0.85900  0.57200  0.61900  1.0000
  Mo  Mo12      1.0  0.42800  0.66800  0.61900  1.0000
  Mo  Mo13      1.0  0.61800  0.38200  0.85400  1.0000
  Mo  Mo14      1.0  0.16900  0.42900  0.85800  1.0000
  Mo  Mo15      1.0  0.11800  0.83100  0.85800  1.0000
  Mo  Mo16      1.0  0.57100  0.88200  0.85800  1.0000
  O   O1        1.0  0.23100  0.49400  0.00682  1.0000
  O   O2        1.0  0.50600  0.73000  0.00682  1.0000
  O   O3        1.0  0.27000  0.76900  0.00682  1.0000
  O   O4        1.0  0.01180  0.18200  0.07870  1.0000
  O   O5        1.0  0.81800  0.75200  0.07870  1.0000
  O   O6        1.0  0.24800  0.98800  0.07870  1.0000
  O   O7        1.0  0.08240  0.91800  0.24700  1.0000
  O   O8        1.0  0.42400  0.19500  0.25100  1.0000
  O   O9        1.0  0.02260  0.57600  0.25100  1.0000
  O   O10       1.0  0.80500  0.97700  0.25100  1.0000
  O   O11       1.0  0.56700  0.02480  0.25100  1.0000
  O   O12       1.0  0.97500  0.29000  0.25100  1.0000
  O   O13       1.0  0.71000  0.43300  0.25100  1.0000
  O   O14       1.0  0.47900  0.47600  0.25800  1.0000
  O   O15       1.0  0.25500  0.52100  0.25800  1.0000
  O   O16       1.0  0.52400  0.74500  0.25800  1.0000
  O   O17       1.0  0.45000  0.23000  0.49900  1.0000
  O   O18       1.0  0.27800  0.55000  0.49900  1.0000
  O   O19       1.0  0.77000  0.72200  0.49900  1.0000
  O   O20       1.0  0.82800  0.00636  0.49900  1.0000
  O   O21       1.0  0.67700  0.17200  0.49900  1.0000
  O   O22       1.0  0.99400  0.32300  0.49900  1.0000
  O   O23       1.0  0.00636  0.67700  0.50100  1.0000
  O   O24       1.0  0.32300  0.82800  0.50100  1.0000
  O   O25       1.0  0.17200  0.99400  0.50100  1.0000
  O   O26       1.0  0.23000  0.27800  0.50100  1.0000
  O   O27       1.0  0.72200  0.45000  0.50100  1.0000
  O   O28       1.0  0.55000  0.77000  0.50100  1.0000
  O   O29       1.0  0.47600  0.25500  0.74200  1.0000
  O   O30       1.0  0.74500  0.47900  0.74200  1.0000
  O   O31       1.0  0.52100  0.52400  0.74200  1.0000
  O   O32       1.0  0.29000  0.56700  0.74900  1.0000
  O   O33       1.0  0.02480  0.71000  0.74900  1.0000
  O   O34       1.0  0.43300  0.97500  0.74900  1.0000
  O   O35       1.0  0.19500  0.02260  0.74900  1.0000
  O   O36       1.0  0.97700  0.42400  0.74900  1.0000
  O   O37       1.0  0.57600  0.80500  0.74900  1.0000
  O   O38       1.0  0.91800  0.08240  0.75300  1.0000
  O   O39       1.0  0.75200  0.01180  0.92100  1.0000
  O   O40       1.0  0.18200  0.24800  0.92100  1.0000
  O   O41       1.0  0.98800  0.81800  0.92100  1.0000
  O   O42       1.0  0.73000  0.23100  0.99300  1.0000
  O   O43       1.0  0.49400  0.27000  0.99300  1.0000
  O   O44       1.0  0.76900  0.50600  0.99300  1.0000
