data_image0
_chemical_formula_structural       H18O30P6Zn5
_chemical_formula_sum              "H18 O30 P6 Zn5"
_cell_length_a       7.96693
_cell_length_b       9.5338
_cell_length_c       9.81663
_cell_angle_alpha    112.551
_cell_angle_beta     113.805
_cell_angle_gamma    95.0253

_space_group_name_H-M_alt    "P 1"
_space_group_IT_number       1

loop_
  _space_group_symop_operation_xyz
  'x, y, z'

loop_
  _atom_site_type_symbol
  _atom_site_label
  _atom_site_symmetry_multiplicity
  _atom_site_fract_x
  _atom_site_fract_y
  _atom_site_fract_z
  _atom_site_occupancy
  H   H1        1.0  0.55200  0.36600  0.02790  1.0000
  H   H2        1.0  0.62700  0.05240  0.16300  1.0000
  H   H3        1.0  0.96900  0.39800  0.22000  1.0000
  H   H4        1.0  0.96100  0.56500  0.23500  1.0000
  H   H5        1.0  0.26500  0.21700  0.27900  1.0000
  H   H6        1.0  0.68600  0.37400  0.33600  1.0000
  H   H7        1.0  0.91200  0.07200  0.39300  1.0000
  H   H8        1.0  0.29300  0.22300  0.45000  1.0000
  H   H9        1.0  0.19100  0.58500  0.46800  1.0000
  H   H10       1.0  0.80900  0.41500  0.53100  1.0000
  H   H11       1.0  0.70700  0.77700  0.55000  1.0000
  H   H12       1.0  0.08760  0.92800  0.60700  1.0000
  H   H13       1.0  0.31400  0.62600  0.66400  1.0000
  H   H14       1.0  0.73500  0.78300  0.72100  1.0000
  H   H15       1.0  0.03840  0.43500  0.76500  1.0000
  H   H16       1.0  0.03120  0.60200  0.78000  1.0000
  H   H17       1.0  0.37300  0.94800  0.83700  1.0000
  H   H18       1.0  0.44800  0.63400  0.97200  1.0000
  O   O1        1.0  0.88600  0.21200  0.02770  1.0000
  O   O2        1.0  0.82100  0.61100  0.02910  1.0000
  O   O3        1.0  0.21500  0.08790  0.06820  1.0000
  O   O4        1.0  0.52000  0.37000  0.12000  1.0000
  O   O5        1.0  0.46000  0.62900  0.13000  1.0000
  O   O6        1.0  0.45900  0.95000  0.14800  1.0000
  O   O7        1.0  0.73400  0.12000  0.16300  1.0000
  O   O8        1.0  0.35600  0.50100  0.28200  1.0000
  O   O9        1.0  0.98800  0.95000  0.29500  1.0000
  O   O10       1.0  0.98300  0.50600  0.30000  1.0000
  O   O11       1.0  0.23000  0.80000  0.30700  1.0000
  O   O12       1.0  0.28000  0.28800  0.39000  1.0000
  O   O13       1.0  0.67500  0.37400  0.43200  1.0000
  O   O14       1.0  0.68100  0.91100  0.47300  1.0000
  O   O15       1.0  0.87800  0.14400  0.48000  1.0000
  O   O16       1.0  0.12200  0.85600  0.52000  1.0000
  O   O17       1.0  0.31900  0.08950  0.52700  1.0000
  O   O18       1.0  0.32400  0.62600  0.56800  1.0000
  O   O19       1.0  0.72000  0.71100  0.61000  1.0000
  O   O20       1.0  0.77000  0.20000  0.69300  1.0000
  O   O21       1.0  0.01680  0.49400  0.69900  1.0000
  O   O22       1.0  0.01170  0.04990  0.70500  1.0000
  O   O23       1.0  0.64400  0.49900  0.71800  1.0000
  O   O24       1.0  0.26600  0.88000  0.83700  1.0000
  O   O25       1.0  0.54100  0.05000  0.85200  1.0000
  O   O26       1.0  0.54000  0.37100  0.87000  1.0000
  O   O27       1.0  0.48000  0.63000  0.88000  1.0000
  O   O28       1.0  0.78500  0.91200  0.93200  1.0000
  O   O29       1.0  0.18000  0.38900  0.97100  1.0000
  O   O30       1.0  0.11400  0.78800  0.97200  1.0000
  P   P1        1.0  0.26100  0.92900  0.00621  1.0000
  P   P2        1.0  0.37800  0.47500  0.12700  1.0000
  P   P3        1.0  0.17000  0.92600  0.41600  1.0000
  P   P4        1.0  0.83000  0.07410  0.58400  1.0000
  P   P5        1.0  0.62200  0.52500  0.87300  1.0000
  P   P6        1.0  0.73900  0.07070  0.99400  1.0000
  Zn  Zn1       1.0  0.93800  0.81800  0.06490  1.0000
  Zn  Zn2       1.0  0.44500  0.83200  0.26900  1.0000
  Zn  Zn3       1.0  0.50000  0.50000  0.50000  1.0000
  Zn  Zn4       1.0  0.55500  0.16800  0.73100  1.0000
  Zn  Zn5       1.0  0.06190  0.18200  0.93500  1.0000
