data_image0
_chemical_formula_structural       C4F16H24N12Sb4
_chemical_formula_sum              "C4 F16 H24 N12 Sb4"
_cell_length_a       4.70936
_cell_length_b       10.1505
_cell_length_c       11.2988
_cell_angle_alpha    90
_cell_angle_beta     90
_cell_angle_gamma    90

_space_group_name_H-M_alt    "P 1"
_space_group_IT_number       1

loop_
  _space_group_symop_operation_xyz
  'x, y, z'

loop_
  _atom_site_type_symbol
  _atom_site_label
  _atom_site_symmetry_multiplicity
  _atom_site_fract_x
  _atom_site_fract_y
  _atom_site_fract_z
  _atom_site_occupancy
  C   C1        1.0  0.35500  0.66000  0.16100  1.0000
  C   C2        1.0  0.64500  0.16000  0.33900  1.0000
  C   C3        1.0  0.14500  0.34000  0.66100  1.0000
  C   C4        1.0  0.85500  0.84000  0.83900  1.0000
  F   F1        1.0  0.56500  0.93500  0.03080  1.0000
  F   F2        1.0  0.68300  0.40500  0.05470  1.0000
  F   F3        1.0  0.16400  0.28300  0.10800  1.0000
  F   F4        1.0  0.17500  0.03150  0.17300  1.0000
  F   F5        1.0  0.82500  0.53100  0.32700  1.0000
  F   F6        1.0  0.83600  0.78300  0.39200  1.0000
  F   F7        1.0  0.31700  0.90500  0.44500  1.0000
  F   F8        1.0  0.43500  0.43500  0.46900  1.0000
  F   F9        1.0  0.93500  0.06530  0.53100  1.0000
  F   F10       1.0  0.81700  0.59500  0.55500  1.0000
  F   F11       1.0  0.33600  0.71700  0.60800  1.0000
  F   F12       1.0  0.32500  0.96900  0.67300  1.0000
  F   F13       1.0  0.67500  0.46900  0.82700  1.0000
  F   F14       1.0  0.66400  0.21700  0.89200  1.0000
  F   F15       1.0  0.18300  0.09510  0.94500  1.0000
  F   F16       1.0  0.06500  0.56500  0.96900  1.0000
  H   H1        1.0  0.68400  0.60200  0.05680  1.0000
  H   H2        1.0  0.61900  0.77500  0.06260  1.0000
  H   H3        1.0  0.38800  0.46100  0.15700  1.0000
  H   H4        1.0  0.24600  0.85600  0.17700  1.0000
  H   H5        1.0  0.95000  0.24900  0.23500  1.0000
  H   H6        1.0  0.10100  0.52300  0.23700  1.0000
  H   H7        1.0  0.89900  0.02340  0.26300  1.0000
  H   H8        1.0  0.04970  0.74900  0.26500  1.0000
  H   H9        1.0  0.75400  0.35600  0.32300  1.0000
  H   H10       1.0  0.61200  0.96100  0.34300  1.0000
  H   H11       1.0  0.38100  0.27500  0.43700  1.0000
  H   H12       1.0  0.31600  0.10200  0.44300  1.0000
  H   H13       1.0  0.81600  0.39800  0.55700  1.0000
  H   H14       1.0  0.88100  0.22500  0.56300  1.0000
  H   H15       1.0  0.11200  0.53900  0.65700  1.0000
  H   H16       1.0  0.25400  0.14400  0.67700  1.0000
  H   H17       1.0  0.55000  0.75100  0.73500  1.0000
  H   H18       1.0  0.39900  0.47700  0.73700  1.0000
  H   H19       1.0  0.60100  0.97700  0.76300  1.0000
  H   H20       1.0  0.45000  0.25100  0.76500  1.0000
  H   H21       1.0  0.74600  0.64400  0.82300  1.0000
  H   H22       1.0  0.88800  0.03850  0.84300  1.0000
  H   H23       1.0  0.11900  0.72500  0.93700  1.0000
  H   H24       1.0  0.18400  0.89800  0.94300  1.0000
  N   N1        1.0  0.57400  0.68100  0.08960  1.0000
  N   N2        1.0  0.20000  0.76100  0.20000  1.0000
  N   N3        1.0  0.29900  0.53800  0.20200  1.0000
  N   N4        1.0  0.70100  0.03830  0.29800  1.0000
  N   N5        1.0  0.80000  0.26100  0.30000  1.0000
  N   N6        1.0  0.42600  0.18100  0.41000  1.0000
  N   N7        1.0  0.92600  0.31900  0.59000  1.0000
  N   N8        1.0  0.30000  0.23900  0.70000  1.0000
  N   N9        1.0  0.20100  0.46200  0.70200  1.0000
  N   N10       1.0  0.79900  0.96200  0.79800  1.0000
  N   N11       1.0  0.70000  0.73900  0.80000  1.0000
  N   N12       1.0  0.07410  0.81900  0.91000  1.0000
  Sb  Sb1       1.0  0.46800  0.12500  0.07200  1.0000
  Sb  Sb2       1.0  0.53200  0.62500  0.42800  1.0000
  Sb  Sb3       1.0  0.03190  0.87500  0.57200  1.0000
  Sb  Sb4       1.0  0.96800  0.37500  0.92800  1.0000
