data_image0
_chemical_formula_structural       C14CoH24N8Rb
_chemical_formula_sum              "C14 Co1 H24 N8 Rb1"
_cell_length_a       8.63181
_cell_length_b       8.63181
_cell_length_c       8.63181
_cell_angle_alpha    120.672
_cell_angle_beta     88.8392
_cell_angle_gamma    120.672

_space_group_name_H-M_alt    "P 1"
_space_group_IT_number       1

loop_
  _space_group_symop_operation_xyz
  'x, y, z'

loop_
  _atom_site_type_symbol
  _atom_site_label
  _atom_site_symmetry_multiplicity
  _atom_site_fract_x
  _atom_site_fract_y
  _atom_site_fract_z
  _atom_site_occupancy
  C   C1        1.0  0.75100  0.44900  0.05680  1.0000
  C   C2        1.0  0.82100  0.94900  0.12800  1.0000
  C   C3        1.0  0.15200  0.00000  0.15200  1.0000
  C   C4        1.0  0.12800  0.30700  0.17900  1.0000
  C   C5        1.0  0.69800  0.30500  0.24900  1.0000
  C   C6        1.0  0.60700  0.55100  0.30200  1.0000
  C   C7        1.0  0.94300  0.69500  0.39300  1.0000
  C   C8        1.0  0.05680  0.30500  0.60700  1.0000
  C   C9        1.0  0.39300  0.44900  0.69800  1.0000
  C   C10       1.0  0.30200  0.69500  0.75100  1.0000
  C   C11       1.0  0.87200  0.69300  0.82100  1.0000
  C   C12       1.0  0.84800  0.00000  0.84800  1.0000
  C   C13       1.0  0.17900  0.05120  0.87200  1.0000
  C   C14       1.0  0.24900  0.55100  0.94300  1.0000
  Co  Co1       1.0  0.00000  0.00000  0.00000  1.0000
  H   H1        1.0  0.84000  0.38900  0.00915  1.0000
  H   H2        1.0  0.39500  0.67900  0.04080  1.0000
  H   H3        1.0  0.80700  0.60000  0.06550  1.0000
  H   H4        1.0  0.54900  0.16900  0.16000  1.0000
  H   H5        1.0  0.79300  0.25800  0.19300  1.0000
  H   H6        1.0  0.46600  0.40000  0.20700  1.0000
  H   H7        1.0  0.63800  0.67900  0.28300  1.0000
  H   H8        1.0  0.04080  0.64500  0.36200  1.0000
  H   H9        1.0  0.99100  0.83100  0.38000  1.0000
  H   H10       1.0  0.71700  0.35500  0.39500  1.0000
  H   H11       1.0  0.62000  0.61100  0.45100  1.0000
  H   H12       1.0  0.06550  0.25800  0.46600  1.0000
  H   H13       1.0  0.93400  0.74200  0.53400  1.0000
  H   H14       1.0  0.38000  0.38900  0.54900  1.0000
  H   H15       1.0  0.28300  0.64500  0.60500  1.0000
  H   H16       1.0  0.00915  0.16900  0.62000  1.0000
  H   H17       1.0  0.95900  0.35500  0.63800  1.0000
  H   H18       1.0  0.36200  0.32100  0.71700  1.0000
  H   H19       1.0  0.53400  0.60000  0.79300  1.0000
  H   H20       1.0  0.20700  0.74200  0.80700  1.0000
  H   H21       1.0  0.45100  0.83100  0.84000  1.0000
  H   H22       1.0  0.19300  0.40000  0.93400  1.0000
  H   H23       1.0  0.60500  0.32100  0.95900  1.0000
  H   H24       1.0  0.16000  0.61100  0.99100  1.0000
  N   N1        1.0  0.71100  0.92100  0.21000  1.0000
  N   N2        1.0  0.24800  0.00000  0.24800  1.0000
  N   N3        1.0  0.75000  0.50000  0.25000  1.0000
  N   N4        1.0  0.21000  0.49900  0.28900  1.0000
  N   N5        1.0  0.79000  0.50100  0.71100  1.0000
  N   N6        1.0  0.25000  0.50000  0.75000  1.0000
  N   N7        1.0  0.75200  0.00000  0.75200  1.0000
  N   N8        1.0  0.28900  0.07860  0.79000  1.0000
  Rb  Rb1       1.0  0.50000  0.00000  0.50000  1.0000
