data_image0
_chemical_formula_structural       Cs4Cu4O38Si16
_chemical_formula_sum              "Cs4 Cu4 O38 Si16"
_cell_length_a       9.87607
_cell_length_b       8.35822
_cell_length_c       11.6404
_cell_angle_alpha    90
_cell_angle_beta     95.0346
_cell_angle_gamma    90

_space_group_name_H-M_alt    "P 1"
_space_group_IT_number       1

loop_
  _space_group_symop_operation_xyz
  'x, y, z'

loop_
  _atom_site_type_symbol
  _atom_site_label
  _atom_site_symmetry_multiplicity
  _atom_site_fract_x
  _atom_site_fract_y
  _atom_site_fract_z
  _atom_site_occupancy
  Cs  Cs1       1.0  0.91500  0.75000  0.02220  1.0000
  Cs  Cs2       1.0  0.49500  0.25000  0.45600  1.0000
  Cs  Cs3       1.0  0.50500  0.75000  0.54400  1.0000
  Cs  Cs4       1.0  0.08500  0.25000  0.97800  1.0000
  Cu  Cu1       1.0  0.15500  0.01410  0.48300  1.0000
  Cu  Cu2       1.0  0.15500  0.48600  0.48300  1.0000
  Cu  Cu3       1.0  0.84500  0.51400  0.51700  1.0000
  Cu  Cu4       1.0  0.84500  0.98600  0.51700  1.0000
  O   O1        1.0  0.50000  0.00000  0.00000  1.0000
  O   O2        1.0  0.50000  0.50000  0.00000  1.0000
  O   O3        1.0  0.38700  0.25000  0.09140  1.0000
  O   O4        1.0  0.29800  0.53700  0.12900  1.0000
  O   O5        1.0  0.29800  0.96300  0.12900  1.0000
  O   O6        1.0  0.05440  0.02790  0.18300  1.0000
  O   O7        1.0  0.05440  0.47200  0.18300  1.0000
  O   O8        1.0  0.79900  0.54100  0.20900  1.0000
  O   O9        1.0  0.79900  0.95900  0.20900  1.0000
  O   O10       1.0  0.54400  0.05470  0.22400  1.0000
  O   O11       1.0  0.54400  0.44500  0.22400  1.0000
  O   O12       1.0  0.15800  0.75000  0.23600  1.0000
  O   O13       1.0  0.60600  0.75000  0.24700  1.0000
  O   O14       1.0  0.88700  0.25000  0.25100  1.0000
  O   O15       1.0  0.26000  0.01270  0.35400  1.0000
  O   O16       1.0  0.26000  0.48700  0.35400  1.0000
  O   O17       1.0  0.97500  0.00787  0.39800  1.0000
  O   O18       1.0  0.97500  0.49200  0.39800  1.0000
  O   O19       1.0  0.68900  0.53100  0.41300  1.0000
  O   O20       1.0  0.68900  0.96900  0.41300  1.0000
  O   O21       1.0  0.31100  0.03120  0.58700  1.0000
  O   O22       1.0  0.31100  0.46900  0.58700  1.0000
  O   O23       1.0  0.02540  0.50800  0.60200  1.0000
  O   O24       1.0  0.02540  0.99200  0.60200  1.0000
  O   O25       1.0  0.74000  0.51300  0.64600  1.0000
  O   O26       1.0  0.74000  0.98700  0.64600  1.0000
  O   O27       1.0  0.11300  0.75000  0.74900  1.0000
  O   O28       1.0  0.39400  0.25000  0.75300  1.0000
  O   O29       1.0  0.84200  0.25000  0.76400  1.0000
  O   O30       1.0  0.45600  0.55500  0.77600  1.0000
  O   O31       1.0  0.45600  0.94500  0.77600  1.0000
  O   O32       1.0  0.20100  0.04150  0.79100  1.0000
  O   O33       1.0  0.20100  0.45900  0.79100  1.0000
  O   O34       1.0  0.94600  0.52800  0.81700  1.0000
  O   O35       1.0  0.94600  0.97200  0.81700  1.0000
  O   O36       1.0  0.70200  0.03740  0.87100  1.0000
  O   O37       1.0  0.70200  0.46300  0.87100  1.0000
  O   O38       1.0  0.61300  0.75000  0.90900  1.0000
  Si  Si1       1.0  0.43400  0.06470  0.11200  1.0000
  Si  Si2       1.0  0.43400  0.43500  0.11200  1.0000
  Si  Si3       1.0  0.19900  0.56100  0.23400  1.0000
  Si  Si4       1.0  0.19900  0.93900  0.23400  1.0000
  Si  Si5       1.0  0.93000  0.06250  0.26500  1.0000
  Si  Si6       1.0  0.93000  0.43700  0.26500  1.0000
  Si  Si7       1.0  0.66200  0.56900  0.27800  1.0000
  Si  Si8       1.0  0.66200  0.93100  0.27800  1.0000
  Si  Si9       1.0  0.33800  0.06870  0.72200  1.0000
  Si  Si10      1.0  0.33800  0.43100  0.72200  1.0000
  Si  Si11      1.0  0.07020  0.56300  0.73500  1.0000
  Si  Si12      1.0  0.07020  0.93700  0.73500  1.0000
  Si  Si13      1.0  0.80100  0.06100  0.76600  1.0000
  Si  Si14      1.0  0.80100  0.43900  0.76600  1.0000
  Si  Si15      1.0  0.56600  0.56500  0.88800  1.0000
  Si  Si16      1.0  0.56600  0.93500  0.88800  1.0000
