data_image0
_chemical_formula_structural       As8Fe8K8O36
_chemical_formula_sum              "As8 Fe8 K8 O36"
_cell_length_a       8.5137
_cell_length_b       5.74209
_cell_length_c       17.7063
_cell_angle_alpha    90
_cell_angle_beta     90
_cell_angle_gamma    90

_space_group_name_H-M_alt    "P 1"
_space_group_IT_number       1

loop_
  _space_group_symop_operation_xyz
  'x, y, z'

loop_
  _atom_site_type_symbol
  _atom_site_label
  _atom_site_symmetry_multiplicity
  _atom_site_fract_x
  _atom_site_fract_y
  _atom_site_fract_z
  _atom_site_occupancy
  As  As1       1.0  0.17600  0.75000  0.05940  1.0000
  As  As2       1.0  0.68400  0.25000  0.15000  1.0000
  As  As3       1.0  0.18400  0.25000  0.35000  1.0000
  As  As4       1.0  0.67600  0.75000  0.44100  1.0000
  As  As5       1.0  0.32400  0.25000  0.55900  1.0000
  As  As6       1.0  0.81600  0.75000  0.65000  1.0000
  As  As7       1.0  0.31600  0.75000  0.85000  1.0000
  As  As8       1.0  0.82400  0.25000  0.94100  1.0000
  Fe  Fe1       1.0  0.50000  0.00000  0.00000  1.0000
  Fe  Fe2       1.0  0.50000  0.50000  0.00000  1.0000
  Fe  Fe3       1.0  0.78400  0.75000  0.06710  1.0000
  Fe  Fe4       1.0  0.28400  0.75000  0.43300  1.0000
  Fe  Fe5       1.0  0.00000  0.00000  0.50000  1.0000
  Fe  Fe6       1.0  0.00000  0.50000  0.50000  1.0000
  Fe  Fe7       1.0  0.71600  0.25000  0.56700  1.0000
  Fe  Fe8       1.0  0.21600  0.25000  0.93300  1.0000
  K   K1        1.0  0.09950  0.25000  0.13100  1.0000
  K   K2        1.0  0.45700  0.75000  0.23300  1.0000
  K   K3        1.0  0.95700  0.75000  0.26700  1.0000
  K   K4        1.0  0.59900  0.25000  0.36900  1.0000
  K   K5        1.0  0.40100  0.75000  0.63100  1.0000
  K   K6        1.0  0.04340  0.25000  0.73300  1.0000
  K   K7        1.0  0.54300  0.25000  0.76700  1.0000
  K   K8        1.0  0.90100  0.75000  0.86900  1.0000
  O   O1        1.0  0.99100  0.75000  0.02250  1.0000
  O   O2        1.0  0.26800  0.50100  0.02440  1.0000
  O   O3        1.0  0.26800  0.99900  0.02440  1.0000
  O   O4        1.0  0.55400  0.75000  0.07040  1.0000
  O   O5        1.0  0.54300  0.25000  0.07750  1.0000
  O   O6        1.0  0.80600  0.00873  0.14100  1.0000
  O   O7        1.0  0.80600  0.49100  0.14100  1.0000
  O   O8        1.0  0.17900  0.75000  0.15400  1.0000
  O   O9        1.0  0.57900  0.25000  0.22900  1.0000
  O   O10       1.0  0.07880  0.25000  0.27100  1.0000
  O   O11       1.0  0.67900  0.75000  0.34600  1.0000
  O   O12       1.0  0.30600  0.00873  0.35900  1.0000
  O   O13       1.0  0.30600  0.49100  0.35900  1.0000
  O   O14       1.0  0.04280  0.25000  0.42200  1.0000
  O   O15       1.0  0.05390  0.75000  0.43000  1.0000
  O   O16       1.0  0.76800  0.50100  0.47600  1.0000
  O   O17       1.0  0.76800  0.99900  0.47600  1.0000
  O   O18       1.0  0.49100  0.75000  0.47700  1.0000
  O   O19       1.0  0.50900  0.25000  0.52300  1.0000
  O   O20       1.0  0.23200  0.00094  0.52400  1.0000
  O   O21       1.0  0.23200  0.49900  0.52400  1.0000
  O   O22       1.0  0.94600  0.25000  0.57000  1.0000
  O   O23       1.0  0.95700  0.75000  0.57800  1.0000
  O   O24       1.0  0.69400  0.50900  0.64100  1.0000
  O   O25       1.0  0.69400  0.99100  0.64100  1.0000
  O   O26       1.0  0.32100  0.25000  0.65400  1.0000
  O   O27       1.0  0.92100  0.75000  0.72900  1.0000
  O   O28       1.0  0.42100  0.75000  0.77100  1.0000
  O   O29       1.0  0.82100  0.25000  0.84600  1.0000
  O   O30       1.0  0.19400  0.50900  0.85900  1.0000
  O   O31       1.0  0.19400  0.99100  0.85900  1.0000
  O   O32       1.0  0.45700  0.75000  0.92200  1.0000
  O   O33       1.0  0.44600  0.25000  0.93000  1.0000
  O   O34       1.0  0.73200  0.00094  0.97600  1.0000
  O   O35       1.0  0.73200  0.49900  0.97600  1.0000
  O   O36       1.0  0.00902  0.25000  0.97700  1.0000
