data_image0
_chemical_formula_structural       Cl20O4S32Sb4
_chemical_formula_sum              "Cl20 O4 S32 Sb4"
_cell_length_a       11.0528
_cell_length_b       9.24713
_cell_length_c       17.2631
_cell_angle_alpha    90
_cell_angle_beta     90
_cell_angle_gamma    90

_space_group_name_H-M_alt    "P 1"
_space_group_IT_number       1

loop_
  _space_group_symop_operation_xyz
  'x, y, z'

loop_
  _atom_site_type_symbol
  _atom_site_label
  _atom_site_symmetry_multiplicity
  _atom_site_fract_x
  _atom_site_fract_y
  _atom_site_fract_z
  _atom_site_occupancy
  Cl  Cl1       1.0  0.09730  0.25000  0.02700  1.0000
  Cl  Cl2       1.0  0.70800  0.00655  0.03320  1.0000
  Cl  Cl3       1.0  0.70800  0.49300  0.03320  1.0000
  Cl  Cl4       1.0  0.39600  0.25000  0.09730  1.0000
  Cl  Cl5       1.0  0.51900  0.75000  0.10100  1.0000
  Cl  Cl6       1.0  0.01910  0.25000  0.39900  1.0000
  Cl  Cl7       1.0  0.89600  0.75000  0.40300  1.0000
  Cl  Cl8       1.0  0.20800  0.50700  0.46700  1.0000
  Cl  Cl9       1.0  0.20800  0.99300  0.46700  1.0000
  Cl  Cl10      1.0  0.59700  0.75000  0.47300  1.0000
  Cl  Cl11      1.0  0.40300  0.25000  0.52700  1.0000
  Cl  Cl12      1.0  0.79200  0.00655  0.53300  1.0000
  Cl  Cl13      1.0  0.79200  0.49300  0.53300  1.0000
  Cl  Cl14      1.0  0.10400  0.25000  0.59700  1.0000
  Cl  Cl15      1.0  0.98100  0.75000  0.60100  1.0000
  Cl  Cl16      1.0  0.48100  0.25000  0.89900  1.0000
  Cl  Cl17      1.0  0.60400  0.75000  0.90300  1.0000
  Cl  Cl18      1.0  0.29200  0.50700  0.96700  1.0000
  Cl  Cl19      1.0  0.29200  0.99300  0.96700  1.0000
  Cl  Cl20      1.0  0.90300  0.75000  0.97300  1.0000
  O   O1        1.0  0.78900  0.75000  0.14200  1.0000
  O   O2        1.0  0.28900  0.25000  0.35800  1.0000
  O   O3        1.0  0.71100  0.75000  0.64200  1.0000
  O   O4        1.0  0.21100  0.25000  0.85800  1.0000
  S   S1        1.0  0.01270  0.56500  0.12100  1.0000
  S   S2        1.0  0.01270  0.93500  0.12100  1.0000
  S   S3        1.0  0.92000  0.75000  0.17100  1.0000
  S   S4        1.0  0.77700  0.25000  0.21100  1.0000
  S   S5        1.0  0.27200  0.57100  0.21800  1.0000
  S   S6        1.0  0.27200  0.92900  0.21800  1.0000
  S   S7        1.0  0.09560  0.00862  0.21800  1.0000
  S   S8        1.0  0.09560  0.49100  0.21800  1.0000
  S   S9        1.0  0.59600  0.50900  0.28200  1.0000
  S   S10       1.0  0.59600  0.99100  0.28200  1.0000
  S   S11       1.0  0.77200  0.07140  0.28200  1.0000
  S   S12       1.0  0.77200  0.42900  0.28200  1.0000
  S   S13       1.0  0.27700  0.75000  0.28900  1.0000
  S   S14       1.0  0.42000  0.25000  0.32900  1.0000
  S   S15       1.0  0.51300  0.06490  0.37900  1.0000
  S   S16       1.0  0.51300  0.43500  0.37900  1.0000
  S   S17       1.0  0.48700  0.56500  0.62100  1.0000
  S   S18       1.0  0.48700  0.93500  0.62100  1.0000
  S   S19       1.0  0.58000  0.75000  0.67100  1.0000
  S   S20       1.0  0.72300  0.25000  0.71100  1.0000
  S   S21       1.0  0.22800  0.57100  0.71800  1.0000
  S   S22       1.0  0.22800  0.92900  0.71800  1.0000
  S   S23       1.0  0.40400  0.00862  0.71800  1.0000
  S   S24       1.0  0.40400  0.49100  0.71800  1.0000
  S   S25       1.0  0.90400  0.50900  0.78200  1.0000
  S   S26       1.0  0.90400  0.99100  0.78200  1.0000
  S   S27       1.0  0.72800  0.07140  0.78200  1.0000
  S   S28       1.0  0.72800  0.42900  0.78200  1.0000
  S   S29       1.0  0.22300  0.75000  0.78900  1.0000
  S   S30       1.0  0.07970  0.25000  0.82900  1.0000
  S   S31       1.0  0.98700  0.06490  0.87900  1.0000
  S   S32       1.0  0.98700  0.43500  0.87900  1.0000
  Sb  Sb1       1.0  0.69800  0.75000  0.02560  1.0000
  Sb  Sb2       1.0  0.19800  0.25000  0.47400  1.0000
  Sb  Sb3       1.0  0.80200  0.75000  0.52600  1.0000
  Sb  Sb4       1.0  0.30200  0.25000  0.97400  1.0000
