data_image0
_chemical_formula_structural       Al8Ca8O36Sn8
_chemical_formula_sum              "Al8 Ca8 O36 Sn8"
_cell_length_a       8.98748
_cell_length_b       5.50502
_cell_length_c       14.8791
_cell_angle_alpha    90
_cell_angle_beta     90
_cell_angle_gamma    90

_space_group_name_H-M_alt    "P 1"
_space_group_IT_number       1

loop_
  _space_group_symop_operation_xyz
  'x, y, z'

loop_
  _atom_site_type_symbol
  _atom_site_label
  _atom_site_symmetry_multiplicity
  _atom_site_fract_x
  _atom_site_fract_y
  _atom_site_fract_z
  _atom_site_occupancy
  Al  Al1       1.0  0.34300  0.30900  0.02880  1.0000
  Al  Al2       1.0  0.15700  0.80900  0.02880  1.0000
  Al  Al3       1.0  0.65700  0.30900  0.47100  1.0000
  Al  Al4       1.0  0.84300  0.80900  0.47100  1.0000
  Al  Al5       1.0  0.15700  0.19100  0.52900  1.0000
  Al  Al6       1.0  0.34300  0.69100  0.52900  1.0000
  Al  Al7       1.0  0.84300  0.19100  0.97100  1.0000
  Al  Al8       1.0  0.65700  0.69100  0.97100  1.0000
  Ca  Ca1       1.0  0.06670  0.36200  0.14500  1.0000
  Ca  Ca2       1.0  0.43300  0.86200  0.14500  1.0000
  Ca  Ca3       1.0  0.93300  0.36200  0.35500  1.0000
  Ca  Ca4       1.0  0.56700  0.86200  0.35500  1.0000
  Ca  Ca5       1.0  0.43300  0.13800  0.64500  1.0000
  Ca  Ca6       1.0  0.06670  0.63800  0.64500  1.0000
  Ca  Ca7       1.0  0.56700  0.13800  0.85500  1.0000
  Ca  Ca8       1.0  0.93300  0.63800  0.85500  1.0000
  O   O1        1.0  0.51600  0.22400  0.07260  1.0000
  O   O2        1.0  0.98400  0.72400  0.07260  1.0000
  O   O3        1.0  0.22600  0.08080  0.07270  1.0000
  O   O4        1.0  0.27400  0.58100  0.07270  1.0000
  O   O5        1.0  0.84000  0.19300  0.09070  1.0000
  O   O6        1.0  0.66000  0.69300  0.09070  1.0000
  O   O7        1.0  0.66600  0.03460  0.22900  1.0000
  O   O8        1.0  0.83400  0.53500  0.22900  1.0000
  O   O9        1.0  0.00000  0.03250  0.25000  1.0000
  O   O10       1.0  0.50000  0.53300  0.25000  1.0000
  O   O11       1.0  0.33400  0.03460  0.27100  1.0000
  O   O12       1.0  0.16600  0.53500  0.27100  1.0000
  O   O13       1.0  0.16000  0.19300  0.40900  1.0000
  O   O14       1.0  0.34000  0.69300  0.40900  1.0000
  O   O15       1.0  0.77400  0.08080  0.42700  1.0000
  O   O16       1.0  0.72600  0.58100  0.42700  1.0000
  O   O17       1.0  0.48400  0.22400  0.42700  1.0000
  O   O18       1.0  0.01640  0.72400  0.42700  1.0000
  O   O19       1.0  0.98400  0.27600  0.57300  1.0000
  O   O20       1.0  0.51600  0.77600  0.57300  1.0000
  O   O21       1.0  0.27400  0.41900  0.57300  1.0000
  O   O22       1.0  0.22600  0.91900  0.57300  1.0000
  O   O23       1.0  0.66000  0.30700  0.59100  1.0000
  O   O24       1.0  0.84000  0.80700  0.59100  1.0000
  O   O25       1.0  0.83400  0.46500  0.72900  1.0000
  O   O26       1.0  0.66600  0.96500  0.72900  1.0000
  O   O27       1.0  0.50000  0.46700  0.75000  1.0000
  O   O28       1.0  0.00000  0.96700  0.75000  1.0000
  O   O29       1.0  0.16600  0.46500  0.77100  1.0000
  O   O30       1.0  0.33400  0.96500  0.77100  1.0000
  O   O31       1.0  0.34000  0.30700  0.90900  1.0000
  O   O32       1.0  0.16000  0.80700  0.90900  1.0000
  O   O33       1.0  0.72600  0.41900  0.92700  1.0000
  O   O34       1.0  0.77400  0.91900  0.92700  1.0000
  O   O35       1.0  0.01640  0.27600  0.92700  1.0000
  O   O36       1.0  0.48400  0.77600  0.92700  1.0000
  Sn  Sn1       1.0  0.65500  0.36600  0.16600  1.0000
  Sn  Sn2       1.0  0.84500  0.86600  0.16600  1.0000
  Sn  Sn3       1.0  0.34500  0.36600  0.33400  1.0000
  Sn  Sn4       1.0  0.15500  0.86600  0.33400  1.0000
  Sn  Sn5       1.0  0.84500  0.13400  0.66600  1.0000
  Sn  Sn6       1.0  0.65500  0.63400  0.66600  1.0000
  Sn  Sn7       1.0  0.15500  0.13400  0.83400  1.0000
  Sn  Sn8       1.0  0.34500  0.63400  0.83400  1.0000
