data_image0
_chemical_formula_structural       O36P8Pb8V4
_chemical_formula_sum              "O36 P8 Pb8 V4"
_cell_length_a       8.78622
_cell_length_b       9.08874
_cell_length_c       9.81291
_cell_angle_alpha    90
_cell_angle_beta     100.484
_cell_angle_gamma    90

_space_group_name_H-M_alt    "P 1"
_space_group_IT_number       1

loop_
  _space_group_symop_operation_xyz
  'x, y, z'

loop_
  _atom_site_type_symbol
  _atom_site_label
  _atom_site_symmetry_multiplicity
  _atom_site_fract_x
  _atom_site_fract_y
  _atom_site_fract_z
  _atom_site_occupancy
  O   O1        1.0  0.41900  0.65000  0.06120  1.0000
  O   O2        1.0  0.91900  0.85000  0.06120  1.0000
  O   O3        1.0  0.11000  0.66200  0.07350  1.0000
  O   O4        1.0  0.61000  0.83800  0.07350  1.0000
  O   O5        1.0  0.28000  0.96600  0.10300  1.0000
  O   O6        1.0  0.78000  0.53400  0.10300  1.0000
  O   O7        1.0  0.42600  0.34800  0.13200  1.0000
  O   O8        1.0  0.92600  0.15200  0.13200  1.0000
  O   O9        1.0  0.11500  0.35000  0.13200  1.0000
  O   O10       1.0  0.61500  0.15000  0.13200  1.0000
  O   O11       1.0  0.33600  0.58800  0.29600  1.0000
  O   O12       1.0  0.83600  0.91200  0.29600  1.0000
  O   O13       1.0  0.10100  0.61400  0.40900  1.0000
  O   O14       1.0  0.60100  0.88600  0.40900  1.0000
  O   O15       1.0  0.62600  0.40000  0.43800  1.0000
  O   O16       1.0  0.12600  0.09960  0.43800  1.0000
  O   O17       1.0  0.75200  0.12300  0.44100  1.0000
  O   O18       1.0  0.25200  0.37700  0.44100  1.0000
  O   O19       1.0  0.24800  0.87700  0.55900  1.0000
  O   O20       1.0  0.74800  0.62300  0.55900  1.0000
  O   O21       1.0  0.37400  0.60000  0.56200  1.0000
  O   O22       1.0  0.87400  0.90000  0.56200  1.0000
  O   O23       1.0  0.39900  0.11400  0.59100  1.0000
  O   O24       1.0  0.89900  0.38600  0.59100  1.0000
  O   O25       1.0  0.66400  0.41200  0.70400  1.0000
  O   O26       1.0  0.16400  0.08770  0.70400  1.0000
  O   O27       1.0  0.38500  0.85000  0.86800  1.0000
  O   O28       1.0  0.88500  0.65000  0.86800  1.0000
  O   O29       1.0  0.07440  0.84800  0.86800  1.0000
  O   O30       1.0  0.57400  0.65200  0.86800  1.0000
  O   O31       1.0  0.22000  0.46600  0.89700  1.0000
  O   O32       1.0  0.72000  0.03380  0.89700  1.0000
  O   O33       1.0  0.39000  0.16200  0.92700  1.0000
  O   O34       1.0  0.89000  0.33800  0.92700  1.0000
  O   O35       1.0  0.58100  0.35000  0.93900  1.0000
  O   O36       1.0  0.08140  0.15000  0.93900  1.0000
  P   P1        1.0  0.00437  0.24900  0.03370  1.0000
  P   P2        1.0  0.50400  0.25100  0.03370  1.0000
  P   P3        1.0  0.26800  0.54600  0.42600  1.0000
  P   P4        1.0  0.76800  0.95400  0.42600  1.0000
  P   P5        1.0  0.73200  0.45400  0.57400  1.0000
  P   P6        1.0  0.23200  0.04640  0.57400  1.0000
  P   P7        1.0  0.49600  0.74900  0.96600  1.0000
  P   P8        1.0  0.99600  0.75100  0.96600  1.0000
  Pb  Pb1       1.0  0.11100  0.85700  0.28500  1.0000
  Pb  Pb2       1.0  0.61100  0.64300  0.28500  1.0000
  Pb  Pb3       1.0  0.97800  0.31200  0.35900  1.0000
  Pb  Pb4       1.0  0.47800  0.18800  0.35900  1.0000
  Pb  Pb5       1.0  0.02240  0.68800  0.64100  1.0000
  Pb  Pb6       1.0  0.52200  0.81200  0.64100  1.0000
  Pb  Pb7       1.0  0.38900  0.35700  0.71500  1.0000
  Pb  Pb8       1.0  0.88900  0.14300  0.71500  1.0000
  V   V1        1.0  0.25700  0.50000  0.06540  1.0000
  V   V2        1.0  0.75700  0.00030  0.06540  1.0000
  V   V3        1.0  0.74300  0.50000  0.93500  1.0000
  V   V4        1.0  0.24300  0.00000  0.93500  1.0000
