data_image0
_chemical_formula_structural       Cd4O4Pt4Se4
_chemical_formula_sum              "Cd4 O4 Pt4 Se4"
_cell_length_a       6.60851
_cell_length_b       7.47056
_cell_length_c       6.08348
_cell_angle_alpha    90
_cell_angle_beta     90
_cell_angle_gamma    90

_space_group_name_H-M_alt    "P 1"
_space_group_IT_number       1

loop_
  _space_group_symop_operation_xyz
  'x, y, z'

loop_
  _atom_site_type_symbol
  _atom_site_label
  _atom_site_symmetry_multiplicity
  _atom_site_fract_x
  _atom_site_fract_y
  _atom_site_fract_z
  _atom_site_occupancy
  Cd  Cd1       1.0  0.41500  0.12500  0.02950  1.0000
  Cd  Cd2       1.0  0.91500  0.87500  0.02950  1.0000
  Cd  Cd3       1.0  0.08540  0.12500  0.53000  1.0000
  Cd  Cd4       1.0  0.58500  0.87500  0.53000  1.0000
  O   O1        1.0  0.09640  0.10900  0.16300  1.0000
  O   O2        1.0  0.59600  0.89100  0.16300  1.0000
  O   O3        1.0  0.40400  0.10900  0.66300  1.0000
  O   O4        1.0  0.90400  0.89100  0.66300  1.0000
  Pt  Pt1       1.0  0.54200  0.29300  0.45100  1.0000
  Pt  Pt2       1.0  0.04230  0.70700  0.45100  1.0000
  Pt  Pt3       1.0  0.95800  0.29300  0.95100  1.0000
  Pt  Pt4       1.0  0.45800  0.70700  0.95100  1.0000
  Se  Se1       1.0  0.64400  0.42700  0.10700  1.0000
  Se  Se2       1.0  0.14400  0.57300  0.10700  1.0000
  Se  Se3       1.0  0.85600  0.42700  0.60700  1.0000
  Se  Se4       1.0  0.35600  0.57300  0.60700  1.0000
