data_image0
_chemical_formula_structural       I24S12Sn24
_chemical_formula_sum              "I24 S12 Sn24"
_cell_length_a       18.2872
_cell_length_b       26.4217
_cell_length_c       4.4125
_cell_angle_alpha    90
_cell_angle_beta     90
_cell_angle_gamma    90

_space_group_name_H-M_alt    "P 1"
_space_group_IT_number       1

loop_
  _space_group_symop_operation_xyz
  'x, y, z'

loop_
  _atom_site_type_symbol
  _atom_site_label
  _atom_site_symmetry_multiplicity
  _atom_site_fract_x
  _atom_site_fract_y
  _atom_site_fract_z
  _atom_site_occupancy
  I   I1        1.0  0.17800  0.04410  0.25000  1.0000
  I   I2        1.0  0.04230  0.18200  0.25000  1.0000
  I   I3        1.0  0.29100  0.21900  0.25000  1.0000
  I   I4        1.0  0.79100  0.28100  0.25000  1.0000
  I   I5        1.0  0.54200  0.31800  0.25000  1.0000
  I   I6        1.0  0.67800  0.45600  0.25000  1.0000
  I   I7        1.0  0.87400  0.56400  0.25000  1.0000
  I   I8        1.0  0.12600  0.58500  0.25000  1.0000
  I   I9        1.0  0.66200  0.63200  0.25000  1.0000
  I   I10       1.0  0.16200  0.86800  0.25000  1.0000
  I   I11       1.0  0.62600  0.91500  0.25000  1.0000
  I   I12       1.0  0.37400  0.93600  0.25000  1.0000
  I   I13       1.0  0.62600  0.06390  0.75000  1.0000
  I   I14       1.0  0.37400  0.08480  0.75000  1.0000
  I   I15       1.0  0.83800  0.13200  0.75000  1.0000
  I   I16       1.0  0.33800  0.36800  0.75000  1.0000
  I   I17       1.0  0.87400  0.41500  0.75000  1.0000
  I   I18       1.0  0.12600  0.43600  0.75000  1.0000
  I   I19       1.0  0.32200  0.54400  0.75000  1.0000
  I   I20       1.0  0.45800  0.68200  0.75000  1.0000
  I   I21       1.0  0.20900  0.71900  0.75000  1.0000
  I   I22       1.0  0.70900  0.78100  0.75000  1.0000
  I   I23       1.0  0.95800  0.81800  0.75000  1.0000
  I   I24       1.0  0.82200  0.95600  0.75000  1.0000
  S   S1        1.0  0.95000  0.03760  0.25000  1.0000
  S   S2        1.0  0.51900  0.16100  0.25000  1.0000
  S   S3        1.0  0.01850  0.33900  0.25000  1.0000
  S   S4        1.0  0.45000  0.46200  0.25000  1.0000
  S   S5        1.0  0.86100  0.72100  0.25000  1.0000
  S   S6        1.0  0.36100  0.77900  0.25000  1.0000
  S   S7        1.0  0.63900  0.22100  0.75000  1.0000
  S   S8        1.0  0.13900  0.27900  0.75000  1.0000
  S   S9        1.0  0.55000  0.53800  0.75000  1.0000
  S   S10       1.0  0.98100  0.66100  0.75000  1.0000
  S   S11       1.0  0.48100  0.83900  0.75000  1.0000
  S   S12       1.0  0.05010  0.96200  0.75000  1.0000
  Sn  Sn1       1.0  0.80800  0.05020  0.25000  1.0000
  Sn  Sn2       1.0  0.48600  0.06370  0.25000  1.0000
  Sn  Sn3       1.0  0.66500  0.16000  0.25000  1.0000
  Sn  Sn4       1.0  0.16500  0.34000  0.25000  1.0000
  Sn  Sn5       1.0  0.98600  0.43600  0.25000  1.0000
  Sn  Sn6       1.0  0.30800  0.45000  0.25000  1.0000
  Sn  Sn7       1.0  0.46500  0.56200  0.25000  1.0000
  Sn  Sn8       1.0  0.31800  0.68400  0.25000  1.0000
  Sn  Sn9       1.0  0.00493  0.72300  0.25000  1.0000
  Sn  Sn10      1.0  0.50500  0.77700  0.25000  1.0000
  Sn  Sn11      1.0  0.81800  0.81600  0.25000  1.0000
  Sn  Sn12      1.0  0.96500  0.93800  0.25000  1.0000
  Sn  Sn13      1.0  0.03510  0.06190  0.75000  1.0000
  Sn  Sn14      1.0  0.18200  0.18400  0.75000  1.0000
  Sn  Sn15      1.0  0.49500  0.22300  0.75000  1.0000
  Sn  Sn16      1.0  0.99500  0.27700  0.75000  1.0000
  Sn  Sn17      1.0  0.68200  0.31600  0.75000  1.0000
  Sn  Sn18      1.0  0.53500  0.43800  0.75000  1.0000
  Sn  Sn19      1.0  0.69200  0.55000  0.75000  1.0000
  Sn  Sn20      1.0  0.01420  0.56400  0.75000  1.0000
  Sn  Sn21      1.0  0.83500  0.66000  0.75000  1.0000
  Sn  Sn22      1.0  0.33500  0.84000  0.75000  1.0000
  Sn  Sn23      1.0  0.51400  0.93600  0.75000  1.0000
  Sn  Sn24      1.0  0.19200  0.95000  0.75000  1.0000
