data_image0
_chemical_formula_structural       Ba8Nb8O40Te4
_chemical_formula_sum              "Ba8 Nb8 O40 Te4"
_cell_length_a       7.28147
_cell_length_b       12.4057
_cell_length_c       9.9178
_cell_angle_alpha    90
_cell_angle_beta     90
_cell_angle_gamma    90

_space_group_name_H-M_alt    "P 1"
_space_group_IT_number       1

loop_
  _space_group_symop_operation_xyz
  'x, y, z'

loop_
  _atom_site_type_symbol
  _atom_site_label
  _atom_site_symmetry_multiplicity
  _atom_site_fract_x
  _atom_site_fract_y
  _atom_site_fract_z
  _atom_site_occupancy
  Ba  Ba1       1.0  0.01820  0.14000  0.10900  1.0000
  Ba  Ba2       1.0  0.48200  0.64000  0.10900  1.0000
  Ba  Ba3       1.0  0.51800  0.14000  0.39100  1.0000
  Ba  Ba4       1.0  0.98200  0.64000  0.39100  1.0000
  Ba  Ba5       1.0  0.01820  0.36000  0.60900  1.0000
  Ba  Ba6       1.0  0.48200  0.86000  0.60900  1.0000
  Ba  Ba7       1.0  0.51800  0.36000  0.89100  1.0000
  Ba  Ba8       1.0  0.98200  0.86000  0.89100  1.0000
  Nb  Nb1       1.0  0.21000  0.39200  0.24500  1.0000
  Nb  Nb2       1.0  0.29000  0.89200  0.24500  1.0000
  Nb  Nb3       1.0  0.71000  0.39200  0.25500  1.0000
  Nb  Nb4       1.0  0.79000  0.89200  0.25500  1.0000
  Nb  Nb5       1.0  0.21000  0.10800  0.74500  1.0000
  Nb  Nb6       1.0  0.29000  0.60800  0.74500  1.0000
  Nb  Nb7       1.0  0.71000  0.10800  0.75500  1.0000
  Nb  Nb8       1.0  0.79000  0.60800  0.75500  1.0000
  O   O1        1.0  0.07470  0.35800  0.07010  1.0000
  O   O2        1.0  0.42500  0.85800  0.07010  1.0000
  O   O3        1.0  0.76500  0.48700  0.09400  1.0000
  O   O4        1.0  0.73500  0.98700  0.09400  1.0000
  O   O5        1.0  0.37900  0.05640  0.15600  1.0000
  O   O6        1.0  0.12100  0.55600  0.15600  1.0000
  O   O7        1.0  0.44400  0.41400  0.16400  1.0000
  O   O8        1.0  0.05560  0.91400  0.16400  1.0000
  O   O9        1.0  0.72000  0.25300  0.20000  1.0000
  O   O10       1.0  0.78000  0.75300  0.20000  1.0000
  O   O11       1.0  0.22000  0.25300  0.30000  1.0000
  O   O12       1.0  0.28000  0.75300  0.30000  1.0000
  O   O13       1.0  0.94400  0.41400  0.33600  1.0000
  O   O14       1.0  0.55600  0.91400  0.33600  1.0000
  O   O15       1.0  0.87900  0.05640  0.34400  1.0000
  O   O16       1.0  0.62100  0.55600  0.34400  1.0000
  O   O17       1.0  0.26500  0.48700  0.40600  1.0000
  O   O18       1.0  0.23500  0.98700  0.40600  1.0000
  O   O19       1.0  0.57500  0.35800  0.43000  1.0000
  O   O20       1.0  0.92500  0.85800  0.43000  1.0000
  O   O21       1.0  0.07470  0.14200  0.57000  1.0000
  O   O22       1.0  0.42500  0.64200  0.57000  1.0000
  O   O23       1.0  0.76500  0.01260  0.59400  1.0000
  O   O24       1.0  0.73500  0.51300  0.59400  1.0000
  O   O25       1.0  0.37900  0.44400  0.65600  1.0000
  O   O26       1.0  0.12100  0.94400  0.65600  1.0000
  O   O27       1.0  0.44400  0.08610  0.66400  1.0000
  O   O28       1.0  0.05560  0.58600  0.66400  1.0000
  O   O29       1.0  0.72000  0.24700  0.70000  1.0000
  O   O30       1.0  0.78000  0.74700  0.70000  1.0000
  O   O31       1.0  0.22000  0.24700  0.80000  1.0000
  O   O32       1.0  0.28000  0.74700  0.80000  1.0000
  O   O33       1.0  0.94400  0.08610  0.83600  1.0000
  O   O34       1.0  0.55600  0.58600  0.83600  1.0000
  O   O35       1.0  0.87900  0.44400  0.84400  1.0000
  O   O36       1.0  0.62100  0.94400  0.84400  1.0000
  O   O37       1.0  0.26500  0.01260  0.90600  1.0000
  O   O38       1.0  0.23500  0.51300  0.90600  1.0000
  O   O39       1.0  0.57500  0.14200  0.93000  1.0000
  O   O40       1.0  0.92500  0.64200  0.93000  1.0000
  Te  Te1       1.0  0.50000  0.00000  0.00000  1.0000
  Te  Te2       1.0  0.00000  0.50000  0.00000  1.0000
  Te  Te3       1.0  0.00000  0.00000  0.50000  1.0000
  Te  Te4       1.0  0.50000  0.50000  0.50000  1.0000
