data_image0
_chemical_formula_structural       F44N4S4Sb8
_chemical_formula_sum              "F44 N4 S4 Sb8"
_cell_length_a       7.57023
_cell_length_b       11.0569
_cell_length_c       9.26387
_cell_angle_alpha    90
_cell_angle_beta     93.4865
_cell_angle_gamma    90

_space_group_name_H-M_alt    "P 1"
_space_group_IT_number       1

loop_
  _space_group_symop_operation_xyz
  'x, y, z'

loop_
  _atom_site_type_symbol
  _atom_site_label
  _atom_site_symmetry_multiplicity
  _atom_site_fract_x
  _atom_site_fract_y
  _atom_site_fract_z
  _atom_site_occupancy
  F   F1        1.0  0.74100  0.11800  0.05150  1.0000
  F   F2        1.0  0.40900  0.24400  0.06240  1.0000
  F   F3        1.0  0.11400  0.09290  0.06730  1.0000
  F   F4        1.0  0.07800  0.34500  0.08080  1.0000
  F   F5        1.0  0.39100  0.48300  0.09940  1.0000
  F   F6        1.0  0.44500  0.02380  0.14700  1.0000
  F   F7        1.0  0.02890  0.79100  0.15300  1.0000
  F   F8        1.0  0.70900  0.88700  0.16900  1.0000
  F   F9        1.0  0.74300  0.65300  0.17200  1.0000
  F   F10       1.0  0.37800  0.71700  0.19300  1.0000
  F   F11       1.0  0.08340  0.55700  0.20100  1.0000
  F   F12       1.0  0.91700  0.05740  0.29900  1.0000
  F   F13       1.0  0.62200  0.21700  0.30700  1.0000
  F   F14       1.0  0.25700  0.15300  0.32800  1.0000
  F   F15       1.0  0.29100  0.38700  0.33100  1.0000
  F   F16       1.0  0.97100  0.29100  0.34700  1.0000
  F   F17       1.0  0.55500  0.52400  0.35300  1.0000
  F   F18       1.0  0.60900  0.98300  0.40100  1.0000
  F   F19       1.0  0.92200  0.84500  0.41900  1.0000
  F   F20       1.0  0.88600  0.59300  0.43300  1.0000
  F   F21       1.0  0.59100  0.74400  0.43800  1.0000
  F   F22       1.0  0.25900  0.61800  0.44800  1.0000
  F   F23       1.0  0.74100  0.38200  0.55200  1.0000
  F   F24       1.0  0.40900  0.25600  0.56200  1.0000
  F   F25       1.0  0.11400  0.40700  0.56700  1.0000
  F   F26       1.0  0.07800  0.15500  0.58100  1.0000
  F   F27       1.0  0.39100  0.01740  0.59900  1.0000
  F   F28       1.0  0.44500  0.47600  0.64700  1.0000
  F   F29       1.0  0.02890  0.70900  0.65300  1.0000
  F   F30       1.0  0.70900  0.61300  0.66900  1.0000
  F   F31       1.0  0.74300  0.84700  0.67200  1.0000
  F   F32       1.0  0.37800  0.78300  0.69300  1.0000
  F   F33       1.0  0.08340  0.94300  0.70100  1.0000
  F   F34       1.0  0.91700  0.44300  0.79900  1.0000
  F   F35       1.0  0.62200  0.28300  0.80700  1.0000
  F   F36       1.0  0.25700  0.34700  0.82800  1.0000
  F   F37       1.0  0.29100  0.11300  0.83100  1.0000
  F   F38       1.0  0.97100  0.20900  0.84700  1.0000
  F   F39       1.0  0.55500  0.97600  0.85300  1.0000
  F   F40       1.0  0.60900  0.51700  0.90100  1.0000
  F   F41       1.0  0.92200  0.65500  0.91900  1.0000
  F   F42       1.0  0.88600  0.90700  0.93300  1.0000
  F   F43       1.0  0.59100  0.75600  0.93800  1.0000
  F   F44       1.0  0.25900  0.88200  0.94800  1.0000
  N   N1        1.0  0.73100  0.37500  0.09290  1.0000
  N   N2        1.0  0.26900  0.87500  0.40700  1.0000
  N   N3        1.0  0.73100  0.12500  0.59300  1.0000
  N   N4        1.0  0.26900  0.62500  0.90700  1.0000
  S   S1        1.0  0.78700  0.43700  0.22300  1.0000
  S   S2        1.0  0.21300  0.93700  0.27700  1.0000
  S   S3        1.0  0.78700  0.06320  0.72300  1.0000
  S   S4        1.0  0.21300  0.56300  0.77700  1.0000
  Sb  Sb1       1.0  0.81500  0.76900  0.03470  1.0000
  Sb  Sb2       1.0  0.67400  0.06400  0.23300  1.0000
  Sb  Sb3       1.0  0.32600  0.56400  0.26700  1.0000
  Sb  Sb4       1.0  0.18500  0.26900  0.46500  1.0000
  Sb  Sb5       1.0  0.81500  0.73100  0.53500  1.0000
  Sb  Sb6       1.0  0.67400  0.43600  0.73300  1.0000
  Sb  Sb7       1.0  0.32600  0.93600  0.76700  1.0000
  Sb  Sb8       1.0  0.18500  0.23100  0.96500  1.0000
