data_image0
_chemical_formula_structural       H8Na8O32Si12
_chemical_formula_sum              "H8 Na8 O32 Si12"
_cell_length_a       7.2345
_cell_length_b       12.6029
_cell_length_c       8.99714
_cell_angle_alpha    90
_cell_angle_beta     119.593
_cell_angle_gamma    90

_space_group_name_H-M_alt    "P 1"
_space_group_IT_number       1

loop_
  _space_group_symop_operation_xyz
  'x, y, z'

loop_
  _atom_site_type_symbol
  _atom_site_label
  _atom_site_symmetry_multiplicity
  _atom_site_fract_x
  _atom_site_fract_y
  _atom_site_fract_z
  _atom_site_occupancy
  H   H1        1.0  0.78400  0.39300  0.17500  1.0000
  H   H2        1.0  0.16500  0.99600  0.21000  1.0000
  H   H3        1.0  0.83500  0.49600  0.29000  1.0000
  H   H4        1.0  0.21600  0.89300  0.32500  1.0000
  H   H5        1.0  0.78400  0.10700  0.67500  1.0000
  H   H6        1.0  0.16500  0.50400  0.71000  1.0000
  H   H7        1.0  0.83500  0.00412  0.79000  1.0000
  H   H8        1.0  0.21600  0.60700  0.82500  1.0000
  Na  Na1       1.0  0.85900  0.16800  0.00956  1.0000
  Na  Na2       1.0  0.71700  0.92400  0.03530  1.0000
  Na  Na3       1.0  0.28300  0.42400  0.46500  1.0000
  Na  Na4       1.0  0.14100  0.66800  0.49000  1.0000
  Na  Na5       1.0  0.85900  0.33200  0.51000  1.0000
  Na  Na6       1.0  0.71700  0.57600  0.53500  1.0000
  Na  Na7       1.0  0.28300  0.07630  0.96500  1.0000
  Na  Na8       1.0  0.14100  0.83200  0.99000  1.0000
  O   O1        1.0  0.37900  0.31200  0.00752  1.0000
  O   O2        1.0  0.01780  0.66000  0.07360  1.0000
  O   O3        1.0  0.26100  0.49700  0.08390  1.0000
  O   O4        1.0  0.66800  0.08860  0.12000  1.0000
  O   O5        1.0  0.38900  0.69300  0.13700  1.0000
  O   O6        1.0  0.20900  0.11200  0.18000  1.0000
  O   O7        1.0  0.12200  0.91800  0.20900  1.0000
  O   O8        1.0  0.71900  0.82000  0.24700  1.0000
  O   O9        1.0  0.28100  0.32000  0.25300  1.0000
  O   O10       1.0  0.87800  0.41800  0.29100  1.0000
  O   O11       1.0  0.79100  0.61200  0.32000  1.0000
  O   O12       1.0  0.61100  0.19300  0.36300  1.0000
  O   O13       1.0  0.33200  0.58900  0.38000  1.0000
  O   O14       1.0  0.73900  0.99700  0.41600  1.0000
  O   O15       1.0  0.98200  0.16000  0.42600  1.0000
  O   O16       1.0  0.62100  0.81200  0.49200  1.0000
  O   O17       1.0  0.37900  0.18800  0.50800  1.0000
  O   O18       1.0  0.01780  0.84000  0.57400  1.0000
  O   O19       1.0  0.26100  0.00337  0.58400  1.0000
  O   O20       1.0  0.66800  0.41100  0.62000  1.0000
  O   O21       1.0  0.38900  0.80700  0.63700  1.0000
  O   O22       1.0  0.20900  0.38800  0.68000  1.0000
  O   O23       1.0  0.12200  0.58200  0.70900  1.0000
  O   O24       1.0  0.71900  0.68000  0.74700  1.0000
  O   O25       1.0  0.28100  0.18000  0.75300  1.0000
  O   O26       1.0  0.87800  0.08180  0.79100  1.0000
  O   O27       1.0  0.79100  0.88800  0.82000  1.0000
  O   O28       1.0  0.61100  0.30700  0.86300  1.0000
  O   O29       1.0  0.33200  0.91100  0.88000  1.0000
  O   O30       1.0  0.73900  0.50300  0.91600  1.0000
  O   O31       1.0  0.98200  0.34000  0.92600  1.0000
  O   O32       1.0  0.62100  0.68800  0.99200  1.0000
  Si  Si1       1.0  0.22600  0.37000  0.06730  1.0000
  Si  Si2       1.0  0.63900  0.69600  0.18200  1.0000
  Si  Si3       1.0  0.25600  0.60600  0.18400  1.0000
  Si  Si4       1.0  0.74400  0.10600  0.31600  1.0000
  Si  Si5       1.0  0.36100  0.19600  0.31800  1.0000
  Si  Si6       1.0  0.77400  0.87000  0.43300  1.0000
  Si  Si7       1.0  0.22600  0.13000  0.56700  1.0000
  Si  Si8       1.0  0.63900  0.80400  0.68200  1.0000
  Si  Si9       1.0  0.25600  0.89400  0.68400  1.0000
  Si  Si10      1.0  0.74400  0.39400  0.81600  1.0000
  Si  Si11      1.0  0.36100  0.30400  0.81800  1.0000
  Si  Si12      1.0  0.77400  0.63000  0.93300  1.0000
