data_image0
_chemical_formula_structural       B12H4Li4Na4O32Si4
_chemical_formula_sum              "B12 H4 Li4 Na4 O32 Si4"
_cell_length_a       6.69548
_cell_length_b       13.6898
_cell_length_c       7.59172
_cell_angle_alpha    90
_cell_angle_beta     123.927
_cell_angle_gamma    90

_space_group_name_H-M_alt    "P 1"
_space_group_IT_number       1

loop_
  _space_group_symop_operation_xyz
  'x, y, z'

loop_
  _atom_site_type_symbol
  _atom_site_label
  _atom_site_symmetry_multiplicity
  _atom_site_fract_x
  _atom_site_fract_y
  _atom_site_fract_z
  _atom_site_occupancy
  B   B1        1.0  0.31900  0.85300  0.08350  1.0000
  B   B2        1.0  0.23100  0.35100  0.18100  1.0000
  B   B3        1.0  0.46200  0.49800  0.20700  1.0000
  B   B4        1.0  0.53800  0.99800  0.29300  1.0000
  B   B5        1.0  0.76900  0.85100  0.31900  1.0000
  B   B6        1.0  0.68100  0.35300  0.41700  1.0000
  B   B7        1.0  0.31900  0.64700  0.58300  1.0000
  B   B8        1.0  0.23100  0.14900  0.68100  1.0000
  B   B9        1.0  0.46200  0.00193  0.70700  1.0000
  B   B10       1.0  0.53800  0.50200  0.79300  1.0000
  B   B11       1.0  0.76900  0.64900  0.81900  1.0000
  B   B12       1.0  0.68100  0.14700  0.91700  1.0000
  H   H1        1.0  0.30100  0.61800  0.03800  1.0000
  H   H2        1.0  0.69900  0.11800  0.46200  1.0000
  H   H3        1.0  0.30100  0.88200  0.53800  1.0000
  H   H4        1.0  0.69900  0.38200  0.96200  1.0000
  Li  Li1       1.0  0.46000  0.19700  0.13300  1.0000
  Li  Li2       1.0  0.54000  0.69700  0.36700  1.0000
  Li  Li3       1.0  0.46000  0.30300  0.63300  1.0000
  Li  Li4       1.0  0.54000  0.80300  0.86700  1.0000
  Na  Na1       1.0  0.03460  0.00766  0.24100  1.0000
  Na  Na2       1.0  0.96500  0.50800  0.25900  1.0000
  Na  Na3       1.0  0.03460  0.49200  0.74100  1.0000
  Na  Na4       1.0  0.96500  0.99200  0.75900  1.0000
  O   O1        1.0  0.18900  0.27700  0.02230  1.0000
  O   O2        1.0  0.24500  0.45100  0.11100  1.0000
  O   O3        1.0  0.54900  0.83100  0.11600  1.0000
  O   O4        1.0  0.87700  0.15500  0.14100  1.0000
  O   O5        1.0  0.31700  0.95800  0.14700  1.0000
  O   O6        1.0  0.46300  0.59500  0.15100  1.0000
  O   O7        1.0  0.02220  0.34900  0.20200  1.0000
  O   O8        1.0  0.27800  0.78600  0.21100  1.0000
  O   O9        1.0  0.72200  0.28600  0.28900  1.0000
  O   O10       1.0  0.97800  0.84900  0.29800  1.0000
  O   O11       1.0  0.53700  0.09510  0.34900  1.0000
  O   O12       1.0  0.68300  0.45800  0.35300  1.0000
  O   O13       1.0  0.12300  0.65500  0.35900  1.0000
  O   O14       1.0  0.45100  0.33100  0.38400  1.0000
  O   O15       1.0  0.75500  0.95100  0.38900  1.0000
  O   O16       1.0  0.81100  0.77700  0.47800  1.0000
  O   O17       1.0  0.18900  0.22300  0.52200  1.0000
  O   O18       1.0  0.24500  0.04920  0.61100  1.0000
  O   O19       1.0  0.54900  0.66900  0.61600  1.0000
  O   O20       1.0  0.87700  0.34500  0.64100  1.0000
  O   O21       1.0  0.31700  0.54200  0.64700  1.0000
  O   O22       1.0  0.46300  0.90500  0.65100  1.0000
  O   O23       1.0  0.02220  0.15100  0.70200  1.0000
  O   O24       1.0  0.27800  0.71400  0.71100  1.0000
  O   O25       1.0  0.72200  0.21400  0.78900  1.0000
  O   O26       1.0  0.97800  0.65100  0.79800  1.0000
  O   O27       1.0  0.53700  0.40500  0.84900  1.0000
  O   O28       1.0  0.68300  0.04220  0.85300  1.0000
  O   O29       1.0  0.12300  0.84500  0.85900  1.0000
  O   O30       1.0  0.45100  0.16900  0.88400  1.0000
  O   O31       1.0  0.75500  0.54900  0.88900  1.0000
  O   O32       1.0  0.81100  0.72300  0.97800  1.0000
  Si  Si1       1.0  0.04420  0.75200  0.20900  1.0000
  Si  Si2       1.0  0.95600  0.25200  0.29100  1.0000
  Si  Si3       1.0  0.04420  0.74800  0.70900  1.0000
  Si  Si4       1.0  0.95600  0.24800  0.79100  1.0000
