data_image0
_chemical_formula_structural       H24K4O28S4Zn2
_chemical_formula_sum              "H24 K4 O28 S4 Zn2"
_cell_length_a       8.80498
_cell_length_b       11.8614
_cell_length_c       6.02105
_cell_angle_alpha    90
_cell_angle_beta     104.292
_cell_angle_gamma    90

_space_group_name_H-M_alt    "P 1"
_space_group_IT_number       1

loop_
  _space_group_symop_operation_xyz
  'x, y, z'

loop_
  _atom_site_type_symbol
  _atom_site_label
  _atom_site_symmetry_multiplicity
  _atom_site_fract_x
  _atom_site_fract_y
  _atom_site_fract_z
  _atom_site_occupancy
  H   H1        1.0  0.14300  0.80200  0.00188  1.0000
  H   H2        1.0  0.64300  0.69800  0.00188  1.0000
  H   H3        1.0  0.27500  0.89700  0.07550  1.0000
  H   H4        1.0  0.77500  0.60300  0.07550  1.0000
  H   H5        1.0  0.76000  0.37700  0.09410  1.0000
  H   H6        1.0  0.26000  0.12300  0.09410  1.0000
  H   H7        1.0  0.22200  0.08280  0.32900  1.0000
  H   H8        1.0  0.72200  0.41700  0.32900  1.0000
  H   H9        1.0  0.02680  0.85000  0.33300  1.0000
  H   H10       1.0  0.52700  0.65000  0.33300  1.0000
  H   H11       1.0  0.39300  0.55900  0.34100  1.0000
  H   H12       1.0  0.89300  0.94100  0.34100  1.0000
  H   H13       1.0  0.10700  0.05910  0.65900  1.0000
  H   H14       1.0  0.60700  0.44100  0.65900  1.0000
  H   H15       1.0  0.47300  0.35000  0.66700  1.0000
  H   H16       1.0  0.97300  0.15000  0.66700  1.0000
  H   H17       1.0  0.77800  0.91700  0.67100  1.0000
  H   H18       1.0  0.27800  0.58300  0.67100  1.0000
  H   H19       1.0  0.24000  0.62300  0.90600  1.0000
  H   H20       1.0  0.74000  0.87700  0.90600  1.0000
  H   H21       1.0  0.22500  0.39700  0.92400  1.0000
  H   H22       1.0  0.72500  0.10300  0.92400  1.0000
  H   H23       1.0  0.35700  0.30200  0.99800  1.0000
  H   H24       1.0  0.85700  0.19800  0.99800  1.0000
  K   K1        1.0  0.13700  0.33600  0.34600  1.0000
  K   K2        1.0  0.63700  0.16400  0.34600  1.0000
  K   K3        1.0  0.86300  0.66400  0.65400  1.0000
  K   K4        1.0  0.36300  0.83600  0.65400  1.0000
  O   O1        1.0  0.32700  0.37900  0.03870  1.0000
  O   O2        1.0  0.82700  0.12100  0.03870  1.0000
  O   O3        1.0  0.10300  0.66700  0.04560  1.0000
  O   O4        1.0  0.60300  0.83300  0.04560  1.0000
  O   O5        1.0  0.67400  0.38600  0.17300  1.0000
  O   O6        1.0  0.17400  0.11400  0.17300  1.0000
  O   O7        1.0  0.93700  0.56700  0.25200  1.0000
  O   O8        1.0  0.43700  0.93300  0.25200  1.0000
  O   O9        1.0  0.99700  0.93200  0.30500  1.0000
  O   O10       1.0  0.49700  0.56800  0.30500  1.0000
  O   O11       1.0  0.71800  0.94600  0.38400  1.0000
  O   O12       1.0  0.21800  0.55400  0.38400  1.0000
  O   O13       1.0  0.09030  0.73000  0.42700  1.0000
  O   O14       1.0  0.59000  0.77000  0.42700  1.0000
  O   O15       1.0  0.91000  0.27000  0.57300  1.0000
  O   O16       1.0  0.41000  0.23000  0.57300  1.0000
  O   O17       1.0  0.28200  0.05350  0.61600  1.0000
  O   O18       1.0  0.78200  0.44600  0.61600  1.0000
  O   O19       1.0  0.00292  0.06820  0.69500  1.0000
  O   O20       1.0  0.50300  0.43200  0.69500  1.0000
  O   O21       1.0  0.06330  0.43300  0.74800  1.0000
  O   O22       1.0  0.56300  0.06750  0.74800  1.0000
  O   O23       1.0  0.82600  0.88600  0.82700  1.0000
  O   O24       1.0  0.32600  0.61400  0.82700  1.0000
  O   O25       1.0  0.39700  0.16700  0.95400  1.0000
  O   O26       1.0  0.89700  0.33300  0.95400  1.0000
  O   O27       1.0  0.17300  0.87900  0.96100  1.0000
  O   O28       1.0  0.67300  0.62100  0.96100  1.0000
  S   S1        1.0  0.08520  0.63000  0.27500  1.0000
  S   S2        1.0  0.58500  0.87000  0.27500  1.0000
  S   S3        1.0  0.91500  0.37000  0.72500  1.0000
  S   S4        1.0  0.41500  0.13000  0.72500  1.0000
  Zn  Zn1       1.0  0.00000  0.00000  0.00000  1.0000
  Zn  Zn2       1.0  0.50000  0.50000  0.00000  1.0000
