data_image0
_chemical_formula_structural       Ge8K20Li4O28
_chemical_formula_sum              "Ge8 K20 Li4 O28"
_cell_length_a       6.21544
_cell_length_b       15.8028
_cell_length_c       10.5448
_cell_angle_alpha    90
_cell_angle_beta     109.557
_cell_angle_gamma    90

_space_group_name_H-M_alt    "P 1"
_space_group_IT_number       1

loop_
  _space_group_symop_operation_xyz
  'x, y, z'

loop_
  _atom_site_type_symbol
  _atom_site_label
  _atom_site_symmetry_multiplicity
  _atom_site_fract_x
  _atom_site_fract_y
  _atom_site_fract_z
  _atom_site_occupancy
  Ge  Ge1       1.0  0.22900  0.76500  0.11200  1.0000
  Ge  Ge2       1.0  0.73600  0.44700  0.24500  1.0000
  Ge  Ge3       1.0  0.26400  0.94700  0.25500  1.0000
  Ge  Ge4       1.0  0.77100  0.26500  0.38800  1.0000
  Ge  Ge5       1.0  0.22900  0.73500  0.61200  1.0000
  Ge  Ge6       1.0  0.73600  0.05300  0.74500  1.0000
  Ge  Ge7       1.0  0.26400  0.55300  0.75500  1.0000
  Ge  Ge8       1.0  0.77100  0.23500  0.88800  1.0000
  K   K1        1.0  0.25900  0.55600  0.07960  1.0000
  K   K2        1.0  0.75200  0.06670  0.08170  1.0000
  K   K3        1.0  0.29900  0.16500  0.08780  1.0000
  K   K4        1.0  0.78200  0.65500  0.11200  1.0000
  K   K5        1.0  0.23000  0.36900  0.23500  1.0000
  K   K6        1.0  0.77000  0.86900  0.26500  1.0000
  K   K7        1.0  0.21800  0.15500  0.38800  1.0000
  K   K8        1.0  0.70100  0.66500  0.41200  1.0000
  K   K9        1.0  0.24800  0.56700  0.41800  1.0000
  K   K10       1.0  0.74100  0.05610  0.42000  1.0000
  K   K11       1.0  0.25900  0.94400  0.58000  1.0000
  K   K12       1.0  0.75200  0.43300  0.58200  1.0000
  K   K13       1.0  0.29900  0.33500  0.58800  1.0000
  K   K14       1.0  0.78200  0.84500  0.61200  1.0000
  K   K15       1.0  0.23000  0.13100  0.73500  1.0000
  K   K16       1.0  0.77000  0.63100  0.76500  1.0000
  K   K17       1.0  0.21800  0.34500  0.88800  1.0000
  K   K18       1.0  0.70100  0.83500  0.91200  1.0000
  K   K19       1.0  0.24800  0.93300  0.91800  1.0000
  K   K20       1.0  0.74100  0.44400  0.92000  1.0000
  Li  Li1       1.0  0.70300  0.28000  0.10400  1.0000
  Li  Li2       1.0  0.29700  0.78000  0.39600  1.0000
  Li  Li3       1.0  0.70300  0.22000  0.60400  1.0000
  Li  Li4       1.0  0.29700  0.72000  0.89600  1.0000
  O   O1        1.0  0.96800  0.28200  0.03210  1.0000
  O   O2        1.0  0.47900  0.78300  0.07200  1.0000
  O   O3        1.0  0.54700  0.38900  0.11000  1.0000
  O   O4        1.0  0.09540  0.86700  0.13000  1.0000
  O   O5        1.0  0.41100  0.00959  0.17300  1.0000
  O   O6        1.0  0.94000  0.50200  0.19300  1.0000
  O   O7        1.0  0.73600  0.20100  0.24700  1.0000
  O   O8        1.0  0.26400  0.70100  0.25300  1.0000
  O   O9        1.0  0.06050  0.00196  0.30700  1.0000
  O   O10       1.0  0.58900  0.51000  0.32700  1.0000
  O   O11       1.0  0.90500  0.36700  0.37000  1.0000
  O   O12       1.0  0.45300  0.88900  0.39000  1.0000
  O   O13       1.0  0.52100  0.28300  0.42800  1.0000
  O   O14       1.0  0.03180  0.78200  0.46800  1.0000
  O   O15       1.0  0.96800  0.21800  0.53200  1.0000
  O   O16       1.0  0.47900  0.71700  0.57200  1.0000
  O   O17       1.0  0.54700  0.11100  0.61000  1.0000
  O   O18       1.0  0.09540  0.63300  0.63000  1.0000
  O   O19       1.0  0.41100  0.49000  0.67300  1.0000
  O   O20       1.0  0.94000  0.99800  0.69300  1.0000
  O   O21       1.0  0.73600  0.29900  0.74700  1.0000
  O   O22       1.0  0.26400  0.79900  0.75300  1.0000
  O   O23       1.0  0.06050  0.49800  0.80700  1.0000
  O   O24       1.0  0.58900  0.99000  0.82700  1.0000
  O   O25       1.0  0.90500  0.13300  0.87000  1.0000
  O   O26       1.0  0.45300  0.61100  0.89000  1.0000
  O   O27       1.0  0.52100  0.21700  0.92800  1.0000
  O   O28       1.0  0.03180  0.71800  0.96800  1.0000
