data_image0
_chemical_formula_structural       Ag4C16Cs4N16S16Zn4
_chemical_formula_sum              "Ag4 C16 Cs4 N16 S16 Zn4"
_cell_length_a       9.01954
_cell_length_b       16.6868
_cell_length_c       9.03287
_cell_angle_alpha    90
_cell_angle_beta     98.5323
_cell_angle_gamma    90

_space_group_name_H-M_alt    "P 1"
_space_group_IT_number       1

loop_
  _space_group_symop_operation_xyz
  'x, y, z'

loop_
  _atom_site_type_symbol
  _atom_site_label
  _atom_site_symmetry_multiplicity
  _atom_site_fract_x
  _atom_site_fract_y
  _atom_site_fract_z
  _atom_site_occupancy
  Ag  Ag1       1.0  0.92400  0.26000  0.16000  1.0000
  Ag  Ag2       1.0  0.57600  0.76000  0.34000  1.0000
  Ag  Ag3       1.0  0.42400  0.24000  0.66000  1.0000
  Ag  Ag4       1.0  0.07620  0.74000  0.84000  1.0000
  C   C1        1.0  0.81500  0.09010  0.02280  1.0000
  C   C2        1.0  0.21000  0.31900  0.02830  1.0000
  C   C3        1.0  0.36100  0.62600  0.11600  1.0000
  C   C4        1.0  0.75200  0.41800  0.24300  1.0000
  C   C5        1.0  0.74800  0.91800  0.25700  1.0000
  C   C6        1.0  0.13900  0.12600  0.38400  1.0000
  C   C7        1.0  0.29000  0.81900  0.47200  1.0000
  C   C8        1.0  0.68500  0.59000  0.47700  1.0000
  C   C9        1.0  0.31500  0.41000  0.52300  1.0000
  C   C10       1.0  0.71000  0.18100  0.52800  1.0000
  C   C11       1.0  0.86100  0.87400  0.61600  1.0000
  C   C12       1.0  0.25200  0.08220  0.74300  1.0000
  C   C13       1.0  0.24800  0.58200  0.75700  1.0000
  C   C14       1.0  0.63900  0.37400  0.88400  1.0000
  C   C15       1.0  0.79000  0.68100  0.97200  1.0000
  C   C16       1.0  0.18500  0.91000  0.97700  1.0000
  Cs  Cs1       1.0  0.39000  0.12400  0.14600  1.0000
  Cs  Cs2       1.0  0.11000  0.62400  0.35400  1.0000
  Cs  Cs3       1.0  0.89000  0.37600  0.64600  1.0000
  Cs  Cs4       1.0  0.61000  0.87600  0.85400  1.0000
  N   N1        1.0  0.29600  0.36700  0.08540  1.0000
  N   N2        1.0  0.16400  0.94000  0.09130  1.0000
  N   N3        1.0  0.36000  0.55600  0.13900  1.0000
  N   N4        1.0  0.62200  0.42600  0.24000  1.0000
  N   N5        1.0  0.87800  0.92600  0.26000  1.0000
  N   N6        1.0  0.14000  0.05580  0.36100  1.0000
  N   N7        1.0  0.33600  0.44000  0.40900  1.0000
  N   N8        1.0  0.20400  0.86700  0.41500  1.0000
  N   N9        1.0  0.79600  0.13300  0.58500  1.0000
  N   N10       1.0  0.66400  0.56000  0.59100  1.0000
  N   N11       1.0  0.86000  0.94400  0.63900  1.0000
  N   N12       1.0  0.12200  0.07370  0.74000  1.0000
  N   N13       1.0  0.37800  0.57400  0.76000  1.0000
  N   N14       1.0  0.64000  0.44400  0.86100  1.0000
  N   N15       1.0  0.83600  0.05990  0.90900  1.0000
  N   N16       1.0  0.70400  0.63300  0.91500  1.0000
  S   S1        1.0  0.90400  0.74900  0.05110  1.0000
  S   S2        1.0  0.35300  0.72100  0.08800  1.0000
  S   S3        1.0  0.78500  0.12900  0.18000  1.0000
  S   S4        1.0  0.56700  0.90600  0.24800  1.0000
  S   S5        1.0  0.93300  0.40600  0.25200  1.0000
  S   S6        1.0  0.71500  0.62900  0.32000  1.0000
  S   S7        1.0  0.14700  0.22100  0.41200  1.0000
  S   S8        1.0  0.59600  0.24900  0.44900  1.0000
  S   S9        1.0  0.40400  0.75100  0.55100  1.0000
  S   S10       1.0  0.85300  0.77900  0.58800  1.0000
  S   S11       1.0  0.28500  0.37100  0.68000  1.0000
  S   S12       1.0  0.06700  0.59400  0.74800  1.0000
  S   S13       1.0  0.43300  0.09390  0.75200  1.0000
  S   S14       1.0  0.21500  0.87100  0.82000  1.0000
  S   S15       1.0  0.64700  0.27900  0.91200  1.0000
  S   S16       1.0  0.09580  0.25100  0.94900  1.0000
  Zn  Zn1       1.0  0.40800  0.44800  0.21300  1.0000
  Zn  Zn2       1.0  0.09200  0.94800  0.28700  1.0000
  Zn  Zn3       1.0  0.90800  0.05200  0.71300  1.0000
  Zn  Zn4       1.0  0.59200  0.55200  0.78700  1.0000
