data_image0
_chemical_formula_structural       Ba4Ni4O4Te4
_chemical_formula_sum              "Ba4 Ni4 O4 Te4"
_cell_length_a       6.71106
_cell_length_b       4.39592
_cell_length_c       14.0815
_cell_angle_alpha    90
_cell_angle_beta     90
_cell_angle_gamma    90

_space_group_name_H-M_alt    "P 1"
_space_group_IT_number       1

loop_
  _space_group_symop_operation_xyz
  'x, y, z'

loop_
  _atom_site_type_symbol
  _atom_site_label
  _atom_site_symmetry_multiplicity
  _atom_site_fract_x
  _atom_site_fract_y
  _atom_site_fract_z
  _atom_site_occupancy
  Ba  Ba1       1.0  0.25500  0.75000  0.09620  1.0000
  Ba  Ba2       1.0  0.75500  0.75000  0.40400  1.0000
  Ba  Ba3       1.0  0.24500  0.25000  0.59600  1.0000
  Ba  Ba4       1.0  0.74500  0.25000  0.90400  1.0000
  Ni  Ni1       1.0  0.60400  0.25000  0.21300  1.0000
  Ni  Ni2       1.0  0.10400  0.25000  0.28700  1.0000
  Ni  Ni3       1.0  0.89600  0.75000  0.71300  1.0000
  Ni  Ni4       1.0  0.39600  0.75000  0.78700  1.0000
  O   O1        1.0  0.31300  0.25000  0.19000  1.0000
  O   O2        1.0  0.81300  0.25000  0.31000  1.0000
  O   O3        1.0  0.18700  0.75000  0.69000  1.0000
  O   O4        1.0  0.68700  0.75000  0.81000  1.0000
  Te  Te1       1.0  0.75000  0.75000  0.11500  1.0000
  Te  Te2       1.0  0.25000  0.75000  0.38500  1.0000
  Te  Te3       1.0  0.75000  0.25000  0.61500  1.0000
  Te  Te4       1.0  0.25000  0.25000  0.88500  1.0000
