data_image0
_chemical_formula_structural       Cl44Ir4S12
_chemical_formula_sum              "Cl44 Ir4 S12"
_cell_length_a       8.1188
_cell_length_b       13.3695
_cell_length_c       15.1842
_cell_angle_alpha    90
_cell_angle_beta     105.54
_cell_angle_gamma    90

_space_group_name_H-M_alt    "P 1"
_space_group_IT_number       1

loop_
  _space_group_symop_operation_xyz
  'x, y, z'

loop_
  _atom_site_type_symbol
  _atom_site_label
  _atom_site_symmetry_multiplicity
  _atom_site_fract_x
  _atom_site_fract_y
  _atom_site_fract_z
  _atom_site_occupancy
  Cl  Cl1       1.0  0.35400  0.75400  0.03770  1.0000
  Cl  Cl2       1.0  0.68200  0.55800  0.05840  1.0000
  Cl  Cl3       1.0  0.37300  0.21100  0.07220  1.0000
  Cl  Cl4       1.0  0.64700  0.91500  0.10400  1.0000
  Cl  Cl5       1.0  0.17500  0.98600  0.10600  1.0000
  Cl  Cl6       1.0  0.96700  0.73700  0.11800  1.0000
  Cl  Cl7       1.0  0.05530  0.36700  0.13000  1.0000
  Cl  Cl8       1.0  0.89000  0.14000  0.17100  1.0000
  Cl  Cl9       1.0  0.32600  0.54500  0.18400  1.0000
  Cl  Cl10      1.0  0.65900  0.37300  0.21100  1.0000
  Cl  Cl11      1.0  0.68400  0.68400  0.24100  1.0000
  Cl  Cl12      1.0  0.31600  0.18400  0.25900  1.0000
  Cl  Cl13      1.0  0.34100  0.87300  0.28900  1.0000
  Cl  Cl14      1.0  0.67400  0.04480  0.31600  1.0000
  Cl  Cl15      1.0  0.11000  0.64000  0.32900  1.0000
  Cl  Cl16      1.0  0.94500  0.86700  0.37000  1.0000
  Cl  Cl17      1.0  0.03300  0.23700  0.38200  1.0000
  Cl  Cl18      1.0  0.82500  0.48600  0.39400  1.0000
  Cl  Cl19      1.0  0.35300  0.41500  0.39600  1.0000
  Cl  Cl20      1.0  0.62700  0.71100  0.42800  1.0000
  Cl  Cl21      1.0  0.31800  0.05760  0.44200  1.0000
  Cl  Cl22      1.0  0.64600  0.25400  0.46200  1.0000
  Cl  Cl23      1.0  0.35400  0.74600  0.53800  1.0000
  Cl  Cl24      1.0  0.68200  0.94200  0.55800  1.0000
  Cl  Cl25      1.0  0.37300  0.28900  0.57200  1.0000
  Cl  Cl26      1.0  0.64700  0.58500  0.60400  1.0000
  Cl  Cl27      1.0  0.17500  0.51400  0.60600  1.0000
  Cl  Cl28      1.0  0.96700  0.76300  0.61800  1.0000
  Cl  Cl29      1.0  0.05530  0.13300  0.63000  1.0000
  Cl  Cl30      1.0  0.89000  0.36000  0.67100  1.0000
  Cl  Cl31      1.0  0.32600  0.95500  0.68400  1.0000
  Cl  Cl32      1.0  0.65900  0.12700  0.71100  1.0000
  Cl  Cl33      1.0  0.68400  0.81600  0.74100  1.0000
  Cl  Cl34      1.0  0.31600  0.31600  0.75900  1.0000
  Cl  Cl35      1.0  0.34100  0.62700  0.78900  1.0000
  Cl  Cl36      1.0  0.67400  0.45500  0.81600  1.0000
  Cl  Cl37      1.0  0.11000  0.86000  0.82900  1.0000
  Cl  Cl38      1.0  0.94500  0.63300  0.87000  1.0000
  Cl  Cl39      1.0  0.03300  0.26300  0.88200  1.0000
  Cl  Cl40      1.0  0.82500  0.01370  0.89400  1.0000
  Cl  Cl41      1.0  0.35300  0.08500  0.89600  1.0000
  Cl  Cl42      1.0  0.62700  0.78900  0.92800  1.0000
  Cl  Cl43      1.0  0.31800  0.44200  0.94200  1.0000
  Cl  Cl44      1.0  0.64600  0.24600  0.96200  1.0000
  Ir  Ir1       1.0  0.89900  0.59100  0.19600  1.0000
  Ir  Ir2       1.0  0.10100  0.09120  0.30400  1.0000
  Ir  Ir3       1.0  0.89900  0.90900  0.69600  1.0000
  Ir  Ir4       1.0  0.10100  0.40900  0.80400  1.0000
  S   S1        1.0  0.61400  0.76800  0.05970  1.0000
  S   S2        1.0  0.07370  0.52000  0.12100  1.0000
  S   S3        1.0  0.12400  0.95200  0.22800  1.0000
  S   S4        1.0  0.87600  0.45200  0.27200  1.0000
  S   S5        1.0  0.92600  0.02000  0.37900  1.0000
  S   S6        1.0  0.38600  0.26800  0.44000  1.0000
  S   S7        1.0  0.61400  0.73200  0.56000  1.0000
  S   S8        1.0  0.07370  0.98000  0.62100  1.0000
  S   S9        1.0  0.12400  0.54800  0.72800  1.0000
  S   S10       1.0  0.87600  0.04780  0.77200  1.0000
  S   S11       1.0  0.92600  0.48000  0.87900  1.0000
  S   S12       1.0  0.38600  0.23200  0.94000  1.0000
