data_image0
_chemical_formula_structural       K8O36P8Ti8
_chemical_formula_sum              "K8 O36 P8 Ti8"
_cell_length_a       12.8791
_cell_length_b       6.38909
_cell_length_c       10.5708
_cell_angle_alpha    90
_cell_angle_beta     90
_cell_angle_gamma    90

_space_group_name_H-M_alt    "P 1"
_space_group_IT_number       1

loop_
  _space_group_symop_operation_xyz
  'x, y, z'

loop_
  _atom_site_type_symbol
  _atom_site_label
  _atom_site_symmetry_multiplicity
  _atom_site_fract_x
  _atom_site_fract_y
  _atom_site_fract_z
  _atom_site_occupancy
  K   K1        1.0  0.62300  0.22300  0.18600  1.0000
  K   K2        1.0  0.12300  0.27700  0.18600  1.0000
  K   K3        1.0  0.40100  0.21100  0.42900  1.0000
  K   K4        1.0  0.90100  0.28900  0.42900  1.0000
  K   K5        1.0  0.87700  0.72300  0.68600  1.0000
  K   K6        1.0  0.37700  0.77700  0.68600  1.0000
  K   K7        1.0  0.09930  0.71100  0.92900  1.0000
  K   K8        1.0  0.59900  0.78900  0.92900  1.0000
  O   O1        1.0  0.37500  0.19100  0.02930  1.0000
  O   O2        1.0  0.87500  0.30900  0.02930  1.0000
  O   O3        1.0  0.73900  0.56800  0.09260  1.0000
  O   O4        1.0  0.23900  0.93200  0.09260  1.0000
  O   O5        1.0  0.48900  0.53600  0.11800  1.0000
  O   O6        1.0  0.98900  0.96400  0.11800  1.0000
  O   O7        1.0  0.10400  0.69100  0.21700  1.0000
  O   O8        1.0  0.60400  0.80900  0.21700  1.0000
  O   O9        1.0  0.91200  0.67000  0.25500  1.0000
  O   O10       1.0  0.41200  0.83000  0.25500  1.0000
  O   O11       1.0  0.51400  0.52500  0.34800  1.0000
  O   O12       1.0  0.01390  0.97500  0.34800  1.0000
  O   O13       1.0  0.25500  0.53000  0.36700  1.0000
  O   O14       1.0  0.75500  0.97000  0.36700  1.0000
  O   O15       1.0  0.73900  0.51800  0.38400  1.0000
  O   O16       1.0  0.23900  0.98200  0.38400  1.0000
  O   O17       1.0  0.60700  0.18300  0.45400  1.0000
  O   O18       1.0  0.10700  0.31700  0.45400  1.0000
  O   O19       1.0  0.12500  0.69100  0.52900  1.0000
  O   O20       1.0  0.62500  0.80900  0.52900  1.0000
  O   O21       1.0  0.76100  0.06790  0.59300  1.0000
  O   O22       1.0  0.26100  0.43200  0.59300  1.0000
  O   O23       1.0  0.01130  0.03580  0.61800  1.0000
  O   O24       1.0  0.51100  0.46400  0.61800  1.0000
  O   O25       1.0  0.39600  0.19100  0.71700  1.0000
  O   O26       1.0  0.89600  0.30900  0.71700  1.0000
  O   O27       1.0  0.58800  0.17000  0.75500  1.0000
  O   O28       1.0  0.08790  0.33000  0.75500  1.0000
  O   O29       1.0  0.98600  0.02470  0.84800  1.0000
  O   O30       1.0  0.48600  0.47500  0.84800  1.0000
  O   O31       1.0  0.24500  0.02990  0.86700  1.0000
  O   O32       1.0  0.74500  0.47000  0.86700  1.0000
  O   O33       1.0  0.76100  0.01780  0.88400  1.0000
  O   O34       1.0  0.26100  0.48200  0.88400  1.0000
  O   O35       1.0  0.89300  0.68300  0.95400  1.0000
  O   O36       1.0  0.39300  0.81700  0.95400  1.0000
  P   P1        1.0  0.50400  0.67900  0.23500  1.0000
  P   P2        1.0  0.00410  0.82100  0.23500  1.0000
  P   P3        1.0  0.68400  0.00684  0.48500  1.0000
  P   P4        1.0  0.18400  0.49300  0.48500  1.0000
  P   P5        1.0  0.99600  0.17900  0.73500  1.0000
  P   P6        1.0  0.49600  0.32100  0.73500  1.0000
  P   P7        1.0  0.81600  0.50700  0.98500  1.0000
  P   P8        1.0  0.31600  0.99300  0.98500  1.0000
  Ti  Ti1       1.0  0.75700  0.71700  0.25600  1.0000
  Ti  Ti2       1.0  0.25700  0.78300  0.25600  1.0000
  Ti  Ti3       1.0  0.62000  0.50900  0.48400  1.0000
  Ti  Ti4       1.0  0.12000  0.99100  0.48400  1.0000
  Ti  Ti5       1.0  0.74300  0.21700  0.75600  1.0000
  Ti  Ti6       1.0  0.24300  0.28300  0.75600  1.0000
  Ti  Ti7       1.0  0.88000  0.00877  0.98400  1.0000
  Ti  Ti8       1.0  0.38000  0.49100  0.98400  1.0000
