data_image0
_chemical_formula_structural       B8H44Li4N8
_chemical_formula_sum              "B8 H44 Li4 N8"
_cell_length_a       6.60637
_cell_length_b       13.8268
_cell_length_c       4.89419
_cell_angle_alpha    90
_cell_angle_beta     99.6014
_cell_angle_gamma    90

_space_group_name_H-M_alt    "P 1"
_space_group_IT_number       1

loop_
  _space_group_symop_operation_xyz
  'x, y, z'

loop_
  _atom_site_type_symbol
  _atom_site_label
  _atom_site_symmetry_multiplicity
  _atom_site_fract_x
  _atom_site_fract_y
  _atom_site_fract_z
  _atom_site_occupancy
  B   B1        1.0  0.05920  0.91100  0.77000  1.0000
  B   B2        1.0  0.94100  0.41100  0.73000  1.0000
  B   B3        1.0  0.94100  0.08940  0.23000  1.0000
  B   B4        1.0  0.05920  0.58900  0.27000  1.0000
  B   B5        1.0  0.55500  0.85800  0.38200  1.0000
  B   B6        1.0  0.44500  0.35800  0.11800  1.0000
  B   B7        1.0  0.44500  0.14200  0.61800  1.0000
  B   B8        1.0  0.55500  0.64200  0.88200  1.0000
  H   H1        1.0  0.19800  0.96400  0.88200  1.0000
  H   H2        1.0  0.80200  0.46400  0.61800  1.0000
  H   H3        1.0  0.80200  0.03580  0.11800  1.0000
  H   H4        1.0  0.19800  0.53600  0.38200  1.0000
  H   H5        1.0  0.12000  0.87100  0.57100  1.0000
  H   H6        1.0  0.88000  0.37100  0.92900  1.0000
  H   H7        1.0  0.88000  0.12900  0.42900  1.0000
  H   H8        1.0  0.12000  0.62900  0.07090  1.0000
  H   H9        1.0  0.65600  0.92100  0.79000  1.0000
  H   H10       1.0  0.34400  0.42100  0.71000  1.0000
  H   H11       1.0  0.34400  0.07930  0.21000  1.0000
  H   H12       1.0  0.65600  0.57900  0.29000  1.0000
  H   H13       1.0  0.54700  0.81200  0.80300  1.0000
  H   H14       1.0  0.45300  0.31200  0.69700  1.0000
  H   H15       1.0  0.45300  0.18800  0.19700  1.0000
  H   H16       1.0  0.54700  0.68800  0.30300  1.0000
  H   H17       1.0  0.40100  0.90800  0.71900  1.0000
  H   H18       1.0  0.59900  0.40800  0.78100  1.0000
  H   H19       1.0  0.59900  0.09160  0.28100  1.0000
  H   H20       1.0  0.40100  0.59200  0.21900  1.0000
  H   H21       1.0  0.56500  0.93500  0.26300  1.0000
  H   H22       1.0  0.43500  0.43500  0.23700  1.0000
  H   H23       1.0  0.43500  0.06540  0.73700  1.0000
  H   H24       1.0  0.56500  0.56500  0.76300  1.0000
  H   H25       1.0  0.91200  0.96400  0.67800  1.0000
  H   H26       1.0  0.08800  0.46400  0.82200  1.0000
  H   H27       1.0  0.08800  0.03620  0.32200  1.0000
  H   H28       1.0  0.91200  0.53600  0.17800  1.0000
  H   H29       1.0  0.71100  0.81000  0.37600  1.0000
  H   H30       1.0  0.28900  0.31000  0.12400  1.0000
  H   H31       1.0  0.28900  0.19000  0.62400  1.0000
  H   H32       1.0  0.71100  0.69000  0.87600  1.0000
  H   H33       1.0  0.40600  0.81200  0.27400  1.0000
  H   H34       1.0  0.59400  0.31200  0.22600  1.0000
  H   H35       1.0  0.59400  0.18800  0.72600  1.0000
  H   H36       1.0  0.40600  0.68800  0.77400  1.0000
  H   H37       1.0  0.13000  0.80700  0.09050  1.0000
  H   H38       1.0  0.87000  0.30700  0.40900  1.0000
  H   H39       1.0  0.87000  0.19300  0.90900  1.0000
  H   H40       1.0  0.13000  0.69300  0.59100  1.0000
  H   H41       1.0  0.91200  0.78500  0.89600  1.0000
  H   H42       1.0  0.08800  0.28500  0.60400  1.0000
  H   H43       1.0  0.08800  0.21500  0.10400  1.0000
  H   H44       1.0  0.91200  0.71500  0.39600  1.0000
  Li  Li1       1.0  0.09780  0.41600  0.20700  1.0000
  Li  Li2       1.0  0.90200  0.91600  0.29300  1.0000
  Li  Li3       1.0  0.90200  0.58400  0.79300  1.0000
  Li  Li4       1.0  0.09780  0.08420  0.70700  1.0000
  N   N1        1.0  0.53900  0.87700  0.69500  1.0000
  N   N2        1.0  0.46100  0.37700  0.80500  1.0000
  N   N3        1.0  0.46100  0.12300  0.30500  1.0000
  N   N4        1.0  0.53900  0.62300  0.19500  1.0000
  N   N5        1.0  0.00080  0.84000  0.98700  1.0000
  N   N6        1.0  0.99900  0.34000  0.51300  1.0000
  N   N7        1.0  0.99900  0.16000  0.01270  1.0000
  N   N8        1.0  0.00080  0.66000  0.48700  1.0000
