data_image0
_chemical_formula_structural       Al6Cs2O40P12
_chemical_formula_sum              "Al6 Cs2 O40 P12"
_cell_length_a       8.24501
_cell_length_b       8.24501
_cell_length_c       12.1574
_cell_angle_alpha    90
_cell_angle_beta     90
_cell_angle_gamma    105.783

_space_group_name_H-M_alt    "P 1"
_space_group_IT_number       1

loop_
  _space_group_symop_operation_xyz
  'x, y, z'

loop_
  _atom_site_type_symbol
  _atom_site_label
  _atom_site_symmetry_multiplicity
  _atom_site_fract_x
  _atom_site_fract_y
  _atom_site_fract_z
  _atom_site_occupancy
  Al  Al1       1.0  0.37600  0.37600  0.00000  1.0000
  Al  Al2       1.0  0.78000  0.32100  0.22000  1.0000
  Al  Al3       1.0  0.28000  0.82100  0.28000  1.0000
  Al  Al4       1.0  0.87600  0.87600  0.50000  1.0000
  Al  Al5       1.0  0.82100  0.28000  0.72000  1.0000
  Al  Al6       1.0  0.32100  0.78000  0.78000  1.0000
  Cs  Cs1       1.0  0.99800  0.99800  0.00000  1.0000
  Cs  Cs2       1.0  0.49800  0.49800  0.50000  1.0000
  O   O1        1.0  0.37700  0.57200  0.05100  1.0000
  O   O2        1.0  0.81000  0.33900  0.07040  1.0000
  O   O3        1.0  0.56600  0.86700  0.07080  1.0000
  O   O4        1.0  0.29900  0.23000  0.10700  1.0000
  O   O5        1.0  0.25700  0.79800  0.12600  1.0000
  O   O6        1.0  0.78500  0.80900  0.19000  1.0000
  O   O7        1.0  0.71700  0.08360  0.20500  1.0000
  O   O8        1.0  0.56100  0.34400  0.21500  1.0000
  O   O9        1.0  0.00779  0.30500  0.22500  1.0000
  O   O10       1.0  0.86700  0.55300  0.23800  1.0000
  O   O11       1.0  0.36700  0.05330  0.26200  1.0000
  O   O12       1.0  0.50800  0.80500  0.27500  1.0000
  O   O13       1.0  0.06110  0.84400  0.28500  1.0000
  O   O14       1.0  0.21700  0.58400  0.29500  1.0000
  O   O15       1.0  0.28500  0.30900  0.31000  1.0000
  O   O16       1.0  0.75700  0.29800  0.37400  1.0000
  O   O17       1.0  0.79900  0.73000  0.39300  1.0000
  O   O18       1.0  0.06630  0.36700  0.42900  1.0000
  O   O19       1.0  0.31000  0.83900  0.43000  1.0000
  O   O20       1.0  0.87700  0.07190  0.44900  1.0000
  O   O21       1.0  0.07190  0.87700  0.55100  1.0000
  O   O22       1.0  0.83900  0.31000  0.57000  1.0000
  O   O23       1.0  0.36700  0.06630  0.57100  1.0000
  O   O24       1.0  0.73000  0.79900  0.60700  1.0000
  O   O25       1.0  0.29800  0.75700  0.62600  1.0000
  O   O26       1.0  0.30900  0.28500  0.69000  1.0000
  O   O27       1.0  0.58400  0.21700  0.70500  1.0000
  O   O28       1.0  0.84400  0.06110  0.71500  1.0000
  O   O29       1.0  0.80500  0.50800  0.72500  1.0000
  O   O30       1.0  0.05330  0.36700  0.73800  1.0000
  O   O31       1.0  0.55300  0.86700  0.76200  1.0000
  O   O32       1.0  0.30500  0.00779  0.77500  1.0000
  O   O33       1.0  0.34400  0.56100  0.78500  1.0000
  O   O34       1.0  0.08360  0.71700  0.79500  1.0000
  O   O35       1.0  0.80900  0.78500  0.81000  1.0000
  O   O36       1.0  0.79800  0.25700  0.87400  1.0000
  O   O37       1.0  0.23000  0.29900  0.89300  1.0000
  O   O38       1.0  0.86700  0.56600  0.92900  1.0000
  O   O39       1.0  0.33900  0.81000  0.93000  1.0000
  O   O40       1.0  0.57200  0.37700  0.94900  1.0000
  P   P1        1.0  0.37400  0.75600  0.04220  1.0000
  P   P2        1.0  0.63800  0.89900  0.19400  1.0000
  P   P3        1.0  0.38500  0.22700  0.22000  1.0000
  P   P4        1.0  0.88500  0.72700  0.28000  1.0000
  P   P5        1.0  0.13800  0.39900  0.30600  1.0000
  P   P6        1.0  0.87400  0.25600  0.45800  1.0000
  P   P7        1.0  0.25600  0.87400  0.54200  1.0000
  P   P8        1.0  0.39900  0.13800  0.69400  1.0000
  P   P9        1.0  0.72700  0.88500  0.72000  1.0000
  P   P10       1.0  0.22700  0.38500  0.78000  1.0000
  P   P11       1.0  0.89900  0.63800  0.80600  1.0000
  P   P12       1.0  0.75600  0.37400  0.95800  1.0000
