data_image0
_chemical_formula_structural       Na24Se32Si8
_chemical_formula_sum              "Na24 Se32 Si8"
_cell_length_a       7.29367
_cell_length_b       17.0301
_cell_length_c       13.727
_cell_angle_alpha    90
_cell_angle_beta     98.9425
_cell_angle_gamma    90

_space_group_name_H-M_alt    "P 1"
_space_group_IT_number       1

loop_
  _space_group_symop_operation_xyz
  'x, y, z'

loop_
  _atom_site_type_symbol
  _atom_site_label
  _atom_site_symmetry_multiplicity
  _atom_site_fract_x
  _atom_site_fract_y
  _atom_site_fract_z
  _atom_site_occupancy
  Na  Na1       1.0  0.25000  0.93300  0.00174  1.0000
  Na  Na2       1.0  0.70400  0.82900  0.00764  1.0000
  Na  Na3       1.0  0.58000  0.61000  0.02170  1.0000
  Na  Na4       1.0  0.98500  0.20000  0.21600  1.0000
  Na  Na5       1.0  0.05210  0.44900  0.21800  1.0000
  Na  Na6       1.0  0.57300  0.32600  0.23400  1.0000
  Na  Na7       1.0  0.42700  0.82600  0.26600  1.0000
  Na  Na8       1.0  0.94800  0.94900  0.28200  1.0000
  Na  Na9       1.0  0.01490  0.70000  0.28400  1.0000
  Na  Na10      1.0  0.42000  0.11000  0.47800  1.0000
  Na  Na11      1.0  0.29600  0.32900  0.49200  1.0000
  Na  Na12      1.0  0.75000  0.43300  0.49800  1.0000
  Na  Na13      1.0  0.25000  0.56700  0.50200  1.0000
  Na  Na14      1.0  0.70400  0.67100  0.50800  1.0000
  Na  Na15      1.0  0.58000  0.89000  0.52200  1.0000
  Na  Na16      1.0  0.98500  0.30000  0.71600  1.0000
  Na  Na17      1.0  0.05210  0.05090  0.71800  1.0000
  Na  Na18      1.0  0.57300  0.17400  0.73400  1.0000
  Na  Na19      1.0  0.42700  0.67400  0.76600  1.0000
  Na  Na20      1.0  0.94800  0.55100  0.78200  1.0000
  Na  Na21      1.0  0.01490  0.80000  0.78400  1.0000
  Na  Na22      1.0  0.42000  0.39000  0.97800  1.0000
  Na  Na23      1.0  0.29600  0.17100  0.99200  1.0000
  Na  Na24      1.0  0.75000  0.06670  0.99800  1.0000
  Se  Se1       1.0  0.66300  0.23300  0.05870  1.0000
  Se  Se2       1.0  0.14000  0.31900  0.07760  1.0000
  Se  Se3       1.0  0.19600  0.60700  0.11300  1.0000
  Se  Se4       1.0  0.14300  0.06600  0.12700  1.0000
  Se  Se5       1.0  0.67500  0.46600  0.13300  1.0000
  Se  Se6       1.0  0.05780  0.81700  0.13600  1.0000
  Se  Se7       1.0  0.59700  0.95600  0.15300  1.0000
  Se  Se8       1.0  0.47600  0.64900  0.21900  1.0000
  Se  Se9       1.0  0.52400  0.14900  0.28100  1.0000
  Se  Se10      1.0  0.40300  0.45600  0.34700  1.0000
  Se  Se11      1.0  0.94200  0.31700  0.36400  1.0000
  Se  Se12      1.0  0.32500  0.96600  0.36700  1.0000
  Se  Se13      1.0  0.85700  0.56600  0.37300  1.0000
  Se  Se14      1.0  0.80400  0.10700  0.38700  1.0000
  Se  Se15      1.0  0.86000  0.81900  0.42200  1.0000
  Se  Se16      1.0  0.33700  0.73300  0.44100  1.0000
  Se  Se17      1.0  0.66300  0.26700  0.55900  1.0000
  Se  Se18      1.0  0.14000  0.18100  0.57800  1.0000
  Se  Se19      1.0  0.19600  0.89300  0.61300  1.0000
  Se  Se20      1.0  0.14300  0.43400  0.62700  1.0000
  Se  Se21      1.0  0.67500  0.03430  0.63300  1.0000
  Se  Se22      1.0  0.05780  0.68300  0.63600  1.0000
  Se  Se23      1.0  0.59700  0.54400  0.65300  1.0000
  Se  Se24      1.0  0.47600  0.85100  0.71900  1.0000
  Se  Se25      1.0  0.52400  0.35100  0.78100  1.0000
  Se  Se26      1.0  0.40300  0.04420  0.84700  1.0000
  Se  Se27      1.0  0.94200  0.18300  0.86400  1.0000
  Se  Se28      1.0  0.32500  0.53400  0.86700  1.0000
  Se  Se29      1.0  0.85700  0.93400  0.87300  1.0000
  Se  Se30      1.0  0.80400  0.39300  0.88700  1.0000
  Se  Se31      1.0  0.86000  0.68100  0.92200  1.0000
  Se  Se32      1.0  0.33700  0.76700  0.94100  1.0000
  Si  Si1       1.0  0.11300  0.72400  0.02580  1.0000
  Si  Si2       1.0  0.39600  0.02500  0.23100  1.0000
  Si  Si3       1.0  0.60400  0.52500  0.26900  1.0000
  Si  Si4       1.0  0.88700  0.22400  0.47400  1.0000
  Si  Si5       1.0  0.11300  0.77600  0.52600  1.0000
  Si  Si6       1.0  0.39600  0.47500  0.73100  1.0000
  Si  Si7       1.0  0.60400  0.97500  0.76900  1.0000
  Si  Si8       1.0  0.88700  0.27600  0.97400  1.0000
