data_image0
_chemical_formula_structural       H16Li4N8O24Rb4S8
_chemical_formula_sum              "H16 Li4 N8 O24 Rb4 S8"
_cell_length_a       7.37606
_cell_length_b       9.26733
_cell_length_c       10.4392
_cell_angle_alpha    109.266
_cell_angle_beta     93.6561
_cell_angle_gamma    99.9695

_space_group_name_H-M_alt    "P 1"
_space_group_IT_number       1

loop_
  _space_group_symop_operation_xyz
  'x, y, z'

loop_
  _atom_site_type_symbol
  _atom_site_label
  _atom_site_symmetry_multiplicity
  _atom_site_fract_x
  _atom_site_fract_y
  _atom_site_fract_z
  _atom_site_occupancy
  H   H1        1.0  0.98500  0.48700  0.18200  1.0000
  H   H2        1.0  0.01550  0.51300  0.81800  1.0000
  H   H3        1.0  0.31100  0.41600  0.25900  1.0000
  H   H4        1.0  0.68900  0.58400  0.74100  1.0000
  H   H5        1.0  0.47800  0.35400  0.66100  1.0000
  H   H6        1.0  0.52200  0.64700  0.33900  1.0000
  H   H7        1.0  0.46600  0.34200  0.15600  1.0000
  H   H8        1.0  0.53400  0.65800  0.84400  1.0000
  H   H9        1.0  0.45100  0.83900  0.56600  1.0000
  H   H10       1.0  0.54900  0.16100  0.43400  1.0000
  H   H11       1.0  0.77100  0.52100  0.22500  1.0000
  H   H12       1.0  0.22900  0.47900  0.77500  1.0000
  H   H13       1.0  0.48500  0.35400  0.82700  1.0000
  H   H14       1.0  0.51500  0.64600  0.17300  1.0000
  H   H15       1.0  0.52100  0.69600  0.61000  1.0000
  H   H16       1.0  0.47900  0.30400  0.39000  1.0000
  Li  Li1       1.0  0.12600  0.27500  0.95400  1.0000
  Li  Li2       1.0  0.87400  0.72500  0.04580  1.0000
  Li  Li3       1.0  0.87600  0.71800  0.54000  1.0000
  Li  Li4       1.0  0.12400  0.28200  0.46000  1.0000
  N   N1        1.0  0.38900  0.33000  0.23300  1.0000
  N   N2        1.0  0.61100  0.67000  0.76700  1.0000
  N   N3        1.0  0.40300  0.33700  0.73700  1.0000
  N   N4        1.0  0.59700  0.66300  0.26300  1.0000
  N   N5        1.0  0.45800  0.72300  0.53100  1.0000
  N   N6        1.0  0.54200  0.27700  0.46900  1.0000
  N   N7        1.0  0.84400  0.44400  0.16300  1.0000
  N   N8        1.0  0.15600  0.55600  0.83700  1.0000
  O   O1        1.0  0.19400  0.57300  0.34600  1.0000
  O   O2        1.0  0.80600  0.42700  0.65400  1.0000
  O   O3        1.0  0.12700  0.72000  0.57000  1.0000
  O   O4        1.0  0.87300  0.28000  0.43000  1.0000
  O   O5        1.0  0.25800  0.48600  0.53800  1.0000
  O   O6        1.0  0.74200  0.51400  0.46200  1.0000
  O   O7        1.0  0.17500  0.14200  0.78900  1.0000
  O   O8        1.0  0.82500  0.85800  0.21100  1.0000
  O   O9        1.0  0.15400  0.15400  0.56100  1.0000
  O   O10       1.0  0.84600  0.84600  0.43900  1.0000
  O   O11       1.0  0.39700  0.04400  0.63700  1.0000
  O   O12       1.0  0.60300  0.95600  0.36300  1.0000
  O   O13       1.0  0.12700  0.14300  0.05230  1.0000
  O   O14       1.0  0.87300  0.85700  0.94800  1.0000
  O   O15       1.0  0.14100  0.15100  0.28500  1.0000
  O   O16       1.0  0.85900  0.84900  0.71500  1.0000
  O   O17       1.0  0.37000  0.04380  0.14500  1.0000
  O   O18       1.0  0.63000  0.95600  0.85500  1.0000
  O   O19       1.0  0.75200  0.51700  0.95300  1.0000
  O   O20       1.0  0.24800  0.48300  0.04700  1.0000
  O   O21       1.0  0.87500  0.28600  0.92800  1.0000
  O   O22       1.0  0.12500  0.71400  0.07160  1.0000
  O   O23       1.0  0.56700  0.30100  0.99600  1.0000
  O   O24       1.0  0.43300  0.69900  0.00417  1.0000
  Rb  Rb1       1.0  0.79000  0.11100  0.65600  1.0000
  Rb  Rb2       1.0  0.21000  0.88900  0.34400  1.0000
  Rb  Rb3       1.0  0.24700  0.88900  0.85400  1.0000
  Rb  Rb4       1.0  0.75300  0.11100  0.14600  1.0000
  S   S1        1.0  0.24500  0.61800  0.49400  1.0000
  S   S2        1.0  0.75500  0.38200  0.50600  1.0000
  S   S3        1.0  0.27800  0.15900  0.67800  1.0000
  S   S4        1.0  0.72200  0.84100  0.32200  1.0000
  S   S5        1.0  0.24900  0.15700  0.17400  1.0000
  S   S6        1.0  0.75100  0.84300  0.82600  1.0000
  S   S7        1.0  0.75600  0.38600  0.00269  1.0000
  S   S8        1.0  0.24400  0.61400  0.99700  1.0000
