data_image0
_chemical_formula_structural       Na24O16P8S16
_chemical_formula_sum              "Na24 O16 P8 S16"
_cell_length_a       17.4658
_cell_length_b       11.2684
_cell_length_c       5.8442
_cell_angle_alpha    90
_cell_angle_beta     90
_cell_angle_gamma    90

_space_group_name_H-M_alt    "P 1"
_space_group_IT_number       1

loop_
  _space_group_symop_operation_xyz
  'x, y, z'

loop_
  _atom_site_type_symbol
  _atom_site_label
  _atom_site_symmetry_multiplicity
  _atom_site_fract_x
  _atom_site_fract_y
  _atom_site_fract_z
  _atom_site_occupancy
  Na  Na1       1.0  0.55300  0.17200  0.15100  1.0000
  Na  Na2       1.0  0.94700  0.67200  0.15100  1.0000
  Na  Na3       1.0  0.23700  0.12000  0.19300  1.0000
  Na  Na4       1.0  0.26300  0.62000  0.19300  1.0000
  Na  Na5       1.0  0.40800  0.37800  0.23800  1.0000
  Na  Na6       1.0  0.09220  0.87800  0.23800  1.0000
  Na  Na7       1.0  0.90800  0.37800  0.26200  1.0000
  Na  Na8       1.0  0.59200  0.87800  0.26200  1.0000
  Na  Na9       1.0  0.73700  0.12000  0.30700  1.0000
  Na  Na10      1.0  0.76300  0.62000  0.30700  1.0000
  Na  Na11      1.0  0.05330  0.17200  0.34900  1.0000
  Na  Na12      1.0  0.44700  0.67200  0.34900  1.0000
  Na  Na13      1.0  0.55300  0.32800  0.65100  1.0000
  Na  Na14      1.0  0.94700  0.82800  0.65100  1.0000
  Na  Na15      1.0  0.23700  0.38000  0.69300  1.0000
  Na  Na16      1.0  0.26300  0.88000  0.69300  1.0000
  Na  Na17      1.0  0.40800  0.12200  0.73800  1.0000
  Na  Na18      1.0  0.09220  0.62200  0.73800  1.0000
  Na  Na19      1.0  0.90800  0.12200  0.76200  1.0000
  Na  Na20      1.0  0.59200  0.62200  0.76200  1.0000
  Na  Na21      1.0  0.73700  0.38000  0.80700  1.0000
  Na  Na22      1.0  0.76300  0.88000  0.80700  1.0000
  Na  Na23      1.0  0.05330  0.32800  0.84900  1.0000
  Na  Na24      1.0  0.44700  0.82800  0.84900  1.0000
  O   O1        1.0  0.11500  0.06190  0.08710  1.0000
  O   O2        1.0  0.38500  0.56200  0.08710  1.0000
  O   O3        1.0  0.04200  0.37000  0.23200  1.0000
  O   O4        1.0  0.45800  0.87000  0.23200  1.0000
  O   O5        1.0  0.54200  0.37000  0.26800  1.0000
  O   O6        1.0  0.95800  0.87000  0.26800  1.0000
  O   O7        1.0  0.61500  0.06190  0.41300  1.0000
  O   O8        1.0  0.88500  0.56200  0.41300  1.0000
  O   O9        1.0  0.11500  0.43800  0.58700  1.0000
  O   O10       1.0  0.38500  0.93800  0.58700  1.0000
  O   O11       1.0  0.04200  0.13000  0.73200  1.0000
  O   O12       1.0  0.45800  0.63000  0.73200  1.0000
  O   O13       1.0  0.54200  0.13000  0.76800  1.0000
  O   O14       1.0  0.95800  0.63000  0.76800  1.0000
  O   O15       1.0  0.61500  0.43800  0.91300  1.0000
  O   O16       1.0  0.88500  0.93800  0.91300  1.0000
  P   P1        1.0  0.61000  0.44200  0.17600  1.0000
  P   P2        1.0  0.89000  0.94200  0.17600  1.0000
  P   P3        1.0  0.11000  0.44200  0.32400  1.0000
  P   P4        1.0  0.39000  0.94200  0.32400  1.0000
  P   P5        1.0  0.61000  0.05810  0.67600  1.0000
  P   P6        1.0  0.89000  0.55800  0.67600  1.0000
  P   P7        1.0  0.11000  0.05810  0.82400  1.0000
  P   P8        1.0  0.39000  0.55800  0.82400  1.0000
  S   S1        1.0  0.21100  0.37500  0.18600  1.0000
  S   S2        1.0  0.28900  0.87500  0.18600  1.0000
  S   S3        1.0  0.39800  0.11900  0.22600  1.0000
  S   S4        1.0  0.10200  0.61900  0.22600  1.0000
  S   S5        1.0  0.89800  0.11900  0.27400  1.0000
  S   S6        1.0  0.60200  0.61900  0.27400  1.0000
  S   S7        1.0  0.71100  0.37500  0.31400  1.0000
  S   S8        1.0  0.78900  0.87500  0.31400  1.0000
  S   S9        1.0  0.21100  0.12500  0.68600  1.0000
  S   S10       1.0  0.28900  0.62500  0.68600  1.0000
  S   S11       1.0  0.39800  0.38100  0.72600  1.0000
  S   S12       1.0  0.10200  0.88100  0.72600  1.0000
  S   S13       1.0  0.89800  0.38100  0.77400  1.0000
  S   S14       1.0  0.60200  0.88100  0.77400  1.0000
  S   S15       1.0  0.71100  0.12500  0.81400  1.0000
  S   S16       1.0  0.78900  0.62500  0.81400  1.0000
