data_image0
_chemical_formula_structural       K8Ni4O40P8W4
_chemical_formula_sum              "K8 Ni4 O40 P8 W4"
_cell_length_a       9.12353
_cell_length_b       9.12353
_cell_length_c       10.6493
_cell_angle_alpha    89.9998
_cell_angle_beta     90.0002
_cell_angle_gamma    89.9992

_space_group_name_H-M_alt    "P 1"
_space_group_IT_number       1

loop_
  _space_group_symop_operation_xyz
  'x, y, z'

loop_
  _atom_site_type_symbol
  _atom_site_label
  _atom_site_symmetry_multiplicity
  _atom_site_fract_x
  _atom_site_fract_y
  _atom_site_fract_z
  _atom_site_occupancy
  K   K1        1.0  0.00120  0.71300  0.04630  1.0000
  K   K2        1.0  0.49900  0.21300  0.20400  1.0000
  K   K3        1.0  0.78700  0.50100  0.29600  1.0000
  K   K4        1.0  0.28700  0.99900  0.45400  1.0000
  K   K5        1.0  0.99900  0.28700  0.54600  1.0000
  K   K6        1.0  0.50100  0.78700  0.70400  1.0000
  K   K7        1.0  0.21300  0.49900  0.79600  1.0000
  K   K8        1.0  0.71300  0.00120  0.95400  1.0000
  Ni  Ni1       1.0  0.63700  0.63700  0.00000  1.0000
  Ni  Ni2       1.0  0.86300  0.13700  0.25000  1.0000
  Ni  Ni3       1.0  0.36300  0.36300  0.50000  1.0000
  Ni  Ni4       1.0  0.13700  0.86300  0.75000  1.0000
  O   O1        1.0  0.81700  0.49600  0.01720  1.0000
  O   O2        1.0  0.28600  0.98700  0.02820  1.0000
  O   O3        1.0  0.76000  0.24600  0.11000  1.0000
  O   O4        1.0  0.99100  0.04180  0.12000  1.0000
  O   O5        1.0  0.27900  0.74000  0.12200  1.0000
  O   O6        1.0  0.22100  0.24000  0.12800  1.0000
  O   O7        1.0  0.50900  0.54200  0.13000  1.0000
  O   O8        1.0  0.74000  0.74600  0.14000  1.0000
  O   O9        1.0  0.21400  0.48700  0.22200  1.0000
  O   O10       1.0  0.68300  0.99600  0.23300  1.0000
  O   O11       1.0  0.00355  0.31700  0.26700  1.0000
  O   O12       1.0  0.51300  0.78600  0.27800  1.0000
  O   O13       1.0  0.25400  0.26000  0.36000  1.0000
  O   O14       1.0  0.45800  0.49100  0.37000  1.0000
  O   O15       1.0  0.76000  0.77900  0.37200  1.0000
  O   O16       1.0  0.26000  0.72100  0.37800  1.0000
  O   O17       1.0  0.95800  0.00906  0.38000  1.0000
  O   O18       1.0  0.75400  0.24000  0.39000  1.0000
  O   O19       1.0  0.01260  0.71400  0.47200  1.0000
  O   O20       1.0  0.50400  0.18300  0.48300  1.0000
  O   O21       1.0  0.18300  0.50400  0.51700  1.0000
  O   O22       1.0  0.71400  0.01260  0.52800  1.0000
  O   O23       1.0  0.24000  0.75400  0.61000  1.0000
  O   O24       1.0  0.00906  0.95800  0.62000  1.0000
  O   O25       1.0  0.72100  0.26000  0.62200  1.0000
  O   O26       1.0  0.77900  0.76000  0.62800  1.0000
  O   O27       1.0  0.49100  0.45800  0.63000  1.0000
  O   O28       1.0  0.26000  0.25400  0.64000  1.0000
  O   O29       1.0  0.78600  0.51300  0.72200  1.0000
  O   O30       1.0  0.31700  0.00355  0.73300  1.0000
  O   O31       1.0  0.99600  0.68300  0.76700  1.0000
  O   O32       1.0  0.48700  0.21400  0.77800  1.0000
  O   O33       1.0  0.74600  0.74000  0.86000  1.0000
  O   O34       1.0  0.54200  0.50900  0.87000  1.0000
  O   O35       1.0  0.24000  0.22100  0.87200  1.0000
  O   O36       1.0  0.74000  0.27900  0.87800  1.0000
  O   O37       1.0  0.04180  0.99100  0.88000  1.0000
  O   O38       1.0  0.24600  0.76000  0.89000  1.0000
  O   O39       1.0  0.98700  0.28600  0.97200  1.0000
  O   O40       1.0  0.49600  0.81700  0.98300  1.0000
  P   P1        1.0  0.33200  0.82300  0.00196  1.0000
  P   P2        1.0  0.16800  0.32300  0.24800  1.0000
  P   P3        1.0  0.67700  0.83200  0.25200  1.0000
  P   P4        1.0  0.17700  0.66800  0.49800  1.0000
  P   P5        1.0  0.66800  0.17700  0.50200  1.0000
  P   P6        1.0  0.83200  0.67700  0.74800  1.0000
  P   P7        1.0  0.32300  0.16800  0.75200  1.0000
  P   P8        1.0  0.82300  0.33200  0.99800  1.0000
  W   W1        1.0  0.11000  0.11000  0.00000  1.0000
  W   W2        1.0  0.39000  0.61000  0.25000  1.0000
  W   W3        1.0  0.89000  0.89000  0.50000  1.0000
  W   W4        1.0  0.61000  0.39000  0.75000  1.0000
