data_image0
_chemical_formula_structural       Na8O36Si8Ti8
_chemical_formula_sum              "Na8 O36 Si8 Ti8"
_cell_length_a       14.4035
_cell_length_b       8.76458
_cell_length_c       5.18515
_cell_angle_alpha    90
_cell_angle_beta     90
_cell_angle_gamma    90

_space_group_name_H-M_alt    "P 1"
_space_group_IT_number       1

loop_
  _space_group_symop_operation_xyz
  'x, y, z'

loop_
  _atom_site_type_symbol
  _atom_site_label
  _atom_site_symmetry_multiplicity
  _atom_site_fract_x
  _atom_site_fract_y
  _atom_site_fract_z
  _atom_site_occupancy
  Na  Na1       1.0  0.15200  0.44000  0.14500  1.0000
  Na  Na2       1.0  0.34800  0.56000  0.14500  1.0000
  Na  Na3       1.0  0.65200  0.06000  0.35500  1.0000
  Na  Na4       1.0  0.84800  0.94000  0.35500  1.0000
  Na  Na5       1.0  0.15200  0.06000  0.64500  1.0000
  Na  Na6       1.0  0.34800  0.94000  0.64500  1.0000
  Na  Na7       1.0  0.65200  0.44000  0.85500  1.0000
  Na  Na8       1.0  0.84800  0.56000  0.85500  1.0000
  O   O1        1.0  0.25000  0.00000  0.00259  1.0000
  O   O2        1.0  0.77400  0.31900  0.05160  1.0000
  O   O3        1.0  0.72600  0.68100  0.05160  1.0000
  O   O4        1.0  0.57000  0.23200  0.06780  1.0000
  O   O5        1.0  0.93000  0.76800  0.06780  1.0000
  O   O6        1.0  0.91500  0.16800  0.20100  1.0000
  O   O7        1.0  0.58500  0.83200  0.20100  1.0000
  O   O8        1.0  0.42800  0.00895  0.24900  1.0000
  O   O9        1.0  0.07180  0.99100  0.24900  1.0000
  O   O10       1.0  0.92800  0.49100  0.25100  1.0000
  O   O11       1.0  0.57200  0.50900  0.25100  1.0000
  O   O12       1.0  0.41500  0.33200  0.29900  1.0000
  O   O13       1.0  0.08470  0.66800  0.29900  1.0000
  O   O14       1.0  0.07020  0.26800  0.43200  1.0000
  O   O15       1.0  0.43000  0.73200  0.43200  1.0000
  O   O16       1.0  0.27400  0.18100  0.44800  1.0000
  O   O17       1.0  0.22600  0.81900  0.44800  1.0000
  O   O18       1.0  0.75000  0.50000  0.49700  1.0000
  O   O19       1.0  0.25000  0.50000  0.50300  1.0000
  O   O20       1.0  0.77400  0.18100  0.55200  1.0000
  O   O21       1.0  0.72600  0.81900  0.55200  1.0000
  O   O22       1.0  0.57000  0.26800  0.56800  1.0000
  O   O23       1.0  0.93000  0.73200  0.56800  1.0000
  O   O24       1.0  0.91500  0.33200  0.70100  1.0000
  O   O25       1.0  0.58500  0.66800  0.70100  1.0000
  O   O26       1.0  0.42800  0.49100  0.74900  1.0000
  O   O27       1.0  0.07180  0.50900  0.74900  1.0000
  O   O28       1.0  0.92800  0.00895  0.75100  1.0000
  O   O29       1.0  0.57200  0.99100  0.75100  1.0000
  O   O30       1.0  0.41500  0.16800  0.79900  1.0000
  O   O31       1.0  0.08470  0.83200  0.79900  1.0000
  O   O32       1.0  0.07020  0.23200  0.93200  1.0000
  O   O33       1.0  0.43000  0.76800  0.93200  1.0000
  O   O34       1.0  0.27400  0.31900  0.94800  1.0000
  O   O35       1.0  0.22600  0.68100  0.94800  1.0000
  O   O36       1.0  0.75000  0.00000  0.99700  1.0000
  Si  Si1       1.0  0.02790  0.15800  0.20100  1.0000
  Si  Si2       1.0  0.47200  0.84200  0.20100  1.0000
  Si  Si3       1.0  0.52800  0.34200  0.29900  1.0000
  Si  Si4       1.0  0.97200  0.65800  0.29900  1.0000
  Si  Si5       1.0  0.02790  0.34200  0.70100  1.0000
  Si  Si6       1.0  0.47200  0.65800  0.70100  1.0000
  Si  Si7       1.0  0.52800  0.15800  0.79900  1.0000
  Si  Si8       1.0  0.97200  0.84200  0.79900  1.0000
  Ti  Ti1       1.0  0.33000  0.15200  0.13300  1.0000
  Ti  Ti2       1.0  0.17000  0.84800  0.13300  1.0000
  Ti  Ti3       1.0  0.83000  0.34800  0.36700  1.0000
  Ti  Ti4       1.0  0.67000  0.65200  0.36700  1.0000
  Ti  Ti5       1.0  0.33000  0.34800  0.63300  1.0000
  Ti  Ti6       1.0  0.17000  0.65200  0.63300  1.0000
  Ti  Ti7       1.0  0.83000  0.15200  0.86700  1.0000
  Ti  Ti8       1.0  0.67000  0.84800  0.86700  1.0000
