data_image0
_chemical_formula_structural       K8Mo4O40S8
_chemical_formula_sum              "K8 Mo4 O40 S8"
_cell_length_a       8.83449
_cell_length_b       12.2305
_cell_length_c       8.73796
_cell_angle_alpha    90
_cell_angle_beta     113.009
_cell_angle_gamma    90

_space_group_name_H-M_alt    "P 1"
_space_group_IT_number       1

loop_
  _space_group_symop_operation_xyz
  'x, y, z'

loop_
  _atom_site_type_symbol
  _atom_site_label
  _atom_site_symmetry_multiplicity
  _atom_site_fract_x
  _atom_site_fract_y
  _atom_site_fract_z
  _atom_site_occupancy
  K   K1        1.0  0.81800  0.01210  0.18800  1.0000
  K   K2        1.0  0.66700  0.38300  0.19100  1.0000
  K   K3        1.0  0.33300  0.88300  0.30900  1.0000
  K   K4        1.0  0.18200  0.51200  0.31200  1.0000
  K   K5        1.0  0.81800  0.48800  0.68800  1.0000
  K   K6        1.0  0.66700  0.11700  0.69100  1.0000
  K   K7        1.0  0.33300  0.61700  0.80900  1.0000
  K   K8        1.0  0.18200  0.98800  0.81200  1.0000
  Mo  Mo1       1.0  0.77500  0.66400  0.15600  1.0000
  Mo  Mo2       1.0  0.22500  0.16400  0.34400  1.0000
  Mo  Mo3       1.0  0.77500  0.83600  0.65600  1.0000
  Mo  Mo4       1.0  0.22500  0.33600  0.84400  1.0000
  O   O1        1.0  0.13600  0.80000  0.00820  1.0000
  O   O2        1.0  0.86700  0.40000  0.02300  1.0000
  O   O3        1.0  0.69300  0.82000  0.02350  1.0000
  O   O4        1.0  0.33300  0.40700  0.02450  1.0000
  O   O5        1.0  0.99000  0.68500  0.13000  1.0000
  O   O6        1.0  0.43400  0.02020  0.13500  1.0000
  O   O7        1.0  0.60400  0.17800  0.14000  1.0000
  O   O8        1.0  0.11600  0.29700  0.16900  1.0000
  O   O9        1.0  0.14400  0.06270  0.19600  1.0000
  O   O10       1.0  0.58100  0.68900  0.21900  1.0000
  O   O11       1.0  0.41900  0.18900  0.28100  1.0000
  O   O12       1.0  0.85600  0.56300  0.30400  1.0000
  O   O13       1.0  0.88400  0.79700  0.33100  1.0000
  O   O14       1.0  0.39600  0.67800  0.36000  1.0000
  O   O15       1.0  0.56600  0.52000  0.36500  1.0000
  O   O16       1.0  0.01050  0.18500  0.37000  1.0000
  O   O17       1.0  0.66700  0.90700  0.47600  1.0000
  O   O18       1.0  0.30700  0.32000  0.47600  1.0000
  O   O19       1.0  0.13300  0.90000  0.47700  1.0000
  O   O20       1.0  0.86400  0.30000  0.49200  1.0000
  O   O21       1.0  0.13600  0.70000  0.50800  1.0000
  O   O22       1.0  0.86700  0.10000  0.52300  1.0000
  O   O23       1.0  0.69300  0.68000  0.52400  1.0000
  O   O24       1.0  0.33300  0.09330  0.52400  1.0000
  O   O25       1.0  0.99000  0.81500  0.63000  1.0000
  O   O26       1.0  0.43400  0.48000  0.63500  1.0000
  O   O27       1.0  0.60400  0.32200  0.64000  1.0000
  O   O28       1.0  0.11600  0.20300  0.66900  1.0000
  O   O29       1.0  0.14400  0.43700  0.69600  1.0000
  O   O30       1.0  0.58100  0.81100  0.71900  1.0000
  O   O31       1.0  0.41900  0.31100  0.78100  1.0000
  O   O32       1.0  0.85600  0.93700  0.80400  1.0000
  O   O33       1.0  0.88400  0.70300  0.83100  1.0000
  O   O34       1.0  0.39600  0.82200  0.86000  1.0000
  O   O35       1.0  0.56600  0.98000  0.86500  1.0000
  O   O36       1.0  0.01050  0.31500  0.87000  1.0000
  O   O37       1.0  0.66700  0.59300  0.97600  1.0000
  O   O38       1.0  0.30700  0.18000  0.97600  1.0000
  O   O39       1.0  0.13300  0.60000  0.97700  1.0000
  O   O40       1.0  0.86400  0.20000  0.99200  1.0000
  S   S1        1.0  0.95700  0.30100  0.01830  1.0000
  S   S2        1.0  0.44600  0.13900  0.12900  1.0000
  S   S3        1.0  0.55400  0.63900  0.37100  1.0000
  S   S4        1.0  0.04250  0.80100  0.48200  1.0000
  S   S5        1.0  0.95700  0.19900  0.51800  1.0000
  S   S6        1.0  0.44600  0.36100  0.62900  1.0000
  S   S7        1.0  0.55400  0.86100  0.87100  1.0000
  S   S8        1.0  0.04250  0.69900  0.98200  1.0000
