data_image0
_chemical_formula_structural       Al12Fe4Gd5Mg5Si6
_chemical_formula_sum              "Al12 Fe4 Gd5 Mg5 Si6"
_cell_length_a       11.8955
_cell_length_b       11.8955
_cell_length_c       4.00504
_cell_angle_alpha    90
_cell_angle_beta     90
_cell_angle_gamma    90

_space_group_name_H-M_alt    "P 1"
_space_group_IT_number       1

loop_
  _space_group_symop_operation_xyz
  'x, y, z'

loop_
  _atom_site_type_symbol
  _atom_site_label
  _atom_site_symmetry_multiplicity
  _atom_site_fract_x
  _atom_site_fract_y
  _atom_site_fract_z
  _atom_site_occupancy
  Al  Al1       1.0  0.37300  0.11300  0.50000  1.0000
  Al  Al2       1.0  0.62700  0.11300  0.50000  1.0000
  Al  Al3       1.0  0.33100  0.33100  0.50000  1.0000
  Al  Al4       1.0  0.66900  0.33100  0.50000  1.0000
  Al  Al5       1.0  0.11300  0.37300  0.50000  1.0000
  Al  Al6       1.0  0.88700  0.37300  0.50000  1.0000
  Al  Al7       1.0  0.11300  0.62700  0.50000  1.0000
  Al  Al8       1.0  0.88700  0.62700  0.50000  1.0000
  Al  Al9       1.0  0.33100  0.66900  0.50000  1.0000
  Al  Al10      1.0  0.66900  0.66900  0.50000  1.0000
  Al  Al11      1.0  0.37300  0.88700  0.50000  1.0000
  Al  Al12      1.0  0.62700  0.88700  0.50000  1.0000
  Fe  Fe1       1.0  0.30500  0.00000  0.00000  1.0000
  Fe  Fe2       1.0  0.69500  0.00000  0.00000  1.0000
  Fe  Fe3       1.0  0.00000  0.30500  0.00000  1.0000
  Fe  Fe4       1.0  0.00000  0.69500  0.00000  1.0000
  Gd  Gd1       1.0  0.00000  0.00000  0.00000  1.0000
  Gd  Gd2       1.0  0.50000  0.25300  0.00000  1.0000
  Gd  Gd3       1.0  0.25300  0.50000  0.00000  1.0000
  Gd  Gd4       1.0  0.74700  0.50000  0.00000  1.0000
  Gd  Gd5       1.0  0.50000  0.74700  0.00000  1.0000
  Mg  Mg1       1.0  0.20200  0.20200  0.00000  1.0000
  Mg  Mg2       1.0  0.79800  0.20200  0.00000  1.0000
  Mg  Mg3       1.0  0.20200  0.79800  0.00000  1.0000
  Mg  Mg4       1.0  0.79800  0.79800  0.00000  1.0000
  Mg  Mg5       1.0  0.50000  0.50000  0.50000  1.0000
  Si  Si1       1.0  0.50000  0.00000  0.00000  1.0000
  Si  Si2       1.0  0.00000  0.50000  0.00000  1.0000
  Si  Si3       1.0  0.19000  0.00000  0.50000  1.0000
  Si  Si4       1.0  0.81000  0.00000  0.50000  1.0000
  Si  Si5       1.0  0.00000  0.19000  0.50000  1.0000
  Si  Si6       1.0  0.00000  0.81000  0.50000  1.0000
