data_image0
_chemical_formula_structural       Ga4S36Sb4Sm16
_chemical_formula_sum              "Ga4 S36 Sb4 Sm16"
_cell_length_a       10.0556
_cell_length_b       10.0556
_cell_length_c       13.7153
_cell_angle_alpha    90
_cell_angle_beta     90
_cell_angle_gamma    88.7698

_space_group_name_H-M_alt    "P 1"
_space_group_IT_number       1

loop_
  _space_group_symop_operation_xyz
  'x, y, z'

loop_
  _atom_site_type_symbol
  _atom_site_label
  _atom_site_symmetry_multiplicity
  _atom_site_fract_x
  _atom_site_fract_y
  _atom_site_fract_z
  _atom_site_occupancy
  Ga  Ga1       1.0  0.38500  0.17600  0.09180  1.0000
  Ga  Ga2       1.0  0.88500  0.67600  0.40800  1.0000
  Ga  Ga3       1.0  0.67600  0.88500  0.59200  1.0000
  Ga  Ga4       1.0  0.17600  0.38500  0.90800  1.0000
  S   S1        1.0  0.00457  0.00457  0.00000  1.0000
  S   S2        1.0  0.37100  0.37100  0.00000  1.0000
  S   S3        1.0  0.99300  0.38300  0.00858  1.0000
  S   S4        1.0  0.17900  0.68700  0.06930  1.0000
  S   S5        1.0  0.66300  0.84700  0.08100  1.0000
  S   S6        1.0  0.66300  0.48100  0.09990  1.0000
  S   S7        1.0  0.57300  0.17800  0.18900  1.0000
  S   S8        1.0  0.20700  0.18100  0.19900  1.0000
  S   S9        1.0  0.39000  0.85800  0.24600  1.0000
  S   S10       1.0  0.88000  0.99700  0.24700  1.0000
  S   S11       1.0  0.38000  0.49700  0.25300  1.0000
  S   S12       1.0  0.89000  0.35800  0.25400  1.0000
  S   S13       1.0  0.70700  0.68100  0.30100  1.0000
  S   S14       1.0  0.07310  0.67800  0.31100  1.0000
  S   S15       1.0  0.16300  0.98100  0.40000  1.0000
  S   S16       1.0  0.16300  0.34700  0.41900  1.0000
  S   S17       1.0  0.67900  0.18700  0.43100  1.0000
  S   S18       1.0  0.49300  0.88300  0.49100  1.0000
  S   S19       1.0  0.50500  0.50500  0.50000  1.0000
  S   S20       1.0  0.87100  0.87100  0.50000  1.0000
  S   S21       1.0  0.88300  0.49300  0.50900  1.0000
  S   S22       1.0  0.18700  0.67900  0.56900  1.0000
  S   S23       1.0  0.34700  0.16300  0.58100  1.0000
  S   S24       1.0  0.98100  0.16300  0.60000  1.0000
  S   S25       1.0  0.67800  0.07310  0.68900  1.0000
  S   S26       1.0  0.68100  0.70700  0.69900  1.0000
  S   S27       1.0  0.35800  0.89000  0.74600  1.0000
  S   S28       1.0  0.49700  0.38000  0.74700  1.0000
  S   S29       1.0  0.99700  0.88000  0.75300  1.0000
  S   S30       1.0  0.85800  0.39000  0.75400  1.0000
  S   S31       1.0  0.18100  0.20700  0.80100  1.0000
  S   S32       1.0  0.17800  0.57300  0.81100  1.0000
  S   S33       1.0  0.48100  0.66300  0.90000  1.0000
  S   S34       1.0  0.84700  0.66300  0.91900  1.0000
  S   S35       1.0  0.68700  0.17900  0.93100  1.0000
  S   S36       1.0  0.38300  0.99300  0.99100  1.0000
  Sb  Sb1       1.0  0.82500  0.66300  0.11300  1.0000
  Sb  Sb2       1.0  0.32500  0.16300  0.38700  1.0000
  Sb  Sb3       1.0  0.16300  0.32500  0.61300  1.0000
  Sb  Sb4       1.0  0.66300  0.82500  0.88700  1.0000
  Sm  Sm1       1.0  0.83600  0.18200  0.10000  1.0000
  Sm  Sm2       1.0  0.44800  0.67000  0.10500  1.0000
  Sm  Sm3       1.0  0.12400  0.45700  0.18300  1.0000
  Sm  Sm4       1.0  0.12700  0.90900  0.18700  1.0000
  Sm  Sm5       1.0  0.62700  0.40900  0.31300  1.0000
  Sm  Sm6       1.0  0.62400  0.95700  0.31700  1.0000
  Sm  Sm7       1.0  0.94800  0.17000  0.39500  1.0000
  Sm  Sm8       1.0  0.33600  0.68200  0.40000  1.0000
  Sm  Sm9       1.0  0.68200  0.33600  0.60000  1.0000
  Sm  Sm10      1.0  0.17000  0.94800  0.60500  1.0000
  Sm  Sm11      1.0  0.95700  0.62400  0.68300  1.0000
  Sm  Sm12      1.0  0.40900  0.62700  0.68700  1.0000
  Sm  Sm13      1.0  0.90900  0.12700  0.81300  1.0000
  Sm  Sm14      1.0  0.45700  0.12400  0.81700  1.0000
  Sm  Sm15      1.0  0.67000  0.44800  0.89500  1.0000
  Sm  Sm16      1.0  0.18200  0.83600  0.90000  1.0000
