data_image0
_chemical_formula_structural       Ag26As6I8O24
_chemical_formula_sum              "Ag26 As6 I8 O24"
_cell_length_a       9.25204
_cell_length_b       7.12818
_cell_length_c       17.6855
_cell_angle_alpha    90
_cell_angle_beta     90.9614
_cell_angle_gamma    90

_space_group_name_H-M_alt    "P 1"
_space_group_IT_number       1

loop_
  _space_group_symop_operation_xyz
  'x, y, z'

loop_
  _atom_site_type_symbol
  _atom_site_label
  _atom_site_symmetry_multiplicity
  _atom_site_fract_x
  _atom_site_fract_y
  _atom_site_fract_z
  _atom_site_occupancy
  Ag  Ag1       1.0  0.72200  0.50600  0.07010  1.0000
  Ag  Ag2       1.0  0.72200  0.99400  0.07010  1.0000
  Ag  Ag3       1.0  0.08700  0.75000  0.09270  1.0000
  Ag  Ag4       1.0  0.37500  0.02080  0.15100  1.0000
  Ag  Ag5       1.0  0.37500  0.47900  0.15100  1.0000
  Ag  Ag6       1.0  0.02180  0.54000  0.24300  1.0000
  Ag  Ag7       1.0  0.02180  0.96000  0.24300  1.0000
  Ag  Ag8       1.0  0.60100  0.04390  0.33300  1.0000
  Ag  Ag9       1.0  0.60100  0.45600  0.33300  1.0000
  Ag  Ag10      1.0  0.29700  0.25000  0.33700  1.0000
  Ag  Ag11      1.0  0.95000  0.75000  0.38000  1.0000
  Ag  Ag12      1.0  0.23600  0.01900  0.47700  1.0000
  Ag  Ag13      1.0  0.23600  0.48100  0.47700  1.0000
  Ag  Ag14      1.0  0.76400  0.51900  0.52300  1.0000
  Ag  Ag15      1.0  0.76400  0.98100  0.52300  1.0000
  Ag  Ag16      1.0  0.05000  0.25000  0.62000  1.0000
  Ag  Ag17      1.0  0.70300  0.75000  0.66300  1.0000
  Ag  Ag18      1.0  0.39900  0.54400  0.66700  1.0000
  Ag  Ag19      1.0  0.39900  0.95600  0.66700  1.0000
  Ag  Ag20      1.0  0.97800  0.04040  0.75700  1.0000
  Ag  Ag21      1.0  0.97800  0.46000  0.75700  1.0000
  Ag  Ag22      1.0  0.62500  0.52100  0.84900  1.0000
  Ag  Ag23      1.0  0.62500  0.97900  0.84900  1.0000
  Ag  Ag24      1.0  0.91300  0.25000  0.90700  1.0000
  Ag  Ag25      1.0  0.27800  0.00591  0.93000  1.0000
  Ag  Ag26      1.0  0.27800  0.49400  0.93000  1.0000
  As  As1       1.0  0.06890  0.25000  0.07210  1.0000
  As  As2       1.0  0.31500  0.75000  0.32200  1.0000
  As  As3       1.0  0.93700  0.25000  0.39400  1.0000
  As  As4       1.0  0.06320  0.75000  0.60600  1.0000
  As  As5       1.0  0.68500  0.25000  0.67800  1.0000
  As  As6       1.0  0.93100  0.75000  0.92800  1.0000
  I   I1        1.0  0.45600  0.75000  0.04300  1.0000
  I   I2        1.0  0.60800  0.25000  0.19300  1.0000
  I   I3        1.0  0.77800  0.75000  0.21900  1.0000
  I   I4        1.0  0.48500  0.25000  0.46300  1.0000
  I   I5        1.0  0.51500  0.75000  0.53700  1.0000
  I   I6        1.0  0.22200  0.25000  0.78100  1.0000
  I   I7        1.0  0.39200  0.75000  0.80700  1.0000
  I   I8        1.0  0.54400  0.25000  0.95700  1.0000
  O   O1        1.0  0.85700  0.75000  0.01710  1.0000
  O   O2        1.0  0.88400  0.25000  0.06140  1.0000
  O   O3        1.0  0.12900  0.05600  0.12300  1.0000
  O   O4        1.0  0.12900  0.44400  0.12300  1.0000
  O   O5        1.0  0.27300  0.54900  0.27000  1.0000
  O   O6        1.0  0.27300  0.95100  0.27000  1.0000
  O   O7        1.0  0.03650  0.25000  0.31200  1.0000
  O   O8        1.0  0.49600  0.75000  0.34500  1.0000
  O   O9        1.0  0.83000  0.04920  0.39500  1.0000
  O   O10       1.0  0.83000  0.45100  0.39500  1.0000
  O   O11       1.0  0.20800  0.75000  0.40200  1.0000
  O   O12       1.0  0.04720  0.25000  0.47400  1.0000
  O   O13       1.0  0.95300  0.75000  0.52600  1.0000
  O   O14       1.0  0.79200  0.25000  0.59800  1.0000
  O   O15       1.0  0.17000  0.54900  0.60500  1.0000
  O   O16       1.0  0.17000  0.95100  0.60500  1.0000
  O   O17       1.0  0.50400  0.25000  0.65500  1.0000
  O   O18       1.0  0.96300  0.75000  0.68800  1.0000
  O   O19       1.0  0.72700  0.04930  0.73000  1.0000
  O   O20       1.0  0.72700  0.45100  0.73000  1.0000
  O   O21       1.0  0.87100  0.55600  0.87700  1.0000
  O   O22       1.0  0.87100  0.94400  0.87700  1.0000
  O   O23       1.0  0.11600  0.75000  0.93900  1.0000
  O   O24       1.0  0.14300  0.25000  0.98300  1.0000
