data_image0
_chemical_formula_structural       Bi2K18P8S32
_chemical_formula_sum              "Bi2 K18 P8 S32"
_cell_length_a       18.3941
_cell_length_b       8.99876
_cell_length_c       9.73937
_cell_angle_alpha    90
_cell_angle_beta     90
_cell_angle_gamma    90

_space_group_name_H-M_alt    "P 1"
_space_group_IT_number       1

loop_
  _space_group_symop_operation_xyz
  'x, y, z'

loop_
  _atom_site_type_symbol
  _atom_site_label
  _atom_site_symmetry_multiplicity
  _atom_site_fract_x
  _atom_site_fract_y
  _atom_site_fract_z
  _atom_site_occupancy
  Bi  Bi1       1.0  0.50000  0.50000  0.27700  1.0000
  Bi  Bi2       1.0  0.00000  0.00000  0.72300  1.0000
  K   K1        1.0  0.57600  0.14300  0.00180  1.0000
  K   K2        1.0  0.42400  0.85700  0.00180  1.0000
  K   K3        1.0  0.00000  0.00000  0.23200  1.0000
  K   K4        1.0  0.23200  0.02020  0.23900  1.0000
  K   K5        1.0  0.76800  0.98000  0.23900  1.0000
  K   K6        1.0  0.75000  0.49700  0.24700  1.0000
  K   K7        1.0  0.25000  0.50300  0.24700  1.0000
  K   K8        1.0  0.91400  0.37200  0.48300  1.0000
  K   K9        1.0  0.08600  0.62800  0.48300  1.0000
  K   K10       1.0  0.41400  0.12800  0.51700  1.0000
  K   K11       1.0  0.58600  0.87200  0.51700  1.0000
  K   K12       1.0  0.25000  0.00287  0.75300  1.0000
  K   K13       1.0  0.75000  0.99700  0.75300  1.0000
  K   K14       1.0  0.73200  0.48000  0.76100  1.0000
  K   K15       1.0  0.26800  0.52000  0.76100  1.0000
  K   K16       1.0  0.50000  0.50000  0.76800  1.0000
  K   K17       1.0  0.07610  0.35700  0.99800  1.0000
  K   K18       1.0  0.92400  0.64300  0.99800  1.0000
  P   P1        1.0  0.36400  0.27100  0.02080  1.0000
  P   P2        1.0  0.63600  0.72900  0.02080  1.0000
  P   P3        1.0  0.62300  0.29000  0.49100  1.0000
  P   P4        1.0  0.37700  0.71000  0.49100  1.0000
  P   P5        1.0  0.12300  0.21000  0.50900  1.0000
  P   P6        1.0  0.87700  0.79000  0.50900  1.0000
  P   P7        1.0  0.86400  0.22900  0.97900  1.0000
  P   P8        1.0  0.13600  0.77100  0.97900  1.0000
  S   S1        1.0  0.75300  0.23300  0.00257  1.0000
  S   S2        1.0  0.24700  0.76700  0.00257  1.0000
  S   S3        1.0  0.39500  0.49300  0.05350  1.0000
  S   S4        1.0  0.60500  0.50700  0.05350  1.0000
  S   S5        1.0  0.91400  0.30800  0.15200  1.0000
  S   S6        1.0  0.08620  0.69200  0.15200  1.0000
  S   S7        1.0  0.39700  0.14800  0.18500  1.0000
  S   S8        1.0  0.60300  0.85200  0.18500  1.0000
  S   S9        1.0  0.55800  0.21100  0.33200  1.0000
  S   S10       1.0  0.44200  0.78900  0.33200  1.0000
  S   S11       1.0  0.08210  0.29700  0.33200  1.0000
  S   S12       1.0  0.91800  0.70300  0.33200  1.0000
  S   S13       1.0  0.73000  0.23600  0.47400  1.0000
  S   S14       1.0  0.27000  0.76400  0.47400  1.0000
  S   S15       1.0  0.39000  0.48000  0.48300  1.0000
  S   S16       1.0  0.61000  0.52000  0.48300  1.0000
  S   S17       1.0  0.89000  0.02050  0.51700  1.0000
  S   S18       1.0  0.11000  0.98000  0.51700  1.0000
  S   S19       1.0  0.23000  0.26400  0.52600  1.0000
  S   S20       1.0  0.77000  0.73600  0.52600  1.0000
  S   S21       1.0  0.58200  0.20300  0.66800  1.0000
  S   S22       1.0  0.41800  0.79700  0.66800  1.0000
  S   S23       1.0  0.05800  0.28900  0.66800  1.0000
  S   S24       1.0  0.94200  0.71100  0.66800  1.0000
  S   S25       1.0  0.89700  0.35200  0.81500  1.0000
  S   S26       1.0  0.10300  0.64800  0.81500  1.0000
  S   S27       1.0  0.41400  0.19200  0.84800  1.0000
  S   S28       1.0  0.58600  0.80800  0.84800  1.0000
  S   S29       1.0  0.89500  0.00732  0.94700  1.0000
  S   S30       1.0  0.10500  0.99300  0.94700  1.0000
  S   S31       1.0  0.25300  0.26700  0.99700  1.0000
  S   S32       1.0  0.74700  0.73300  0.99700  1.0000
