data_image0
_chemical_formula_structural       Cd8O32Rb16Si8
_chemical_formula_sum              "Cd8 O32 Rb16 Si8"
_cell_length_a       7.9033
_cell_length_b       7.9033
_cell_length_c       16.7126
_cell_angle_alpha    90
_cell_angle_beta     90
_cell_angle_gamma    92.4639

_space_group_name_H-M_alt    "P 1"
_space_group_IT_number       1

loop_
  _space_group_symop_operation_xyz
  'x, y, z'

loop_
  _atom_site_type_symbol
  _atom_site_label
  _atom_site_symmetry_multiplicity
  _atom_site_fract_x
  _atom_site_fract_y
  _atom_site_fract_z
  _atom_site_occupancy
  Cd  Cd1       1.0  0.77200  0.75200  0.09310  1.0000
  Cd  Cd2       1.0  0.22700  0.72900  0.15600  1.0000
  Cd  Cd3       1.0  0.72900  0.22700  0.34400  1.0000
  Cd  Cd4       1.0  0.75200  0.77200  0.40700  1.0000
  Cd  Cd5       1.0  0.22800  0.24800  0.59300  1.0000
  Cd  Cd6       1.0  0.77300  0.27100  0.65600  1.0000
  Cd  Cd7       1.0  0.27100  0.77300  0.84400  1.0000
  Cd  Cd8       1.0  0.24800  0.22800  0.90700  1.0000
  O   O1        1.0  0.04450  0.20100  0.00249  1.0000
  O   O2        1.0  0.69400  0.54900  0.00622  1.0000
  O   O3        1.0  0.39600  0.58500  0.08160  1.0000
  O   O4        1.0  0.07570  0.90300  0.08170  1.0000
  O   O5        1.0  0.93400  0.58600  0.16600  1.0000
  O   O6        1.0  0.61900  0.90600  0.17200  1.0000
  O   O7        1.0  0.30900  0.93900  0.23800  1.0000
  O   O8        1.0  0.53600  0.20000  0.24300  1.0000
  O   O9        1.0  0.20000  0.53600  0.25700  1.0000
  O   O10       1.0  0.93900  0.30900  0.26200  1.0000
  O   O11       1.0  0.90600  0.61900  0.32800  1.0000
  O   O12       1.0  0.58600  0.93400  0.33400  1.0000
  O   O13       1.0  0.90300  0.07570  0.41800  1.0000
  O   O14       1.0  0.58500  0.39600  0.41800  1.0000
  O   O15       1.0  0.54900  0.69400  0.49400  1.0000
  O   O16       1.0  0.20100  0.04450  0.49800  1.0000
  O   O17       1.0  0.95600  0.79900  0.50200  1.0000
  O   O18       1.0  0.30600  0.45100  0.50600  1.0000
  O   O19       1.0  0.60400  0.41500  0.58200  1.0000
  O   O20       1.0  0.92400  0.09740  0.58200  1.0000
  O   O21       1.0  0.06600  0.41400  0.66600  1.0000
  O   O22       1.0  0.38100  0.09380  0.67200  1.0000
  O   O23       1.0  0.69100  0.06140  0.73800  1.0000
  O   O24       1.0  0.46400  0.80000  0.74300  1.0000
  O   O25       1.0  0.80000  0.46400  0.75700  1.0000
  O   O26       1.0  0.06140  0.69100  0.76200  1.0000
  O   O27       1.0  0.09380  0.38100  0.82800  1.0000
  O   O28       1.0  0.41400  0.06600  0.83400  1.0000
  O   O29       1.0  0.09740  0.92400  0.91800  1.0000
  O   O30       1.0  0.41500  0.60400  0.91800  1.0000
  O   O31       1.0  0.45100  0.30600  0.99400  1.0000
  O   O32       1.0  0.79900  0.95600  0.99800  1.0000
  Rb  Rb1       1.0  0.44900  0.94700  0.01300  1.0000
  Rb  Rb2       1.0  0.75500  0.25700  0.10900  1.0000
  Rb  Rb3       1.0  0.24500  0.25700  0.14100  1.0000
  Rb  Rb4       1.0  0.55500  0.55500  0.25000  1.0000
  Rb  Rb5       1.0  0.95600  0.95600  0.25000  1.0000
  Rb  Rb6       1.0  0.25700  0.24500  0.35900  1.0000
  Rb  Rb7       1.0  0.25700  0.75500  0.39100  1.0000
  Rb  Rb8       1.0  0.94700  0.44900  0.48700  1.0000
  Rb  Rb9       1.0  0.55100  0.05310  0.51300  1.0000
  Rb  Rb10      1.0  0.24500  0.74300  0.60900  1.0000
  Rb  Rb11      1.0  0.75500  0.74300  0.64100  1.0000
  Rb  Rb12      1.0  0.04410  0.04410  0.75000  1.0000
  Rb  Rb13      1.0  0.44500  0.44500  0.75000  1.0000
  Rb  Rb14      1.0  0.74300  0.75500  0.85900  1.0000
  Rb  Rb15      1.0  0.74300  0.24500  0.89100  1.0000
  Rb  Rb16      1.0  0.05310  0.55100  0.98700  1.0000
  Si  Si1       1.0  0.48600  0.51400  0.00000  1.0000
  Si  Si2       1.0  0.00557  0.99400  0.00000  1.0000
  Si  Si3       1.0  0.51300  0.99100  0.24500  1.0000
  Si  Si4       1.0  0.99100  0.51300  0.25500  1.0000
  Si  Si5       1.0  0.99400  0.00557  0.50000  1.0000
  Si  Si6       1.0  0.51400  0.48600  0.50000  1.0000
  Si  Si7       1.0  0.48700  0.00939  0.74500  1.0000
  Si  Si8       1.0  0.00939  0.48700  0.75500  1.0000
