data_image0
_chemical_formula_structural       Be4O4Pt4Se4
_chemical_formula_sum              "Be4 O4 Pt4 Se4"
_cell_length_a       5.77705
_cell_length_b       7.36622
_cell_length_c       5.40454
_cell_angle_alpha    90
_cell_angle_beta     90
_cell_angle_gamma    90

_space_group_name_H-M_alt    "P 1"
_space_group_IT_number       1

loop_
  _space_group_symop_operation_xyz
  'x, y, z'

loop_
  _atom_site_type_symbol
  _atom_site_label
  _atom_site_symmetry_multiplicity
  _atom_site_fract_x
  _atom_site_fract_y
  _atom_site_fract_z
  _atom_site_occupancy
  Be  Be1       1.0  0.00044  0.00000  0.37000  1.0000
  Be  Be2       1.0  0.50000  0.00000  0.37000  1.0000
  Be  Be3       1.0  0.50000  0.00000  0.87000  1.0000
  Be  Be4       1.0  0.00000  0.00000  0.87000  1.0000
  O   O1        1.0  0.90800  0.44200  0.13200  1.0000
  O   O2        1.0  0.40800  0.55800  0.13200  1.0000
  O   O3        1.0  0.59200  0.44200  0.63200  1.0000
  O   O4        1.0  0.09190  0.55800  0.63200  1.0000
  Pt  Pt1       1.0  0.72700  0.16300  0.12000  1.0000
  Pt  Pt2       1.0  0.22700  0.83700  0.12000  1.0000
  Pt  Pt3       1.0  0.77300  0.16300  0.62000  1.0000
  Pt  Pt4       1.0  0.27300  0.83700  0.62000  1.0000
  Se  Se1       1.0  0.33500  0.33200  0.12800  1.0000
  Se  Se2       1.0  0.83500  0.66800  0.12800  1.0000
  Se  Se3       1.0  0.16500  0.33200  0.62800  1.0000
  Se  Se4       1.0  0.66500  0.66800  0.62800  1.0000
