data_image0
_chemical_formula_structural       Ce12S36Tm12
_chemical_formula_sum              "Ce12 S36 Tm12"
_cell_length_a       16.5008
_cell_length_b       3.98186
_cell_length_c       21.3844
_cell_angle_alpha    90
_cell_angle_beta     90
_cell_angle_gamma    90

_space_group_name_H-M_alt    "P 1"
_space_group_IT_number       1

loop_
  _space_group_symop_operation_xyz
  'x, y, z'

loop_
  _atom_site_type_symbol
  _atom_site_label
  _atom_site_symmetry_multiplicity
  _atom_site_fract_x
  _atom_site_fract_y
  _atom_site_fract_z
  _atom_site_occupancy
  Ce  Ce1       1.0  0.80700  0.75000  0.07860  1.0000
  Ce  Ce2       1.0  0.33000  0.25000  0.08670  1.0000
  Ce  Ce3       1.0  0.16000  0.25000  0.24600  1.0000
  Ce  Ce4       1.0  0.66000  0.25000  0.25400  1.0000
  Ce  Ce5       1.0  0.83000  0.25000  0.41300  1.0000
  Ce  Ce6       1.0  0.30700  0.75000  0.42100  1.0000
  Ce  Ce7       1.0  0.69300  0.25000  0.57900  1.0000
  Ce  Ce8       1.0  0.17000  0.75000  0.58700  1.0000
  Ce  Ce9       1.0  0.34000  0.75000  0.74600  1.0000
  Ce  Ce10      1.0  0.84000  0.75000  0.75400  1.0000
  Ce  Ce11      1.0  0.67000  0.75000  0.91300  1.0000
  Ce  Ce12      1.0  0.19300  0.25000  0.92100  1.0000
  S   S1        1.0  0.70800  0.25000  0.01710  1.0000
  S   S2        1.0  0.45700  0.75000  0.05200  1.0000
  S   S3        1.0  0.94200  0.25000  0.05810  1.0000
  S   S4        1.0  0.15900  0.25000  0.06200  1.0000
  S   S5        1.0  0.64700  0.75000  0.14800  1.0000
  S   S6        1.0  0.27000  0.75000  0.17900  1.0000
  S   S7        1.0  0.46300  0.25000  0.18200  1.0000
  S   S8        1.0  0.82400  0.25000  0.18400  1.0000
  S   S9        1.0  0.05140  0.75000  0.19300  1.0000
  S   S10       1.0  0.55100  0.75000  0.30700  1.0000
  S   S11       1.0  0.32400  0.25000  0.31600  1.0000
  S   S12       1.0  0.96300  0.25000  0.31800  1.0000
  S   S13       1.0  0.77000  0.75000  0.32100  1.0000
  S   S14       1.0  0.14700  0.75000  0.35200  1.0000
  S   S15       1.0  0.65900  0.25000  0.43800  1.0000
  S   S16       1.0  0.44200  0.25000  0.44200  1.0000
  S   S17       1.0  0.95700  0.75000  0.44800  1.0000
  S   S18       1.0  0.20800  0.25000  0.48300  1.0000
  S   S19       1.0  0.79200  0.75000  0.51700  1.0000
  S   S20       1.0  0.04250  0.25000  0.55200  1.0000
  S   S21       1.0  0.55800  0.75000  0.55800  1.0000
  S   S22       1.0  0.34100  0.75000  0.56200  1.0000
  S   S23       1.0  0.85300  0.25000  0.64800  1.0000
  S   S24       1.0  0.23000  0.25000  0.67900  1.0000
  S   S25       1.0  0.03670  0.75000  0.68200  1.0000
  S   S26       1.0  0.67600  0.75000  0.68400  1.0000
  S   S27       1.0  0.44900  0.25000  0.69300  1.0000
  S   S28       1.0  0.94900  0.25000  0.80700  1.0000
  S   S29       1.0  0.17600  0.75000  0.81600  1.0000
  S   S30       1.0  0.53700  0.75000  0.81800  1.0000
  S   S31       1.0  0.73000  0.25000  0.82100  1.0000
  S   S32       1.0  0.35300  0.25000  0.85200  1.0000
  S   S33       1.0  0.84100  0.75000  0.93800  1.0000
  S   S34       1.0  0.05830  0.75000  0.94200  1.0000
  S   S35       1.0  0.54300  0.25000  0.94800  1.0000
  S   S36       1.0  0.29200  0.75000  0.98300  1.0000
  Tm  Tm1       1.0  0.05700  0.75000  0.06910  1.0000
  Tm  Tm2       1.0  0.56600  0.25000  0.08010  1.0000
  Tm  Tm3       1.0  0.40500  0.75000  0.25000  1.0000
  Tm  Tm4       1.0  0.90500  0.75000  0.25000  1.0000
  Tm  Tm5       1.0  0.06570  0.25000  0.42000  1.0000
  Tm  Tm6       1.0  0.55700  0.75000  0.43100  1.0000
  Tm  Tm7       1.0  0.44300  0.25000  0.56900  1.0000
  Tm  Tm8       1.0  0.93400  0.75000  0.58000  1.0000
  Tm  Tm9       1.0  0.09520  0.25000  0.75000  1.0000
  Tm  Tm10      1.0  0.59500  0.25000  0.75000  1.0000
  Tm  Tm11      1.0  0.43400  0.75000  0.92000  1.0000
  Tm  Tm12      1.0  0.94300  0.25000  0.93100  1.0000
