data_image0
_chemical_formula_structural       La16O28S12Si8
_chemical_formula_sum              "La16 O28 S12 Si8"
_cell_length_a       11.1773
_cell_length_b       11.1773
_cell_length_c       11.1773
_cell_angle_alpha    100.06
_cell_angle_beta     114.372
_cell_angle_gamma    114.372

_space_group_name_H-M_alt    "P 1"
_space_group_IT_number       1

loop_
  _space_group_symop_operation_xyz
  'x, y, z'

loop_
  _atom_site_type_symbol
  _atom_site_label
  _atom_site_symmetry_multiplicity
  _atom_site_fract_x
  _atom_site_fract_y
  _atom_site_fract_z
  _atom_site_occupancy
  La  La1       1.0  0.09250  0.29600  0.04620  1.0000
  La  La2       1.0  0.75000  0.95400  0.04620  1.0000
  La  La3       1.0  0.51400  0.65700  0.17000  1.0000
  La  La4       1.0  0.59200  0.04620  0.29600  1.0000
  La  La5       1.0  0.25000  0.70400  0.29600  1.0000
  La  La6       1.0  0.51400  0.35700  0.34300  1.0000
  La  La7       1.0  0.98600  0.83000  0.34300  1.0000
  La  La8       1.0  0.01370  0.34300  0.35700  1.0000
  La  La9       1.0  0.98600  0.65700  0.64300  1.0000
  La  La10      1.0  0.01370  0.17000  0.65700  1.0000
  La  La11      1.0  0.48600  0.64300  0.65700  1.0000
  La  La12      1.0  0.40800  0.95400  0.70400  1.0000
  La  La13      1.0  0.75000  0.29600  0.70400  1.0000
  La  La14      1.0  0.48600  0.34300  0.83000  1.0000
  La  La15      1.0  0.25000  0.04620  0.95400  1.0000
  La  La16      1.0  0.90800  0.70400  0.95400  1.0000
  O   O1        1.0  0.22800  0.56700  0.07430  1.0000
  O   O2        1.0  0.50800  0.84600  0.07430  1.0000
  O   O3        1.0  0.75000  0.39600  0.14600  1.0000
  O   O4        1.0  0.22800  0.16100  0.15400  1.0000
  O   O5        1.0  0.99200  0.92600  0.15400  1.0000
  O   O6        1.0  0.00775  0.43300  0.16100  1.0000
  O   O7        1.0  0.72800  0.15400  0.16100  1.0000
  O   O8        1.0  0.52500  0.20000  0.17500  1.0000
  O   O9        1.0  0.97500  0.65000  0.17500  1.0000
  O   O10       1.0  0.02520  0.17500  0.20000  1.0000
  O   O11       1.0  0.52500  0.82500  0.35000  1.0000
  O   O12       1.0  0.25000  0.14600  0.39600  1.0000
  O   O13       1.0  0.27200  0.92600  0.43300  1.0000
  O   O14       1.0  0.50800  0.16100  0.43300  1.0000
  O   O15       1.0  0.49200  0.83900  0.56700  1.0000
  O   O16       1.0  0.72800  0.07430  0.56700  1.0000
  O   O17       1.0  0.75000  0.85400  0.60400  1.0000
  O   O18       1.0  0.47500  0.17500  0.65000  1.0000
  O   O19       1.0  0.97500  0.82500  0.80000  1.0000
  O   O20       1.0  0.02520  0.35000  0.82500  1.0000
  O   O21       1.0  0.47500  0.80000  0.82500  1.0000
  O   O22       1.0  0.99200  0.56700  0.83900  1.0000
  O   O23       1.0  0.27200  0.84600  0.83900  1.0000
  O   O24       1.0  0.00775  0.07430  0.84600  1.0000
  O   O25       1.0  0.77200  0.83900  0.84600  1.0000
  O   O26       1.0  0.25000  0.60400  0.85400  1.0000
  O   O27       1.0  0.49200  0.15400  0.92600  1.0000
  O   O28       1.0  0.77200  0.43300  0.92600  1.0000
  S   S1        1.0  0.35100  0.35100  0.00000  1.0000
  S   S2        1.0  0.64900  0.64900  0.00000  1.0000
  S   S3        1.0  0.25000  0.87500  0.12500  1.0000
  S   S4        1.0  0.35100  0.50000  0.35100  1.0000
  S   S5        1.0  0.85100  0.00000  0.35100  1.0000
  S   S6        1.0  0.75000  0.62500  0.37500  1.0000
  S   S7        1.0  0.14900  0.64900  0.50000  1.0000
  S   S8        1.0  0.85100  0.35100  0.50000  1.0000
  S   S9        1.0  0.25000  0.37500  0.62500  1.0000
  S   S10       1.0  0.14900  0.00000  0.64900  1.0000
  S   S11       1.0  0.64900  0.50000  0.64900  1.0000
  S   S12       1.0  0.75000  0.12500  0.87500  1.0000
  Si  Si1       1.0  0.62700  0.22400  0.09760  1.0000
  Si  Si2       1.0  0.87300  0.47100  0.09760  1.0000
  Si  Si3       1.0  0.12700  0.09760  0.22400  1.0000
  Si  Si4       1.0  0.37300  0.09760  0.47100  1.0000
  Si  Si5       1.0  0.62700  0.90200  0.52900  1.0000
  Si  Si6       1.0  0.87300  0.90200  0.77600  1.0000
  Si  Si7       1.0  0.12700  0.52900  0.90200  1.0000
  Si  Si8       1.0  0.37300  0.77600  0.90200  1.0000
