data_image0
_chemical_formula_structural       Ag32S24Ti4
_chemical_formula_sum              "Ag32 S24 Ti4"
_cell_length_a       15.267
_cell_length_b       7.54377
_cell_length_c       10.7564
_cell_angle_alpha    90
_cell_angle_beta     90
_cell_angle_gamma    90

_space_group_name_H-M_alt    "P 1"
_space_group_IT_number       1

loop_
  _space_group_symop_operation_xyz
  'x, y, z'

loop_
  _atom_site_type_symbol
  _atom_site_label
  _atom_site_symmetry_multiplicity
  _atom_site_fract_x
  _atom_site_fract_y
  _atom_site_fract_z
  _atom_site_occupancy
  Ag  Ag1       1.0  0.73600  0.54800  0.01810  1.0000
  Ag  Ag2       1.0  0.23600  0.95200  0.01810  1.0000
  Ag  Ag3       1.0  0.94900  0.72000  0.02610  1.0000
  Ag  Ag4       1.0  0.44900  0.78000  0.02610  1.0000
  Ag  Ag5       1.0  0.22700  0.62100  0.19000  1.0000
  Ag  Ag6       1.0  0.72700  0.87900  0.19000  1.0000
  Ag  Ag7       1.0  0.58300  0.60400  0.19200  1.0000
  Ag  Ag8       1.0  0.08340  0.89600  0.19200  1.0000
  Ag  Ag9       1.0  0.98100  0.50200  0.25700  1.0000
  Ag  Ag10      1.0  0.48100  0.99800  0.25700  1.0000
  Ag  Ag11      1.0  0.77100  0.50600  0.30000  1.0000
  Ag  Ag12      1.0  0.27100  0.99400  0.30000  1.0000
  Ag  Ag13      1.0  0.92000  0.06370  0.34500  1.0000
  Ag  Ag14      1.0  0.42000  0.43600  0.34500  1.0000
  Ag  Ag15      1.0  0.87800  0.72700  0.49100  1.0000
  Ag  Ag16      1.0  0.37800  0.77300  0.49100  1.0000
  Ag  Ag17      1.0  0.76400  0.04770  0.51800  1.0000
  Ag  Ag18      1.0  0.26400  0.45200  0.51800  1.0000
  Ag  Ag19      1.0  0.55100  0.22000  0.52600  1.0000
  Ag  Ag20      1.0  0.05090  0.28000  0.52600  1.0000
  Ag  Ag21      1.0  0.27300  0.12100  0.69000  1.0000
  Ag  Ag22      1.0  0.77300  0.37900  0.69000  1.0000
  Ag  Ag23      1.0  0.91700  0.10400  0.69200  1.0000
  Ag  Ag24      1.0  0.41700  0.39600  0.69200  1.0000
  Ag  Ag25      1.0  0.51900  0.00210  0.75700  1.0000
  Ag  Ag26      1.0  0.01870  0.49800  0.75700  1.0000
  Ag  Ag27      1.0  0.72900  0.00612  0.80000  1.0000
  Ag  Ag28      1.0  0.22900  0.49400  0.80000  1.0000
  Ag  Ag29      1.0  0.58000  0.56400  0.84500  1.0000
  Ag  Ag30      1.0  0.08010  0.93600  0.84500  1.0000
  Ag  Ag31      1.0  0.62200  0.22700  0.99100  1.0000
  Ag  Ag32      1.0  0.12200  0.27300  0.99100  1.0000
  S   S1        1.0  0.12200  0.70500  0.00500  1.0000
  S   S2        1.0  0.62200  0.79500  0.00500  1.0000
  S   S3        1.0  0.99500  0.22000  0.14100  1.0000
  S   S4        1.0  0.49500  0.28000  0.14100  1.0000
  S   S5        1.0  0.75300  0.23700  0.14400  1.0000
  S   S6        1.0  0.25300  0.26300  0.14400  1.0000
  S   S7        1.0  0.37900  0.73800  0.25600  1.0000
  S   S8        1.0  0.87900  0.76200  0.25600  1.0000
  S   S9        1.0  0.12800  0.51400  0.38500  1.0000
  S   S10       1.0  0.62800  0.98600  0.38500  1.0000
  S   S11       1.0  0.12100  0.01350  0.40400  1.0000
  S   S12       1.0  0.62100  0.48700  0.40400  1.0000
  S   S13       1.0  0.37800  0.20500  0.50500  1.0000
  S   S14       1.0  0.87800  0.29500  0.50500  1.0000
  S   S15       1.0  0.50500  0.72000  0.64100  1.0000
  S   S16       1.0  0.00519  0.78000  0.64100  1.0000
  S   S17       1.0  0.74700  0.73700  0.64400  1.0000
  S   S18       1.0  0.24700  0.76300  0.64400  1.0000
  S   S19       1.0  0.12100  0.23800  0.75600  1.0000
  S   S20       1.0  0.62100  0.26200  0.75600  1.0000
  S   S21       1.0  0.37200  0.01380  0.88500  1.0000
  S   S22       1.0  0.87200  0.48600  0.88500  1.0000
  S   S23       1.0  0.37900  0.51300  0.90400  1.0000
  S   S24       1.0  0.87900  0.98700  0.90400  1.0000
  Ti  Ti1       1.0  0.87300  0.24400  0.01580  1.0000
  Ti  Ti2       1.0  0.37300  0.25600  0.01580  1.0000
  Ti  Ti3       1.0  0.62700  0.74400  0.51600  1.0000
  Ti  Ti4       1.0  0.12700  0.75600  0.51600  1.0000
