data_image0
_chemical_formula_structural       Nd12Ni12Sb36
_chemical_formula_sum              "Nd12 Ni12 Sb36"
_cell_length_a       12.6426
_cell_length_b       6.26419
_cell_length_c       18.4698
_cell_angle_alpha    90
_cell_angle_beta     90
_cell_angle_gamma    90

_space_group_name_H-M_alt    "P 1"
_space_group_IT_number       1

loop_
  _space_group_symop_operation_xyz
  'x, y, z'

loop_
  _atom_site_type_symbol
  _atom_site_label
  _atom_site_symmetry_multiplicity
  _atom_site_fract_x
  _atom_site_fract_y
  _atom_site_fract_z
  _atom_site_occupancy
  Nd  Nd1       1.0  0.29900  0.47200  0.08370  1.0000
  Nd  Nd2       1.0  0.70100  0.97200  0.08370  1.0000
  Nd  Nd3       1.0  0.69500  0.44100  0.25000  1.0000
  Nd  Nd4       1.0  0.30500  0.94100  0.25000  1.0000
  Nd  Nd5       1.0  0.29900  0.47200  0.41600  1.0000
  Nd  Nd6       1.0  0.70100  0.97200  0.41600  1.0000
  Nd  Nd7       1.0  0.29900  0.02750  0.58400  1.0000
  Nd  Nd8       1.0  0.70100  0.52800  0.58400  1.0000
  Nd  Nd9       1.0  0.69500  0.05940  0.75000  1.0000
  Nd  Nd10      1.0  0.30500  0.55900  0.75000  1.0000
  Nd  Nd11      1.0  0.29900  0.02750  0.91600  1.0000
  Nd  Nd12      1.0  0.70100  0.52800  0.91600  1.0000
  Ni  Ni1       1.0  0.89700  0.25000  0.00000  1.0000
  Ni  Ni2       1.0  0.10300  0.75000  0.00000  1.0000
  Ni  Ni3       1.0  0.09970  0.17300  0.17600  1.0000
  Ni  Ni4       1.0  0.90000  0.67300  0.17600  1.0000
  Ni  Ni5       1.0  0.09970  0.17300  0.32400  1.0000
  Ni  Ni6       1.0  0.90000  0.67300  0.32400  1.0000
  Ni  Ni7       1.0  0.89700  0.25000  0.50000  1.0000
  Ni  Ni8       1.0  0.10300  0.75000  0.50000  1.0000
  Ni  Ni9       1.0  0.09970  0.32700  0.67600  1.0000
  Ni  Ni10      1.0  0.90000  0.82700  0.67600  1.0000
  Ni  Ni11      1.0  0.09970  0.32700  0.82400  1.0000
  Ni  Ni12      1.0  0.90000  0.82700  0.82400  1.0000
  Sb  Sb1       1.0  0.50400  0.25000  0.00000  1.0000
  Sb  Sb2       1.0  0.49600  0.75000  0.00000  1.0000
  Sb  Sb3       1.0  0.77400  0.47400  0.08410  1.0000
  Sb  Sb4       1.0  0.22600  0.97400  0.08410  1.0000
  Sb  Sb5       1.0  0.02610  0.45900  0.08660  1.0000
  Sb  Sb6       1.0  0.97400  0.95900  0.08660  1.0000
  Sb  Sb7       1.0  0.49600  0.20400  0.16600  1.0000
  Sb  Sb8       1.0  0.50400  0.70400  0.16600  1.0000
  Sb  Sb9       1.0  0.94300  0.31600  0.25000  1.0000
  Sb  Sb10      1.0  0.22200  0.44500  0.25000  1.0000
  Sb  Sb11      1.0  0.05750  0.81600  0.25000  1.0000
  Sb  Sb12      1.0  0.77800  0.94500  0.25000  1.0000
  Sb  Sb13      1.0  0.49600  0.20400  0.33400  1.0000
  Sb  Sb14      1.0  0.50400  0.70400  0.33400  1.0000
  Sb  Sb15      1.0  0.02610  0.45900  0.41300  1.0000
  Sb  Sb16      1.0  0.97400  0.95900  0.41300  1.0000
  Sb  Sb17      1.0  0.77400  0.47400  0.41600  1.0000
  Sb  Sb18      1.0  0.22600  0.97400  0.41600  1.0000
  Sb  Sb19      1.0  0.50400  0.25000  0.50000  1.0000
  Sb  Sb20      1.0  0.49600  0.75000  0.50000  1.0000
  Sb  Sb21      1.0  0.77400  0.02630  0.58400  1.0000
  Sb  Sb22      1.0  0.22600  0.52600  0.58400  1.0000
  Sb  Sb23      1.0  0.02610  0.04150  0.58700  1.0000
  Sb  Sb24      1.0  0.97400  0.54100  0.58700  1.0000
  Sb  Sb25      1.0  0.49600  0.29600  0.66600  1.0000
  Sb  Sb26      1.0  0.50400  0.79600  0.66600  1.0000
  Sb  Sb27      1.0  0.22200  0.05450  0.75000  1.0000
  Sb  Sb28      1.0  0.94300  0.18400  0.75000  1.0000
  Sb  Sb29      1.0  0.77800  0.55500  0.75000  1.0000
  Sb  Sb30      1.0  0.05750  0.68400  0.75000  1.0000
  Sb  Sb31      1.0  0.49600  0.29600  0.83400  1.0000
  Sb  Sb32      1.0  0.50400  0.79600  0.83400  1.0000
  Sb  Sb33      1.0  0.02610  0.04150  0.91300  1.0000
  Sb  Sb34      1.0  0.97400  0.54100  0.91300  1.0000
  Sb  Sb35      1.0  0.77400  0.02630  0.91600  1.0000
  Sb  Sb36      1.0  0.22600  0.52600  0.91600  1.0000
