data_image0
_chemical_formula_structural       InRbSm2
_chemical_formula_sum              "In1 Rb1 Sm2"
_cell_length_a       5.69711
_cell_length_b       5.69711
_cell_length_c       5.69711
_cell_angle_alpha    60.124
_cell_angle_beta     60.124
_cell_angle_gamma    60.124

_space_group_name_H-M_alt    "P 1"
_space_group_IT_number       1

loop_
  _space_group_symop_operation_xyz
  'x, y, z'

loop_
  _atom_site_type_symbol
  _atom_site_label
  _atom_site_symmetry_multiplicity
  _atom_site_fract_x
  _atom_site_fract_y
  _atom_site_fract_z
  _atom_site_occupancy
  In  In1       1.0  0.24900  0.24900  0.24900  1.0000
  Rb  Rb1       1.0  0.74800  0.74800  0.74800  1.0000
  Sm  Sm1       1.0  0.00018  0.00018  0.00018  1.0000
  Sm  Sm2       1.0  0.50300  0.50300  0.50300  1.0000
