data_image0
_chemical_formula_structural       Cu6Fe4O36Se12
_chemical_formula_sum              "Cu6 Fe4 O36 Se12"
_cell_length_a       12.441
_cell_length_b       8.1205
_cell_length_c       7.5242
_cell_angle_alpha    90
_cell_angle_beta     96.3706
_cell_angle_gamma    90

_space_group_name_H-M_alt    "P 1"
_space_group_IT_number       1

loop_
  _space_group_symop_operation_xyz
  'x, y, z'

loop_
  _atom_site_type_symbol
  _atom_site_label
  _atom_site_symmetry_multiplicity
  _atom_site_fract_x
  _atom_site_fract_y
  _atom_site_fract_z
  _atom_site_occupancy
  Cu  Cu1       1.0  0.50000  0.50000  0.00000  1.0000
  Cu  Cu2       1.0  0.38300  0.12600  0.13100  1.0000
  Cu  Cu3       1.0  0.61700  0.62600  0.36900  1.0000
  Cu  Cu4       1.0  0.50000  0.00000  0.50000  1.0000
  Cu  Cu5       1.0  0.38300  0.37400  0.63100  1.0000
  Cu  Cu6       1.0  0.61700  0.87400  0.86900  1.0000
  Fe  Fe1       1.0  0.82300  0.00561  0.12800  1.0000
  Fe  Fe2       1.0  0.17700  0.50600  0.37200  1.0000
  Fe  Fe3       1.0  0.82300  0.49400  0.62800  1.0000
  Fe  Fe4       1.0  0.17700  0.99400  0.87200  1.0000
  O   O1        1.0  0.74700  0.79600  0.01090  1.0000
  O   O2        1.0  0.67500  0.09900  0.02780  1.0000
  O   O3        1.0  0.49700  0.26600  0.03980  1.0000
  O   O4        1.0  0.10800  0.98200  0.09500  1.0000
  O   O5        1.0  0.25300  0.50000  0.14700  1.0000
  O   O6        1.0  0.67600  0.52300  0.16100  1.0000
  O   O7        1.0  0.86800  0.24000  0.17700  1.0000
  O   O8        1.0  0.05780  0.38600  0.23600  1.0000
  O   O9        1.0  0.52000  0.03180  0.24500  1.0000
  O   O10       1.0  0.48000  0.53200  0.25500  1.0000
  O   O11       1.0  0.94200  0.88600  0.26400  1.0000
  O   O12       1.0  0.13200  0.74000  0.32300  1.0000
  O   O13       1.0  0.32400  0.02300  0.33900  1.0000
  O   O14       1.0  0.74700  0.00025  0.35300  1.0000
  O   O15       1.0  0.89200  0.48200  0.40500  1.0000
  O   O16       1.0  0.50300  0.76600  0.46000  1.0000
  O   O17       1.0  0.32500  0.59900  0.47200  1.0000
  O   O18       1.0  0.25300  0.29600  0.48900  1.0000
  O   O19       1.0  0.74700  0.70400  0.51100  1.0000
  O   O20       1.0  0.67500  0.40100  0.52800  1.0000
  O   O21       1.0  0.49700  0.23400  0.54000  1.0000
  O   O22       1.0  0.10800  0.51800  0.59500  1.0000
  O   O23       1.0  0.25300  0.00000  0.64700  1.0000
  O   O24       1.0  0.67600  0.97700  0.66100  1.0000
  O   O25       1.0  0.86800  0.26000  0.67700  1.0000
  O   O26       1.0  0.05780  0.11400  0.73600  1.0000
  O   O27       1.0  0.52000  0.46800  0.74500  1.0000
  O   O28       1.0  0.48000  0.96800  0.75500  1.0000
  O   O29       1.0  0.94200  0.61400  0.76400  1.0000
  O   O30       1.0  0.13200  0.76000  0.82300  1.0000
  O   O31       1.0  0.32400  0.47700  0.83900  1.0000
  O   O32       1.0  0.74700  0.50000  0.85300  1.0000
  O   O33       1.0  0.89200  0.01750  0.90500  1.0000
  O   O34       1.0  0.50300  0.73400  0.96000  1.0000
  O   O35       1.0  0.32500  0.90100  0.97200  1.0000
  O   O36       1.0  0.25300  0.20400  0.98900  1.0000
  Se  Se1       1.0  0.78500  0.58900  0.05790  1.0000
  Se  Se2       1.0  0.04220  0.80300  0.14500  1.0000
  Se  Se3       1.0  0.60900  0.19000  0.18900  1.0000
  Se  Se4       1.0  0.39100  0.69000  0.31100  1.0000
  Se  Se5       1.0  0.95800  0.30300  0.35500  1.0000
  Se  Se6       1.0  0.21500  0.08900  0.44200  1.0000
  Se  Se7       1.0  0.78500  0.91100  0.55800  1.0000
  Se  Se8       1.0  0.04220  0.69700  0.64500  1.0000
  Se  Se9       1.0  0.60900  0.31000  0.68900  1.0000
  Se  Se10      1.0  0.39100  0.81000  0.81100  1.0000
  Se  Se11      1.0  0.95800  0.19700  0.85500  1.0000
  Se  Se12      1.0  0.21500  0.41100  0.94200  1.0000
