data_image0
_chemical_formula_structural       F8Fe8K8O32P8
_chemical_formula_sum              "F8 Fe8 K8 O32 P8"
_cell_length_a       12.7566
_cell_length_b       6.314
_cell_length_c       10.5938
_cell_angle_alpha    90
_cell_angle_beta     90
_cell_angle_gamma    90

_space_group_name_H-M_alt    "P 1"
_space_group_IT_number       1

loop_
  _space_group_symop_operation_xyz
  'x, y, z'

loop_
  _atom_site_type_symbol
  _atom_site_label
  _atom_site_symmetry_multiplicity
  _atom_site_fract_x
  _atom_site_fract_y
  _atom_site_fract_z
  _atom_site_occupancy
  F   F1        1.0  0.26900  0.52200  0.12200  1.0000
  F   F2        1.0  0.76900  0.97800  0.12200  1.0000
  F   F3        1.0  0.72700  0.51300  0.37000  1.0000
  F   F4        1.0  0.22700  0.98700  0.37000  1.0000
  F   F5        1.0  0.23100  0.02210  0.62200  1.0000
  F   F6        1.0  0.73100  0.47800  0.62200  1.0000
  F   F7        1.0  0.77300  0.01270  0.87000  1.0000
  F   F8        1.0  0.27300  0.48700  0.87000  1.0000
  Fe  Fe1       1.0  0.89000  0.00534  0.00071  1.0000
  Fe  Fe2       1.0  0.39000  0.49500  0.00071  1.0000
  Fe  Fe3       1.0  0.75300  0.74800  0.25100  1.0000
  Fe  Fe4       1.0  0.25300  0.75200  0.25100  1.0000
  Fe  Fe5       1.0  0.61000  0.50500  0.50100  1.0000
  Fe  Fe6       1.0  0.11000  0.99500  0.50100  1.0000
  Fe  Fe7       1.0  0.74700  0.24800  0.75100  1.0000
  Fe  Fe8       1.0  0.24700  0.25200  0.75100  1.0000
  K   K1        1.0  0.62000  0.22700  0.20200  1.0000
  K   K2        1.0  0.12000  0.27300  0.20200  1.0000
  K   K3        1.0  0.39600  0.18800  0.44500  1.0000
  K   K4        1.0  0.89600  0.31200  0.44500  1.0000
  K   K5        1.0  0.88000  0.72700  0.70200  1.0000
  K   K6        1.0  0.38000  0.77300  0.70200  1.0000
  K   K7        1.0  0.10400  0.68800  0.94500  1.0000
  K   K8        1.0  0.60400  0.81200  0.94500  1.0000
  O   O1        1.0  0.38800  0.19000  0.02720  1.0000
  O   O2        1.0  0.88800  0.31000  0.02720  1.0000
  O   O3        1.0  0.74100  0.54600  0.11100  1.0000
  O   O4        1.0  0.24100  0.95400  0.11100  1.0000
  O   O5        1.0  0.49100  0.53500  0.13200  1.0000
  O   O6        1.0  0.99100  0.96500  0.13200  1.0000
  O   O7        1.0  0.09850  0.68500  0.23600  1.0000
  O   O8        1.0  0.59900  0.81500  0.23600  1.0000
  O   O9        1.0  0.90400  0.67800  0.26800  1.0000
  O   O10       1.0  0.40400  0.82200  0.26800  1.0000
  O   O11       1.0  0.50900  0.52000  0.36300  1.0000
  O   O12       1.0  0.00935  0.98000  0.36300  1.0000
  O   O13       1.0  0.25800  0.53800  0.38400  1.0000
  O   O14       1.0  0.75800  0.96200  0.38400  1.0000
  O   O15       1.0  0.61200  0.19200  0.46900  1.0000
  O   O16       1.0  0.11200  0.30800  0.46900  1.0000
  O   O17       1.0  0.11200  0.69000  0.52700  1.0000
  O   O18       1.0  0.61200  0.81000  0.52700  1.0000
  O   O19       1.0  0.75900  0.04610  0.61100  1.0000
  O   O20       1.0  0.25900  0.45400  0.61100  1.0000
  O   O21       1.0  0.00870  0.03530  0.63100  1.0000
  O   O22       1.0  0.50900  0.46500  0.63100  1.0000
  O   O23       1.0  0.40100  0.18500  0.73600  1.0000
  O   O24       1.0  0.90100  0.31500  0.73600  1.0000
  O   O25       1.0  0.59600  0.17800  0.76800  1.0000
  O   O26       1.0  0.09590  0.32200  0.76800  1.0000
  O   O27       1.0  0.99100  0.01990  0.86300  1.0000
  O   O28       1.0  0.49100  0.48000  0.86300  1.0000
  O   O29       1.0  0.24200  0.03790  0.88400  1.0000
  O   O30       1.0  0.74200  0.46200  0.88400  1.0000
  O   O31       1.0  0.88800  0.69200  0.96900  1.0000
  O   O32       1.0  0.38800  0.80800  0.96900  1.0000
  P   P1        1.0  0.50000  0.67700  0.25100  1.0000
  P   P2        1.0  0.00000  0.82300  0.25100  1.0000
  P   P3        1.0  0.68400  0.00040  0.49900  1.0000
  P   P4        1.0  0.18400  0.50000  0.49900  1.0000
  P   P5        1.0  0.00027  0.17700  0.75100  1.0000
  P   P6        1.0  0.50000  0.32300  0.75100  1.0000
  P   P7        1.0  0.81600  0.50000  0.99900  1.0000
  P   P8        1.0  0.31600  0.00000  0.99900  1.0000
