data_image0
_chemical_formula_structural       C20Fe4N24O4Pb4
_chemical_formula_sum              "C20 Fe4 N24 O4 Pb4"
_cell_length_a       12.9679
_cell_length_b       7.84969
_cell_length_c       8.93103
_cell_angle_alpha    90
_cell_angle_beta     90
_cell_angle_gamma    90

_space_group_name_H-M_alt    "P 1"
_space_group_IT_number       1

loop_
  _space_group_symop_operation_xyz
  'x, y, z'

loop_
  _atom_site_type_symbol
  _atom_site_label
  _atom_site_symmetry_multiplicity
  _atom_site_fract_x
  _atom_site_fract_y
  _atom_site_fract_z
  _atom_site_occupancy
  C   C1        1.0  0.17200  0.75000  0.05260  1.0000
  C   C2        1.0  0.68800  0.08030  0.07820  1.0000
  C   C3        1.0  0.68800  0.42000  0.07820  1.0000
  C   C4        1.0  0.88300  0.07980  0.17300  1.0000
  C   C5        1.0  0.88300  0.42000  0.17300  1.0000
  C   C6        1.0  0.38300  0.07980  0.32700  1.0000
  C   C7        1.0  0.38300  0.42000  0.32700  1.0000
  C   C8        1.0  0.18800  0.08030  0.42200  1.0000
  C   C9        1.0  0.18800  0.42000  0.42200  1.0000
  C   C10       1.0  0.67200  0.75000  0.44700  1.0000
  C   C11       1.0  0.32800  0.25000  0.55300  1.0000
  C   C12       1.0  0.81200  0.58000  0.57800  1.0000
  C   C13       1.0  0.81200  0.92000  0.57800  1.0000
  C   C14       1.0  0.61700  0.58000  0.67300  1.0000
  C   C15       1.0  0.61700  0.92000  0.67300  1.0000
  C   C16       1.0  0.11700  0.58000  0.82700  1.0000
  C   C17       1.0  0.11700  0.92000  0.82700  1.0000
  C   C18       1.0  0.31200  0.58000  0.92200  1.0000
  C   C19       1.0  0.31200  0.92000  0.92200  1.0000
  C   C20       1.0  0.82800  0.25000  0.94700  1.0000
  Fe  Fe1       1.0  0.78000  0.25000  0.14900  1.0000
  Fe  Fe2       1.0  0.28000  0.25000  0.35100  1.0000
  Fe  Fe3       1.0  0.72000  0.75000  0.64900  1.0000
  Fe  Fe4       1.0  0.22000  0.75000  0.85100  1.0000
  N   N1        1.0  0.63000  0.51900  0.02930  1.0000
  N   N2        1.0  0.63000  0.98100  0.02930  1.0000
  N   N3        1.0  0.14400  0.75000  0.17700  1.0000
  N   N4        1.0  0.22900  0.25000  0.18000  1.0000
  N   N5        1.0  0.94600  0.52700  0.18200  1.0000
  N   N6        1.0  0.94600  0.97300  0.18200  1.0000
  N   N7        1.0  0.44600  0.52700  0.31800  1.0000
  N   N8        1.0  0.44600  0.97300  0.31800  1.0000
  N   N9        1.0  0.72900  0.25000  0.32000  1.0000
  N   N10       1.0  0.64400  0.75000  0.32300  1.0000
  N   N11       1.0  0.13000  0.51900  0.47100  1.0000
  N   N12       1.0  0.13000  0.98100  0.47100  1.0000
  N   N13       1.0  0.87000  0.01940  0.52900  1.0000
  N   N14       1.0  0.87000  0.48100  0.52900  1.0000
  N   N15       1.0  0.35600  0.25000  0.67700  1.0000
  N   N16       1.0  0.27100  0.75000  0.68000  1.0000
  N   N17       1.0  0.55400  0.02680  0.68200  1.0000
  N   N18       1.0  0.55400  0.47300  0.68200  1.0000
  N   N19       1.0  0.05430  0.02680  0.81800  1.0000
  N   N20       1.0  0.05430  0.47300  0.81800  1.0000
  N   N21       1.0  0.77100  0.75000  0.82000  1.0000
  N   N22       1.0  0.85600  0.25000  0.82300  1.0000
  N   N23       1.0  0.37000  0.01940  0.97100  1.0000
  N   N24       1.0  0.37000  0.48100  0.97100  1.0000
  O   O1        1.0  0.18500  0.25000  0.06860  1.0000
  O   O2        1.0  0.68500  0.25000  0.43100  1.0000
  O   O3        1.0  0.31500  0.75000  0.56900  1.0000
  O   O4        1.0  0.81500  0.75000  0.93100  1.0000
  Pb  Pb1       1.0  0.50500  0.75000  0.13800  1.0000
  Pb  Pb2       1.0  0.00496  0.75000  0.36200  1.0000
  Pb  Pb3       1.0  0.99500  0.25000  0.63800  1.0000
  Pb  Pb4       1.0  0.49500  0.25000  0.86200  1.0000
