data_image0
_chemical_formula_structural       Ga4H8O40P12
_chemical_formula_sum              "Ga4 H8 O40 P12"
_cell_length_a       7.2016
_cell_length_b       8.58929
_cell_length_c       11.361
_cell_angle_alpha    90
_cell_angle_beta     101.401
_cell_angle_gamma    90

_space_group_name_H-M_alt    "P 1"
_space_group_IT_number       1

loop_
  _space_group_symop_operation_xyz
  'x, y, z'

loop_
  _atom_site_type_symbol
  _atom_site_label
  _atom_site_symmetry_multiplicity
  _atom_site_fract_x
  _atom_site_fract_y
  _atom_site_fract_z
  _atom_site_occupancy
  Ga  Ga1       1.0  0.44800  0.07100  0.20600  1.0000
  Ga  Ga2       1.0  0.05180  0.57100  0.29400  1.0000
  Ga  Ga3       1.0  0.94800  0.42900  0.70600  1.0000
  Ga  Ga4       1.0  0.55200  0.92900  0.79400  1.0000
  H   H1        1.0  0.77600  0.64200  0.06850  1.0000
  H   H2        1.0  0.85900  0.33300  0.11400  1.0000
  H   H3        1.0  0.64100  0.83300  0.38600  1.0000
  H   H4        1.0  0.72400  0.14200  0.43200  1.0000
  H   H5        1.0  0.27600  0.85800  0.56800  1.0000
  H   H6        1.0  0.35900  0.16700  0.61400  1.0000
  H   H7        1.0  0.14100  0.66700  0.88600  1.0000
  H   H8        1.0  0.22400  0.35800  0.93200  1.0000
  O   O1        1.0  0.69100  0.58200  0.00309  1.0000
  O   O2        1.0  0.86700  0.27000  0.04120  1.0000
  O   O3        1.0  0.55700  0.14800  0.07140  1.0000
  O   O4        1.0  0.85200  0.98200  0.08620  1.0000
  O   O5        1.0  0.29800  0.91000  0.11300  1.0000
  O   O6        1.0  0.12600  0.50500  0.15100  1.0000
  O   O7        1.0  0.25700  0.23000  0.16600  1.0000
  O   O8        1.0  0.88700  0.72500  0.18500  1.0000
  O   O9        1.0  0.47900  0.46800  0.20000  1.0000
  O   O10       1.0  0.83000  0.42400  0.24700  1.0000
  O   O11       1.0  0.67000  0.92400  0.25300  1.0000
  O   O12       1.0  0.02120  0.96800  0.30000  1.0000
  O   O13       1.0  0.61300  0.22500  0.31500  1.0000
  O   O14       1.0  0.24300  0.73000  0.33400  1.0000
  O   O15       1.0  0.37400  0.00507  0.34900  1.0000
  O   O16       1.0  0.20200  0.41000  0.38700  1.0000
  O   O17       1.0  0.64800  0.48200  0.41400  1.0000
  O   O18       1.0  0.94300  0.64800  0.42900  1.0000
  O   O19       1.0  0.63300  0.77000  0.45900  1.0000
  O   O20       1.0  0.80900  0.08200  0.49700  1.0000
  O   O21       1.0  0.19100  0.91800  0.50300  1.0000
  O   O22       1.0  0.36700  0.23000  0.54100  1.0000
  O   O23       1.0  0.05740  0.35200  0.57100  1.0000
  O   O24       1.0  0.35200  0.51800  0.58600  1.0000
  O   O25       1.0  0.79800  0.59000  0.61300  1.0000
  O   O26       1.0  0.62600  0.99500  0.65100  1.0000
  O   O27       1.0  0.75700  0.27000  0.66600  1.0000
  O   O28       1.0  0.38700  0.77500  0.68500  1.0000
  O   O29       1.0  0.97900  0.03190  0.70000  1.0000
  O   O30       1.0  0.33000  0.07620  0.74700  1.0000
  O   O31       1.0  0.17000  0.57600  0.75300  1.0000
  O   O32       1.0  0.52100  0.53200  0.80000  1.0000
  O   O33       1.0  0.11300  0.27500  0.81500  1.0000
  O   O34       1.0  0.74300  0.77000  0.83400  1.0000
  O   O35       1.0  0.87400  0.49500  0.84900  1.0000
  O   O36       1.0  0.70200  0.09030  0.88700  1.0000
  O   O37       1.0  0.14800  0.01820  0.91400  1.0000
  O   O38       1.0  0.44300  0.85200  0.92900  1.0000
  O   O39       1.0  0.13300  0.73000  0.95900  1.0000
  O   O40       1.0  0.30900  0.41800  0.99700  1.0000
  P   P1        1.0  0.73200  0.12800  0.01830  1.0000
  P   P2        1.0  0.28000  0.39700  0.12700  1.0000
  P   P3        1.0  0.85100  0.89400  0.20800  1.0000
  P   P4        1.0  0.64900  0.39400  0.29200  1.0000
  P   P5        1.0  0.22000  0.89700  0.37300  1.0000
  P   P6        1.0  0.76800  0.62800  0.48200  1.0000
  P   P7        1.0  0.23200  0.37200  0.51800  1.0000
  P   P8        1.0  0.78000  0.10300  0.62700  1.0000
  P   P9        1.0  0.35100  0.60600  0.70800  1.0000
  P   P10       1.0  0.14900  0.10600  0.79200  1.0000
  P   P11       1.0  0.72000  0.60300  0.87300  1.0000
  P   P12       1.0  0.26800  0.87200  0.98200  1.0000
