data_image0
_chemical_formula_structural       Na8O40Sb8Si8
_chemical_formula_sum              "Na8 O40 Sb8 Si8"
_cell_length_a       12.7339
_cell_length_b       6.29035
_cell_length_c       10.5815
_cell_angle_alpha    90
_cell_angle_beta     90
_cell_angle_gamma    90

_space_group_name_H-M_alt    "P 1"
_space_group_IT_number       1

loop_
  _space_group_symop_operation_xyz
  'x, y, z'

loop_
  _atom_site_type_symbol
  _atom_site_label
  _atom_site_symmetry_multiplicity
  _atom_site_fract_x
  _atom_site_fract_y
  _atom_site_fract_z
  _atom_site_occupancy
  Na  Na1       1.0  0.10300  0.72900  0.08650  1.0000
  Na  Na2       1.0  0.60300  0.77100  0.08650  1.0000
  Na  Na3       1.0  0.85300  0.71400  0.28400  1.0000
  Na  Na4       1.0  0.35300  0.78600  0.28400  1.0000
  Na  Na5       1.0  0.39700  0.22900  0.58600  1.0000
  Na  Na6       1.0  0.89700  0.27100  0.58600  1.0000
  Na  Na7       1.0  0.64700  0.21400  0.78400  1.0000
  Na  Na8       1.0  0.14700  0.28600  0.78400  1.0000
  O   O1        1.0  0.88700  0.67300  0.04060  1.0000
  O   O2        1.0  0.38700  0.82700  0.04060  1.0000
  O   O3        1.0  0.21800  0.05980  0.09390  1.0000
  O   O4        1.0  0.71800  0.44000  0.09390  1.0000
  O   O5        1.0  0.75600  0.00000  0.11000  1.0000
  O   O6        1.0  0.25600  0.50000  0.11000  1.0000
  O   O7        1.0  0.47500  0.51800  0.16000  1.0000
  O   O8        1.0  0.97500  0.98200  0.16000  1.0000
  O   O9        1.0  0.57900  0.15400  0.22700  1.0000
  O   O10       1.0  0.07880  0.34600  0.22700  1.0000
  O   O11       1.0  0.37800  0.16800  0.25300  1.0000
  O   O12       1.0  0.87800  0.33200  0.25300  1.0000
  O   O13       1.0  0.20400  0.02720  0.35100  1.0000
  O   O14       1.0  0.70400  0.47300  0.35100  1.0000
  O   O15       1.0  0.75200  0.01280  0.36400  1.0000
  O   O16       1.0  0.25200  0.48700  0.36400  1.0000
  O   O17       1.0  0.98600  0.07460  0.40200  1.0000
  O   O18       1.0  0.48600  0.42500  0.40200  1.0000
  O   O19       1.0  0.09840  0.71400  0.47800  1.0000
  O   O20       1.0  0.59800  0.78600  0.47800  1.0000
  O   O21       1.0  0.61300  0.17300  0.54100  1.0000
  O   O22       1.0  0.11300  0.32700  0.54100  1.0000
  O   O23       1.0  0.28200  0.56000  0.59400  1.0000
  O   O24       1.0  0.78200  0.94000  0.59400  1.0000
  O   O25       1.0  0.24400  0.00000  0.61000  1.0000
  O   O26       1.0  0.74400  0.50000  0.61000  1.0000
  O   O27       1.0  0.02510  0.01790  0.66000  1.0000
  O   O28       1.0  0.52500  0.48200  0.66000  1.0000
  O   O29       1.0  0.92100  0.65400  0.72700  1.0000
  O   O30       1.0  0.42100  0.84600  0.72700  1.0000
  O   O31       1.0  0.12200  0.66800  0.75300  1.0000
  O   O32       1.0  0.62200  0.83200  0.75300  1.0000
  O   O33       1.0  0.29600  0.52700  0.85100  1.0000
  O   O34       1.0  0.79600  0.97300  0.85100  1.0000
  O   O35       1.0  0.74800  0.51300  0.86400  1.0000
  O   O36       1.0  0.24800  0.98700  0.86400  1.0000
  O   O37       1.0  0.51400  0.57500  0.90200  1.0000
  O   O38       1.0  0.01410  0.92500  0.90200  1.0000
  O   O39       1.0  0.40200  0.21400  0.97800  1.0000
  O   O40       1.0  0.90200  0.28600  0.97800  1.0000
  Sb  Sb1       1.0  0.38500  0.51900  0.00270  1.0000
  Sb  Sb2       1.0  0.88500  0.98100  0.00270  1.0000
  Sb  Sb3       1.0  0.72900  0.23300  0.23400  1.0000
  Sb  Sb4       1.0  0.22900  0.26700  0.23400  1.0000
  Sb  Sb5       1.0  0.11500  0.01950  0.50300  1.0000
  Sb  Sb6       1.0  0.61500  0.48100  0.50300  1.0000
  Sb  Sb7       1.0  0.77100  0.73300  0.73400  1.0000
  Sb  Sb8       1.0  0.27100  0.76700  0.73400  1.0000
  Si  Si1       1.0  0.98300  0.18200  0.26000  1.0000
  Si  Si2       1.0  0.48300  0.31800  0.26000  1.0000
  Si  Si3       1.0  0.18500  0.52500  0.49400  1.0000
  Si  Si4       1.0  0.68500  0.97500  0.49400  1.0000
  Si  Si5       1.0  0.51700  0.68200  0.76000  1.0000
  Si  Si6       1.0  0.01750  0.81800  0.76000  1.0000
  Si  Si7       1.0  0.31500  0.02510  0.99400  1.0000
  Si  Si8       1.0  0.81500  0.47500  0.99400  1.0000
