data_image0
_chemical_formula_structural       Cu4Ga8O40Se12
_chemical_formula_sum              "Cu4 Ga8 O40 Se12"
_cell_length_a       6.52041
_cell_length_b       9.57041
_cell_length_c       13.0769
_cell_angle_alpha    90
_cell_angle_beta     90
_cell_angle_gamma    90

_space_group_name_H-M_alt    "P 1"
_space_group_IT_number       1

loop_
  _space_group_symop_operation_xyz
  'x, y, z'

loop_
  _atom_site_type_symbol
  _atom_site_label
  _atom_site_symmetry_multiplicity
  _atom_site_fract_x
  _atom_site_fract_y
  _atom_site_fract_z
  _atom_site_occupancy
  Cu  Cu1       1.0  0.25000  0.66300  0.25000  1.0000
  Cu  Cu2       1.0  0.75000  0.66300  0.25000  1.0000
  Cu  Cu3       1.0  0.25000  0.33700  0.75000  1.0000
  Cu  Cu4       1.0  0.75000  0.33700  0.75000  1.0000
  Ga  Ga1       1.0  0.50000  0.99400  0.12600  1.0000
  Ga  Ga2       1.0  0.25000  0.22200  0.25000  1.0000
  Ga  Ga3       1.0  0.75000  0.22200  0.25000  1.0000
  Ga  Ga4       1.0  0.00000  0.99400  0.37400  1.0000
  Ga  Ga5       1.0  0.00000  0.00625  0.62600  1.0000
  Ga  Ga6       1.0  0.25000  0.77800  0.75000  1.0000
  Ga  Ga7       1.0  0.75000  0.77800  0.75000  1.0000
  Ga  Ga8       1.0  0.50000  0.00625  0.87400  1.0000
  O   O1        1.0  0.50000  0.86900  0.01180  1.0000
  O   O2        1.0  0.28700  0.66300  0.10300  1.0000
  O   O3        1.0  0.71300  0.66300  0.10300  1.0000
  O   O4        1.0  0.19800  0.02480  0.12600  1.0000
  O   O5        1.0  0.80200  0.02480  0.12600  1.0000
  O   O6        1.0  0.20700  0.33700  0.13400  1.0000
  O   O7        1.0  0.79300  0.33700  0.13400  1.0000
  O   O8        1.0  0.50000  0.15700  0.20700  1.0000
  O   O9        1.0  0.00000  0.53600  0.23300  1.0000
  O   O10       1.0  0.50000  0.85100  0.24300  1.0000
  O   O11       1.0  0.00000  0.85100  0.25700  1.0000
  O   O12       1.0  0.50000  0.53600  0.26700  1.0000
  O   O13       1.0  0.00000  0.15700  0.29300  1.0000
  O   O14       1.0  0.29300  0.33700  0.36600  1.0000
  O   O15       1.0  0.70700  0.33700  0.36600  1.0000
  O   O16       1.0  0.30200  0.02480  0.37400  1.0000
  O   O17       1.0  0.69800  0.02480  0.37400  1.0000
  O   O18       1.0  0.21300  0.66300  0.39700  1.0000
  O   O19       1.0  0.78700  0.66300  0.39700  1.0000
  O   O20       1.0  0.00000  0.86900  0.48800  1.0000
  O   O21       1.0  0.00000  0.13100  0.51200  1.0000
  O   O22       1.0  0.21300  0.33700  0.60300  1.0000
  O   O23       1.0  0.78700  0.33700  0.60300  1.0000
  O   O24       1.0  0.30200  0.97500  0.62600  1.0000
  O   O25       1.0  0.69800  0.97500  0.62600  1.0000
  O   O26       1.0  0.29300  0.66300  0.63400  1.0000
  O   O27       1.0  0.70700  0.66300  0.63400  1.0000
  O   O28       1.0  0.00000  0.84300  0.70700  1.0000
  O   O29       1.0  0.50000  0.46400  0.73300  1.0000
  O   O30       1.0  0.00000  0.14900  0.74300  1.0000
  O   O31       1.0  0.50000  0.14900  0.75700  1.0000
  O   O32       1.0  0.00000  0.46400  0.76700  1.0000
  O   O33       1.0  0.50000  0.84300  0.79300  1.0000
  O   O34       1.0  0.20700  0.66300  0.86600  1.0000
  O   O35       1.0  0.79300  0.66300  0.86600  1.0000
  O   O36       1.0  0.19800  0.97500  0.87400  1.0000
  O   O37       1.0  0.80200  0.97500  0.87400  1.0000
  O   O38       1.0  0.28700  0.33700  0.89700  1.0000
  O   O39       1.0  0.71300  0.33700  0.89700  1.0000
  O   O40       1.0  0.50000  0.13100  0.98800  1.0000
  Se  Se1       1.0  0.50000  0.68400  0.02650  1.0000
  Se  Se2       1.0  0.00000  0.44800  0.11700  1.0000
  Se  Se3       1.0  0.00000  0.90600  0.12700  1.0000
  Se  Se4       1.0  0.50000  0.90600  0.37300  1.0000
  Se  Se5       1.0  0.50000  0.44800  0.38300  1.0000
  Se  Se6       1.0  0.00000  0.68400  0.47300  1.0000
  Se  Se7       1.0  0.00000  0.31600  0.52700  1.0000
  Se  Se8       1.0  0.50000  0.55200  0.61700  1.0000
  Se  Se9       1.0  0.50000  0.09410  0.62700  1.0000
  Se  Se10      1.0  0.00000  0.09410  0.87300  1.0000
  Se  Se11      1.0  0.00000  0.55200  0.88300  1.0000
  Se  Se12      1.0  0.50000  0.31600  0.97300  1.0000
