data_image0
_chemical_formula_structural       H16O36P8V4
_chemical_formula_sum              "H16 O36 P8 V4"
_cell_length_a       8.94729
_cell_length_b       8.94729
_cell_length_c       7.63603
_cell_angle_alpha    90
_cell_angle_beta     90
_cell_angle_gamma    90

_space_group_name_H-M_alt    "P 1"
_space_group_IT_number       1

loop_
  _space_group_symop_operation_xyz
  'x, y, z'

loop_
  _atom_site_type_symbol
  _atom_site_label
  _atom_site_symmetry_multiplicity
  _atom_site_fract_x
  _atom_site_fract_y
  _atom_site_fract_z
  _atom_site_occupancy
  H   H1        1.0  0.78100  0.08370  0.04960  1.0000
  H   H2        1.0  0.71900  0.41600  0.04960  1.0000
  H   H3        1.0  0.08370  0.71900  0.04960  1.0000
  H   H4        1.0  0.41600  0.78100  0.04960  1.0000
  H   H5        1.0  0.91600  0.21900  0.45000  1.0000
  H   H6        1.0  0.58400  0.28100  0.45000  1.0000
  H   H7        1.0  0.21900  0.58400  0.45000  1.0000
  H   H8        1.0  0.28100  0.91600  0.45000  1.0000
  H   H9        1.0  0.71900  0.08370  0.55000  1.0000
  H   H10       1.0  0.78100  0.41600  0.55000  1.0000
  H   H11       1.0  0.41600  0.71900  0.55000  1.0000
  H   H12       1.0  0.08370  0.78100  0.55000  1.0000
  H   H13       1.0  0.58400  0.21900  0.95000  1.0000
  H   H14       1.0  0.91600  0.28100  0.95000  1.0000
  H   H15       1.0  0.28100  0.58400  0.95000  1.0000
  H   H16       1.0  0.21900  0.91600  0.95000  1.0000
  O   O1        1.0  0.75000  0.75000  0.01370  1.0000
  O   O2        1.0  0.88300  0.11700  0.08300  1.0000
  O   O3        1.0  0.61700  0.38300  0.08300  1.0000
  O   O4        1.0  0.11700  0.61700  0.08300  1.0000
  O   O5        1.0  0.38300  0.88300  0.08300  1.0000
  O   O6        1.0  0.12400  0.07100  0.24100  1.0000
  O   O7        1.0  0.42900  0.12400  0.24100  1.0000
  O   O8        1.0  0.07100  0.37600  0.24100  1.0000
  O   O9        1.0  0.37600  0.42900  0.24100  1.0000
  O   O10       1.0  0.87600  0.57100  0.25900  1.0000
  O   O11       1.0  0.57100  0.62400  0.25900  1.0000
  O   O12       1.0  0.92900  0.87600  0.25900  1.0000
  O   O13       1.0  0.62400  0.92900  0.25900  1.0000
  O   O14       1.0  0.88300  0.11700  0.41700  1.0000
  O   O15       1.0  0.61700  0.38300  0.41700  1.0000
  O   O16       1.0  0.11700  0.61700  0.41700  1.0000
  O   O17       1.0  0.38300  0.88300  0.41700  1.0000
  O   O18       1.0  0.25000  0.25000  0.48600  1.0000
  O   O19       1.0  0.75000  0.75000  0.51400  1.0000
  O   O20       1.0  0.61700  0.11700  0.58300  1.0000
  O   O21       1.0  0.88300  0.38300  0.58300  1.0000
  O   O22       1.0  0.38300  0.61700  0.58300  1.0000
  O   O23       1.0  0.11700  0.88300  0.58300  1.0000
  O   O24       1.0  0.37600  0.07100  0.74100  1.0000
  O   O25       1.0  0.07100  0.12400  0.74100  1.0000
  O   O26       1.0  0.42900  0.37600  0.74100  1.0000
  O   O27       1.0  0.12400  0.42900  0.74100  1.0000
  O   O28       1.0  0.62400  0.57100  0.75900  1.0000
  O   O29       1.0  0.92900  0.62400  0.75900  1.0000
  O   O30       1.0  0.57100  0.87600  0.75900  1.0000
  O   O31       1.0  0.87600  0.92900  0.75900  1.0000
  O   O32       1.0  0.61700  0.11700  0.91700  1.0000
  O   O33       1.0  0.88300  0.38300  0.91700  1.0000
  O   O34       1.0  0.38300  0.61700  0.91700  1.0000
  O   O35       1.0  0.11700  0.88300  0.91700  1.0000
  O   O36       1.0  0.25000  0.25000  0.98600  1.0000
  P   P1        1.0  0.95800  0.04180  0.25000  1.0000
  P   P2        1.0  0.54200  0.45800  0.25000  1.0000
  P   P3        1.0  0.04180  0.54200  0.25000  1.0000
  P   P4        1.0  0.45800  0.95800  0.25000  1.0000
  P   P5        1.0  0.54200  0.04180  0.75000  1.0000
  P   P6        1.0  0.95800  0.45800  0.75000  1.0000
  P   P7        1.0  0.45800  0.54200  0.75000  1.0000
  P   P8        1.0  0.04180  0.95800  0.75000  1.0000
  V   V1        1.0  0.25000  0.25000  0.20500  1.0000
  V   V2        1.0  0.75000  0.75000  0.29500  1.0000
  V   V3        1.0  0.25000  0.25000  0.70500  1.0000
  V   V4        1.0  0.75000  0.75000  0.79500  1.0000
