data_image0
_chemical_formula_structural       Ca12O36Si8Zr4
_chemical_formula_sum              "Ca12 O36 Si8 Zr4"
_cell_length_a       7.34992
_cell_length_b       10.1744
_cell_length_c       10.3951
_cell_angle_alpha    89.9964
_cell_angle_beta     90.94
_cell_angle_gamma    89.9996

_space_group_name_H-M_alt    "P 1"
_space_group_IT_number       1

loop_
  _space_group_symop_operation_xyz
  'x, y, z'

loop_
  _atom_site_type_symbol
  _atom_site_label
  _atom_site_symmetry_multiplicity
  _atom_site_fract_x
  _atom_site_fract_y
  _atom_site_fract_z
  _atom_site_occupancy
  Ca  Ca1       1.0  0.11800  0.67300  0.08940  1.0000
  Ca  Ca2       1.0  0.62500  0.69500  0.10100  1.0000
  Ca  Ca3       1.0  0.63400  0.07780  0.11400  1.0000
  Ca  Ca4       1.0  0.36600  0.57800  0.38600  1.0000
  Ca  Ca5       1.0  0.37400  0.19500  0.39900  1.0000
  Ca  Ca6       1.0  0.88200  0.17300  0.41100  1.0000
  Ca  Ca7       1.0  0.11800  0.82700  0.58900  1.0000
  Ca  Ca8       1.0  0.62600  0.80500  0.60100  1.0000
  Ca  Ca9       1.0  0.63400  0.42200  0.61400  1.0000
  Ca  Ca10      1.0  0.36600  0.92200  0.88600  1.0000
  Ca  Ca11      1.0  0.37400  0.30500  0.89900  1.0000
  Ca  Ca12      1.0  0.88100  0.32700  0.91000  1.0000
  O   O1        1.0  0.09830  0.88900  0.01200  1.0000
  O   O2        1.0  0.34700  0.11000  0.01350  1.0000
  O   O3        1.0  0.14000  0.37900  0.02870  1.0000
  O   O4        1.0  0.62200  0.33600  0.03830  1.0000
  O   O5        1.0  0.35400  0.73500  0.22600  1.0000
  O   O6        1.0  0.38200  0.39400  0.22700  1.0000
  O   O7        1.0  0.69100  0.50400  0.23700  1.0000
  O   O8        1.0  0.10300  0.23700  0.24600  1.0000
  O   O9        1.0  0.91600  0.00660  0.24800  1.0000
  O   O10       1.0  0.08440  0.50700  0.25200  1.0000
  O   O11       1.0  0.89700  0.73700  0.25400  1.0000
  O   O12       1.0  0.30900  0.00369  0.26300  1.0000
  O   O13       1.0  0.61800  0.89400  0.27300  1.0000
  O   O14       1.0  0.64600  0.23500  0.27400  1.0000
  O   O15       1.0  0.37800  0.83600  0.46200  1.0000
  O   O16       1.0  0.86000  0.87900  0.47100  1.0000
  O   O17       1.0  0.65300  0.61000  0.48600  1.0000
  O   O18       1.0  0.90200  0.38900  0.48800  1.0000
  O   O19       1.0  0.09880  0.61100  0.51200  1.0000
  O   O20       1.0  0.34700  0.39000  0.51300  1.0000
  O   O21       1.0  0.14000  0.12100  0.52900  1.0000
  O   O22       1.0  0.62200  0.16400  0.53800  1.0000
  O   O23       1.0  0.35400  0.76500  0.72600  1.0000
  O   O24       1.0  0.38200  0.10600  0.72700  1.0000
  O   O25       1.0  0.69200  0.99600  0.73700  1.0000
  O   O26       1.0  0.10200  0.26300  0.74600  1.0000
  O   O27       1.0  0.91600  0.49300  0.74800  1.0000
  O   O28       1.0  0.08370  0.99300  0.75200  1.0000
  O   O29       1.0  0.89700  0.76300  0.75400  1.0000
  O   O30       1.0  0.30900  0.49600  0.76300  1.0000
  O   O31       1.0  0.61800  0.60500  0.77300  1.0000
  O   O32       1.0  0.64600  0.26500  0.77400  1.0000
  O   O33       1.0  0.37800  0.66400  0.96200  1.0000
  O   O34       1.0  0.86000  0.62100  0.97100  1.0000
  O   O35       1.0  0.65300  0.89000  0.98700  1.0000
  O   O36       1.0  0.90100  0.11100  0.98800  1.0000
  Si  Si1       1.0  0.16500  0.37700  0.18300  1.0000
  Si  Si2       1.0  0.59900  0.36600  0.19000  1.0000
  Si  Si3       1.0  0.40100  0.86600  0.31000  1.0000
  Si  Si4       1.0  0.83500  0.87700  0.31700  1.0000
  Si  Si5       1.0  0.16500  0.12300  0.68300  1.0000
  Si  Si6       1.0  0.59900  0.13400  0.69000  1.0000
  Si  Si7       1.0  0.40100  0.63300  0.81000  1.0000
  Si  Si8       1.0  0.83500  0.62300  0.81700  1.0000
  Zr  Zr1       1.0  0.12300  0.06770  0.11400  1.0000
  Zr  Zr2       1.0  0.87700  0.56800  0.38600  1.0000
  Zr  Zr3       1.0  0.12300  0.43200  0.61300  1.0000
  Zr  Zr4       1.0  0.87700  0.93200  0.88700  1.0000
