data_image0
_chemical_formula_structural       B18Ba6O36Y2
_chemical_formula_sum              "B18 Ba6 O36 Y2"
_cell_length_a       7.19014
_cell_length_b       7.19016
_cell_length_c       16.6078
_cell_angle_alpha    90
_cell_angle_beta     90
_cell_angle_gamma    120

_space_group_name_H-M_alt    "P 1"
_space_group_IT_number       1

loop_
  _space_group_symop_operation_xyz
  'x, y, z'

loop_
  _atom_site_type_symbol
  _atom_site_label
  _atom_site_symmetry_multiplicity
  _atom_site_fract_x
  _atom_site_fract_y
  _atom_site_fract_z
  _atom_site_occupancy
  B   B1        1.0  0.28600  0.83700  0.08260  1.0000
  B   B2        1.0  0.16200  0.44900  0.08260  1.0000
  B   B3        1.0  0.55100  0.71400  0.08260  1.0000
  B   B4        1.0  0.37800  0.49300  0.25000  1.0000
  B   B5        1.0  0.11500  0.62200  0.25000  1.0000
  B   B6        1.0  0.50700  0.88500  0.25000  1.0000
  B   B7        1.0  0.16200  0.44900  0.41700  1.0000
  B   B8        1.0  0.55100  0.71400  0.41700  1.0000
  B   B9        1.0  0.28600  0.83700  0.41700  1.0000
  B   B10       1.0  0.71400  0.16300  0.58300  1.0000
  B   B11       1.0  0.44900  0.28600  0.58300  1.0000
  B   B12       1.0  0.83800  0.55100  0.58300  1.0000
  B   B13       1.0  0.49300  0.11500  0.75000  1.0000
  B   B14       1.0  0.88500  0.37800  0.75000  1.0000
  B   B15       1.0  0.62200  0.50700  0.75000  1.0000
  B   B16       1.0  0.83800  0.55100  0.91700  1.0000
  B   B17       1.0  0.71400  0.16300  0.91700  1.0000
  B   B18       1.0  0.44900  0.28600  0.91700  1.0000
  Ba  Ba1       1.0  0.66700  0.33300  0.12900  1.0000
  Ba  Ba2       1.0  0.00000  0.00000  0.25000  1.0000
  Ba  Ba3       1.0  0.66700  0.33300  0.37100  1.0000
  Ba  Ba4       1.0  0.33300  0.66700  0.62900  1.0000
  Ba  Ba5       1.0  0.00000  0.00000  0.75000  1.0000
  Ba  Ba6       1.0  0.33300  0.66700  0.87100  1.0000
  O   O1        1.0  0.49900  0.87800  0.08090  1.0000
  O   O2        1.0  0.12200  0.62100  0.08090  1.0000
  O   O3        1.0  0.37900  0.50100  0.08090  1.0000
  O   O4        1.0  0.24800  0.00039  0.08400  1.0000
  O   O5        1.0  0.00000  0.24800  0.08400  1.0000
  O   O6        1.0  0.75200  0.75200  0.08400  1.0000
  O   O7        1.0  0.67000  0.08390  0.25000  1.0000
  O   O8        1.0  0.41300  0.33000  0.25000  1.0000
  O   O9        1.0  0.16600  0.45600  0.25000  1.0000
  O   O10       1.0  0.91600  0.58700  0.25000  1.0000
  O   O11       1.0  0.54400  0.70900  0.25000  1.0000
  O   O12       1.0  0.29100  0.83400  0.25000  1.0000
  O   O13       1.0  0.24800  0.00039  0.41600  1.0000
  O   O14       1.0  0.00000  0.24800  0.41600  1.0000
  O   O15       1.0  0.75200  0.75200  0.41600  1.0000
  O   O16       1.0  0.37900  0.50100  0.41900  1.0000
  O   O17       1.0  0.12200  0.62100  0.41900  1.0000
  O   O18       1.0  0.49900  0.87800  0.41900  1.0000
  O   O19       1.0  0.50100  0.12200  0.58100  1.0000
  O   O20       1.0  0.87800  0.37900  0.58100  1.0000
  O   O21       1.0  0.62100  0.49900  0.58100  1.0000
  O   O22       1.0  0.24800  0.24800  0.58400  1.0000
  O   O23       1.0  0.00040  0.75200  0.58400  1.0000
  O   O24       1.0  0.75200  0.00000  0.58400  1.0000
  O   O25       1.0  0.70900  0.16600  0.75000  1.0000
  O   O26       1.0  0.45600  0.29100  0.75000  1.0000
  O   O27       1.0  0.08390  0.41300  0.75000  1.0000
  O   O28       1.0  0.83400  0.54400  0.75000  1.0000
  O   O29       1.0  0.58700  0.67000  0.75000  1.0000
  O   O30       1.0  0.33000  0.91600  0.75000  1.0000
  O   O31       1.0  0.00040  0.75200  0.91600  1.0000
  O   O32       1.0  0.75200  0.00000  0.91600  1.0000
  O   O33       1.0  0.24800  0.24800  0.91600  1.0000
  O   O34       1.0  0.87800  0.37900  0.91900  1.0000
  O   O35       1.0  0.62100  0.49900  0.91900  1.0000
  O   O36       1.0  0.50100  0.12200  0.91900  1.0000
  Y   Y1        1.0  0.00000  0.00000  0.00000  1.0000
  Y   Y2        1.0  0.00000  0.00000  0.50000  1.0000
