data_image0
_chemical_formula_structural       C60Rb6
_chemical_formula_sum              "C60 Rb6"
_cell_length_a       10.009
_cell_length_b       10.009
_cell_length_c       10.009
_cell_angle_alpha    109.471
_cell_angle_beta     109.471
_cell_angle_gamma    109.471

_space_group_name_H-M_alt    "P 1"
_space_group_IT_number       1

loop_
  _space_group_symop_operation_xyz
  'x, y, z'

loop_
  _atom_site_type_symbol
  _atom_site_label
  _atom_site_symmetry_multiplicity
  _atom_site_fract_x
  _atom_site_fract_y
  _atom_site_fract_z
  _atom_site_occupancy
  C   C1        1.0  0.16200  0.38800  0.02290  1.0000
  C   C2        1.0  0.63500  0.86100  0.02290  1.0000
  C   C3        1.0  0.16200  0.73700  0.02420  1.0000
  C   C4        1.0  0.28700  0.86200  0.02420  1.0000
  C   C5        1.0  0.30300  0.36400  0.06180  1.0000
  C   C6        1.0  0.69700  0.75900  0.06180  1.0000
  C   C7        1.0  0.42500  0.16200  0.13800  1.0000
  C   C8        1.0  0.97600  0.71300  0.13800  1.0000
  C   C9        1.0  0.77500  0.16200  0.13900  1.0000
  C   C10       1.0  0.97700  0.36500  0.13900  1.0000
  C   C11       1.0  0.38800  0.02290  0.16200  1.0000
  C   C12       1.0  0.13900  0.77500  0.16200  1.0000
  C   C13       1.0  0.13800  0.42500  0.16200  1.0000
  C   C14       1.0  0.73700  0.02420  0.16200  1.0000
  C   C15       1.0  0.36500  0.38800  0.22500  1.0000
  C   C16       1.0  0.83800  0.86100  0.22500  1.0000
  C   C17       1.0  0.93800  0.30300  0.24100  1.0000
  C   C18       1.0  0.42500  0.28700  0.26300  1.0000
  C   C19       1.0  0.97600  0.83800  0.26300  1.0000
  C   C20       1.0  0.86200  0.02420  0.28700  1.0000
  C   C21       1.0  0.26300  0.42500  0.28700  1.0000
  C   C22       1.0  0.36400  0.06180  0.30300  1.0000
  C   C23       1.0  0.24100  0.93800  0.30300  1.0000
  C   C24       1.0  0.06180  0.30300  0.36400  1.0000
  C   C25       1.0  0.13900  0.97700  0.36500  1.0000
  C   C26       1.0  0.38800  0.22500  0.36500  1.0000
  C   C27       1.0  0.02290  0.16200  0.38800  1.0000
  C   C28       1.0  0.22500  0.36500  0.38800  1.0000
  C   C29       1.0  0.16200  0.13800  0.42500  1.0000
  C   C30       1.0  0.28700  0.26300  0.42500  1.0000
  C   C31       1.0  0.71300  0.73700  0.57500  1.0000
  C   C32       1.0  0.83800  0.86200  0.57500  1.0000
  C   C33       1.0  0.77500  0.63500  0.61200  1.0000
  C   C34       1.0  0.97700  0.83800  0.61200  1.0000
  C   C35       1.0  0.86100  0.02290  0.63500  1.0000
  C   C36       1.0  0.61200  0.77500  0.63500  1.0000
  C   C37       1.0  0.93800  0.69700  0.63600  1.0000
  C   C38       1.0  0.75900  0.06180  0.69700  1.0000
  C   C39       1.0  0.63600  0.93800  0.69700  1.0000
  C   C40       1.0  0.13800  0.97600  0.71300  1.0000
  C   C41       1.0  0.73700  0.57500  0.71300  1.0000
  C   C42       1.0  0.02420  0.16200  0.73700  1.0000
  C   C43       1.0  0.57500  0.71300  0.73700  1.0000
  C   C44       1.0  0.06180  0.69700  0.75900  1.0000
  C   C45       1.0  0.16200  0.13900  0.77500  1.0000
  C   C46       1.0  0.63500  0.61200  0.77500  1.0000
  C   C47       1.0  0.26300  0.97600  0.83800  1.0000
  C   C48       1.0  0.86200  0.57500  0.83800  1.0000
  C   C49       1.0  0.86100  0.22500  0.83800  1.0000
  C   C50       1.0  0.61200  0.97700  0.83800  1.0000
  C   C51       1.0  0.02290  0.63500  0.86100  1.0000
  C   C52       1.0  0.22500  0.83800  0.86100  1.0000
  C   C53       1.0  0.02420  0.28700  0.86200  1.0000
  C   C54       1.0  0.57500  0.83800  0.86200  1.0000
  C   C55       1.0  0.30300  0.24100  0.93800  1.0000
  C   C56       1.0  0.69700  0.63600  0.93800  1.0000
  C   C57       1.0  0.71300  0.13800  0.97600  1.0000
  C   C58       1.0  0.83800  0.26300  0.97600  1.0000
  C   C59       1.0  0.36500  0.13900  0.97700  1.0000
  C   C60       1.0  0.83800  0.61200  0.97700  1.0000
  Rb  Rb1       1.0  0.72000  0.50000  0.22000  1.0000
  Rb  Rb2       1.0  0.50000  0.78000  0.28000  1.0000
  Rb  Rb3       1.0  0.78000  0.28000  0.50000  1.0000
  Rb  Rb4       1.0  0.22000  0.72000  0.50000  1.0000
  Rb  Rb5       1.0  0.50000  0.22000  0.72000  1.0000
  Rb  Rb6       1.0  0.28000  0.50000  0.78000  1.0000
