data_image0
_chemical_formula_structural       B20Cd4Eu4O40
_chemical_formula_sum              "B20 Cd4 Eu4 O40"
_cell_length_a       8.5066
_cell_length_b       7.87232
_cell_length_c       9.68226
_cell_angle_alpha    90
_cell_angle_beta     91.9188
_cell_angle_gamma    90

_space_group_name_H-M_alt    "P 1"
_space_group_IT_number       1

loop_
  _space_group_symop_operation_xyz
  'x, y, z'

loop_
  _atom_site_type_symbol
  _atom_site_label
  _atom_site_symmetry_multiplicity
  _atom_site_fract_x
  _atom_site_fract_y
  _atom_site_fract_z
  _atom_site_occupancy
  B   B1        1.0  0.16200  0.39500  0.00956  1.0000
  B   B2        1.0  0.78000  0.03100  0.05840  1.0000
  B   B3        1.0  0.02090  0.81500  0.09350  1.0000
  B   B4        1.0  0.56300  0.82600  0.09790  1.0000
  B   B5        1.0  0.91400  0.57200  0.24500  1.0000
  B   B6        1.0  0.58600  0.07190  0.25500  1.0000
  B   B7        1.0  0.93700  0.32600  0.40200  1.0000
  B   B8        1.0  0.47900  0.31500  0.40600  1.0000
  B   B9        1.0  0.72000  0.53100  0.44200  1.0000
  B   B10       1.0  0.33800  0.89500  0.49000  1.0000
  B   B11       1.0  0.66200  0.10500  0.51000  1.0000
  B   B12       1.0  0.28000  0.46900  0.55800  1.0000
  B   B13       1.0  0.52100  0.68500  0.59400  1.0000
  B   B14       1.0  0.06330  0.67400  0.59800  1.0000
  B   B15       1.0  0.41400  0.92800  0.74500  1.0000
  B   B16       1.0  0.08620  0.42800  0.75500  1.0000
  B   B17       1.0  0.43700  0.17400  0.90200  1.0000
  B   B18       1.0  0.97900  0.18500  0.90600  1.0000
  B   B19       1.0  0.22000  0.96900  0.94200  1.0000
  B   B20       1.0  0.83800  0.60500  0.99000  1.0000
  Cd  Cd1       1.0  0.58500  0.40400  0.13000  1.0000
  Cd  Cd2       1.0  0.91500  0.90400  0.37000  1.0000
  Cd  Cd3       1.0  0.08500  0.09560  0.63000  1.0000
  Cd  Cd4       1.0  0.41500  0.59600  0.87000  1.0000
  Eu  Eu1       1.0  0.19000  0.16900  0.22900  1.0000
  Eu  Eu2       1.0  0.31000  0.66900  0.27100  1.0000
  Eu  Eu3       1.0  0.69000  0.33100  0.72900  1.0000
  Eu  Eu4       1.0  0.81000  0.83100  0.77100  1.0000
  O   O1        1.0  0.68000  0.88500  0.01550  1.0000
  O   O2        1.0  0.04470  0.27500  0.02440  1.0000
  O   O3        1.0  0.17700  0.88400  0.06960  1.0000
  O   O4        1.0  0.49300  0.67100  0.07860  1.0000
  O   O5        1.0  0.25700  0.43800  0.11800  1.0000
  O   O6        1.0  0.82000  0.53100  0.11900  1.0000
  O   O7        1.0  0.92400  0.96700  0.13500  1.0000
  O   O8        1.0  0.69600  0.14100  0.15300  1.0000
  O   O9        1.0  0.50800  0.91800  0.20600  1.0000
  O   O10       1.0  0.03080  0.70500  0.21800  1.0000
  O   O11       1.0  0.46900  0.20500  0.28200  1.0000
  O   O12       1.0  0.99200  0.41800  0.29400  1.0000
  O   O13       1.0  0.80400  0.64100  0.34700  1.0000
  O   O14       1.0  0.57600  0.46700  0.36500  1.0000
  O   O15       1.0  0.68000  0.03120  0.38100  1.0000
  O   O16       1.0  0.24300  0.93800  0.38200  1.0000
  O   O17       1.0  0.00675  0.17100  0.42100  1.0000
  O   O18       1.0  0.32300  0.38400  0.43000  1.0000
  O   O19       1.0  0.45500  0.77500  0.47600  1.0000
  O   O20       1.0  0.82000  0.38500  0.48500  1.0000
  O   O21       1.0  0.18000  0.61500  0.51500  1.0000
  O   O22       1.0  0.54500  0.22500  0.52400  1.0000
  O   O23       1.0  0.67700  0.61600  0.57000  1.0000
  O   O24       1.0  0.99300  0.82900  0.57900  1.0000
  O   O25       1.0  0.75700  0.06230  0.61800  1.0000
  O   O26       1.0  0.32000  0.96900  0.61900  1.0000
  O   O27       1.0  0.42400  0.53300  0.63500  1.0000
  O   O28       1.0  0.19600  0.35900  0.65300  1.0000
  O   O29       1.0  0.00836  0.58200  0.70600  1.0000
  O   O30       1.0  0.53100  0.79500  0.71800  1.0000
  O   O31       1.0  0.96900  0.29500  0.78200  1.0000
  O   O32       1.0  0.49200  0.08170  0.79400  1.0000
  O   O33       1.0  0.30400  0.85900  0.84700  1.0000
  O   O34       1.0  0.07620  0.03320  0.86500  1.0000
  O   O35       1.0  0.18000  0.46900  0.88100  1.0000
  O   O36       1.0  0.74300  0.56200  0.88200  1.0000
  O   O37       1.0  0.50700  0.32900  0.92100  1.0000
  O   O38       1.0  0.82300  0.11600  0.93000  1.0000
  O   O39       1.0  0.95500  0.72500  0.97600  1.0000
  O   O40       1.0  0.32000  0.11500  0.98500  1.0000
