data_image0
_chemical_formula_structural       As24Nb40
_chemical_formula_sum              "As24 Nb40"
_cell_length_a       26.3115
_cell_length_b       3.53722
_cell_length_c       11.892
_cell_angle_alpha    90
_cell_angle_beta     90
_cell_angle_gamma    90

_space_group_name_H-M_alt    "P 1"
_space_group_IT_number       1

loop_
  _space_group_symop_operation_xyz
  'x, y, z'

loop_
  _atom_site_type_symbol
  _atom_site_label
  _atom_site_symmetry_multiplicity
  _atom_site_fract_x
  _atom_site_fract_y
  _atom_site_fract_z
  _atom_site_occupancy
  As  As1       1.0  0.22000  0.25000  0.00393  1.0000
  As  As2       1.0  0.07640  0.25000  0.05170  1.0000
  As  As3       1.0  0.57300  0.75000  0.08090  1.0000
  As  As4       1.0  0.34400  0.25000  0.19200  1.0000
  As  As5       1.0  0.19800  0.75000  0.24600  1.0000
  As  As6       1.0  0.45100  0.75000  0.24900  1.0000
  As  As7       1.0  0.95100  0.75000  0.25100  1.0000
  As  As8       1.0  0.69800  0.75000  0.25400  1.0000
  As  As9       1.0  0.84400  0.25000  0.30800  1.0000
  As  As10      1.0  0.07250  0.75000  0.41900  1.0000
  As  As11      1.0  0.57600  0.25000  0.44800  1.0000
  As  As12      1.0  0.72000  0.25000  0.49600  1.0000
  As  As13      1.0  0.28000  0.75000  0.50400  1.0000
  As  As14      1.0  0.42400  0.75000  0.55200  1.0000
  As  As15      1.0  0.92700  0.25000  0.58100  1.0000
  As  As16      1.0  0.15600  0.75000  0.69200  1.0000
  As  As17      1.0  0.30200  0.25000  0.74600  1.0000
  As  As18      1.0  0.04920  0.25000  0.74900  1.0000
  As  As19      1.0  0.54900  0.25000  0.75100  1.0000
  As  As20      1.0  0.80200  0.25000  0.75400  1.0000
  As  As21      1.0  0.65600  0.75000  0.80800  1.0000
  As  As22      1.0  0.42700  0.25000  0.91900  1.0000
  As  As23      1.0  0.92400  0.75000  0.94800  1.0000
  As  As24      1.0  0.78000  0.75000  0.99600  1.0000
  Nb  Nb1       1.0  0.67700  0.75000  0.03960  1.0000
  Nb  Nb2       1.0  0.15100  0.75000  0.05560  1.0000
  Nb  Nb3       1.0  0.39800  0.75000  0.06670  1.0000
  Nb  Nb4       1.0  0.96700  0.25000  0.08320  1.0000
  Nb  Nb5       1.0  0.49800  0.25000  0.10500  1.0000
  Nb  Nb6       1.0  0.27600  0.75000  0.12000  1.0000
  Nb  Nb7       1.0  0.86300  0.75000  0.14700  1.0000
  Nb  Nb8       1.0  0.76100  0.25000  0.15500  1.0000
  Nb  Nb9       1.0  0.04610  0.75000  0.19700  1.0000
  Nb  Nb10      1.0  0.62300  0.25000  0.21100  1.0000
  Nb  Nb11      1.0  0.12300  0.25000  0.28900  1.0000
  Nb  Nb12      1.0  0.54600  0.75000  0.30300  1.0000
  Nb  Nb13      1.0  0.26100  0.25000  0.34500  1.0000
  Nb  Nb14      1.0  0.36300  0.75000  0.35300  1.0000
  Nb  Nb15      1.0  0.77600  0.75000  0.38000  1.0000
  Nb  Nb16      1.0  0.99800  0.25000  0.39500  1.0000
  Nb  Nb17      1.0  0.46700  0.25000  0.41700  1.0000
  Nb  Nb18      1.0  0.89800  0.75000  0.43300  1.0000
  Nb  Nb19      1.0  0.65100  0.75000  0.44400  1.0000
  Nb  Nb20      1.0  0.17700  0.75000  0.46000  1.0000
  Nb  Nb21      1.0  0.82300  0.25000  0.54000  1.0000
  Nb  Nb22      1.0  0.34900  0.25000  0.55600  1.0000
  Nb  Nb23      1.0  0.10200  0.25000  0.56700  1.0000
  Nb  Nb24      1.0  0.53300  0.75000  0.58300  1.0000
  Nb  Nb25      1.0  0.00156  0.75000  0.60500  1.0000
  Nb  Nb26      1.0  0.22400  0.25000  0.62000  1.0000
  Nb  Nb27      1.0  0.63700  0.25000  0.64700  1.0000
  Nb  Nb28      1.0  0.73900  0.75000  0.65500  1.0000
  Nb  Nb29      1.0  0.45400  0.25000  0.69700  1.0000
  Nb  Nb30      1.0  0.87700  0.75000  0.71100  1.0000
  Nb  Nb31      1.0  0.37700  0.75000  0.78900  1.0000
  Nb  Nb32      1.0  0.95400  0.25000  0.80300  1.0000
  Nb  Nb33      1.0  0.23900  0.75000  0.84500  1.0000
  Nb  Nb34      1.0  0.13700  0.25000  0.85300  1.0000
  Nb  Nb35      1.0  0.72400  0.25000  0.88000  1.0000
  Nb  Nb36      1.0  0.50200  0.75000  0.89500  1.0000
  Nb  Nb37      1.0  0.03280  0.75000  0.91700  1.0000
  Nb  Nb38      1.0  0.60200  0.25000  0.93300  1.0000
  Nb  Nb39      1.0  0.84900  0.25000  0.94400  1.0000
  Nb  Nb40      1.0  0.32300  0.25000  0.96000  1.0000
