data_image0
_chemical_formula_structural       K4Na28O28Pb8
_chemical_formula_sum              "K4 Na28 O28 Pb8"
_cell_length_a       17.4787
_cell_length_b       5.9204
_cell_length_c       10.6093
_cell_angle_alpha    90
_cell_angle_beta     90.3125
_cell_angle_gamma    90

_space_group_name_H-M_alt    "P 1"
_space_group_IT_number       1

loop_
  _space_group_symop_operation_xyz
  'x, y, z'

loop_
  _atom_site_type_symbol
  _atom_site_label
  _atom_site_symmetry_multiplicity
  _atom_site_fract_x
  _atom_site_fract_y
  _atom_site_fract_z
  _atom_site_occupancy
  K   K1        1.0  0.46400  0.98100  0.14000  1.0000
  K   K2        1.0  0.53600  0.48100  0.36000  1.0000
  K   K3        1.0  0.46400  0.51900  0.64000  1.0000
  K   K4        1.0  0.53600  0.01910  0.86000  1.0000
  Na  Na1       1.0  0.74700  0.64600  0.04160  1.0000
  Na  Na2       1.0  0.58000  0.44100  0.06990  1.0000
  Na  Na3       1.0  0.13400  0.66700  0.07900  1.0000
  Na  Na4       1.0  0.29400  0.90200  0.09070  1.0000
  Na  Na5       1.0  0.80400  0.18100  0.16700  1.0000
  Na  Na6       1.0  0.97100  0.33000  0.18600  1.0000
  Na  Na7       1.0  0.17800  0.21400  0.20600  1.0000
  Na  Na8       1.0  0.82200  0.71400  0.29400  1.0000
  Na  Na9       1.0  0.02900  0.83000  0.31400  1.0000
  Na  Na10      1.0  0.19600  0.68100  0.33300  1.0000
  Na  Na11      1.0  0.70600  0.40200  0.40900  1.0000
  Na  Na12      1.0  0.86600  0.16700  0.42100  1.0000
  Na  Na13      1.0  0.42000  0.94100  0.43000  1.0000
  Na  Na14      1.0  0.25300  0.14600  0.45800  1.0000
  Na  Na15      1.0  0.74700  0.85400  0.54200  1.0000
  Na  Na16      1.0  0.58000  0.05850  0.57000  1.0000
  Na  Na17      1.0  0.13400  0.83300  0.57900  1.0000
  Na  Na18      1.0  0.29400  0.59800  0.59100  1.0000
  Na  Na19      1.0  0.80400  0.31900  0.66700  1.0000
  Na  Na20      1.0  0.97100  0.17000  0.68600  1.0000
  Na  Na21      1.0  0.17800  0.28600  0.70600  1.0000
  Na  Na22      1.0  0.82200  0.78600  0.79400  1.0000
  Na  Na23      1.0  0.02900  0.67000  0.81400  1.0000
  Na  Na24      1.0  0.19600  0.81900  0.83300  1.0000
  Na  Na25      1.0  0.70600  0.09820  0.90900  1.0000
  Na  Na26      1.0  0.86600  0.33300  0.92100  1.0000
  Na  Na27      1.0  0.42000  0.55900  0.93000  1.0000
  Na  Na28      1.0  0.25300  0.35400  0.95800  1.0000
  O   O1        1.0  0.18000  0.02580  0.01650  1.0000
  O   O2        1.0  0.61800  0.06300  0.07040  1.0000
  O   O3        1.0  0.86200  0.51100  0.11800  1.0000
  O   O4        1.0  0.45400  0.48600  0.13800  1.0000
  O   O5        1.0  0.25900  0.54400  0.15300  1.0000
  O   O6        1.0  0.66700  0.58600  0.22100  1.0000
  O   O7        1.0  0.91800  0.98900  0.24400  1.0000
  O   O8        1.0  0.08220  0.48900  0.25600  1.0000
  O   O9        1.0  0.33300  0.08640  0.27900  1.0000
  O   O10       1.0  0.74100  0.04370  0.34700  1.0000
  O   O11       1.0  0.54600  0.98600  0.36200  1.0000
  O   O12       1.0  0.13800  0.01100  0.38200  1.0000
  O   O13       1.0  0.38200  0.56300  0.43000  1.0000
  O   O14       1.0  0.82000  0.52600  0.48400  1.0000
  O   O15       1.0  0.18000  0.47400  0.51600  1.0000
  O   O16       1.0  0.61800  0.43700  0.57000  1.0000
  O   O17       1.0  0.86200  0.98900  0.61800  1.0000
  O   O18       1.0  0.45400  0.01410  0.63800  1.0000
  O   O19       1.0  0.25900  0.95600  0.65300  1.0000
  O   O20       1.0  0.66700  0.91400  0.72100  1.0000
  O   O21       1.0  0.91800  0.51100  0.74400  1.0000
  O   O22       1.0  0.08220  0.01120  0.75600  1.0000
  O   O23       1.0  0.33300  0.41400  0.77900  1.0000
  O   O24       1.0  0.74100  0.45600  0.84700  1.0000
  O   O25       1.0  0.54600  0.51400  0.86200  1.0000
  O   O26       1.0  0.13800  0.48900  0.88200  1.0000
  O   O27       1.0  0.38200  0.93700  0.93000  1.0000
  O   O28       1.0  0.82000  0.97400  0.98400  1.0000
  Pb  Pb1       1.0  0.92500  0.81500  0.05870  1.0000
  Pb  Pb2       1.0  0.64200  0.93200  0.25000  1.0000
  Pb  Pb3       1.0  0.35800  0.43200  0.25000  1.0000
  Pb  Pb4       1.0  0.07540  0.31500  0.44100  1.0000
  Pb  Pb5       1.0  0.92500  0.68500  0.55900  1.0000
  Pb  Pb6       1.0  0.64200  0.56800  0.75000  1.0000
  Pb  Pb7       1.0  0.35800  0.06840  0.75000  1.0000
  Pb  Pb8       1.0  0.07540  0.18500  0.94100  1.0000
