data_image0
_chemical_formula_structural       Ag8O40Sb8Si8
_chemical_formula_sum              "Ag8 O40 Sb8 Si8"
_cell_length_a       12.7302
_cell_length_b       6.26828
_cell_length_c       10.754
_cell_angle_alpha    90
_cell_angle_beta     90
_cell_angle_gamma    90

_space_group_name_H-M_alt    "P 1"
_space_group_IT_number       1

loop_
  _space_group_symop_operation_xyz
  'x, y, z'

loop_
  _atom_site_type_symbol
  _atom_site_label
  _atom_site_symmetry_multiplicity
  _atom_site_fract_x
  _atom_site_fract_y
  _atom_site_fract_z
  _atom_site_occupancy
  Ag  Ag1       1.0  0.86100  0.45600  0.10300  1.0000
  Ag  Ag2       1.0  0.36100  0.54400  0.10300  1.0000
  Ag  Ag3       1.0  0.86100  0.04380  0.39700  1.0000
  Ag  Ag4       1.0  0.36100  0.95600  0.39700  1.0000
  Ag  Ag5       1.0  0.63900  0.04380  0.60300  1.0000
  Ag  Ag6       1.0  0.13900  0.95600  0.60300  1.0000
  Ag  Ag7       1.0  0.63900  0.45600  0.89700  1.0000
  Ag  Ag8       1.0  0.13900  0.54400  0.89700  1.0000
  O   O1        1.0  0.85000  0.08650  0.00785  1.0000
  O   O2        1.0  0.35000  0.91300  0.00785  1.0000
  O   O3        1.0  0.02160  0.23600  0.12000  1.0000
  O   O4        1.0  0.52200  0.76400  0.12000  1.0000
  O   O5        1.0  0.24600  0.23700  0.12100  1.0000
  O   O6        1.0  0.74600  0.76300  0.12100  1.0000
  O   O7        1.0  0.48100  0.21300  0.13400  1.0000
  O   O8        1.0  0.98100  0.78700  0.13400  1.0000
  O   O9        1.0  0.64500  0.44300  0.22500  1.0000
  O   O10       1.0  0.14500  0.55700  0.22500  1.0000
  O   O11       1.0  0.64500  0.05660  0.27500  1.0000
  O   O12       1.0  0.14500  0.94300  0.27500  1.0000
  O   O13       1.0  0.48100  0.28700  0.36600  1.0000
  O   O14       1.0  0.98100  0.71300  0.36600  1.0000
  O   O15       1.0  0.24600  0.26300  0.37900  1.0000
  O   O16       1.0  0.74600  0.73700  0.37900  1.0000
  O   O17       1.0  0.02160  0.26400  0.38000  1.0000
  O   O18       1.0  0.52200  0.73600  0.38000  1.0000
  O   O19       1.0  0.85000  0.41300  0.49200  1.0000
  O   O20       1.0  0.35000  0.58700  0.49200  1.0000
  O   O21       1.0  0.65000  0.41300  0.50800  1.0000
  O   O22       1.0  0.15000  0.58700  0.50800  1.0000
  O   O23       1.0  0.47800  0.26400  0.62000  1.0000
  O   O24       1.0  0.97800  0.73600  0.62000  1.0000
  O   O25       1.0  0.25400  0.26300  0.62100  1.0000
  O   O26       1.0  0.75400  0.73700  0.62100  1.0000
  O   O27       1.0  0.01910  0.28700  0.63400  1.0000
  O   O28       1.0  0.51900  0.71300  0.63400  1.0000
  O   O29       1.0  0.85500  0.05660  0.72500  1.0000
  O   O30       1.0  0.35500  0.94300  0.72500  1.0000
  O   O31       1.0  0.85500  0.44300  0.77500  1.0000
  O   O32       1.0  0.35500  0.55700  0.77500  1.0000
  O   O33       1.0  0.01910  0.21300  0.86600  1.0000
  O   O34       1.0  0.51900  0.78700  0.86600  1.0000
  O   O35       1.0  0.25400  0.23700  0.87900  1.0000
  O   O36       1.0  0.75400  0.76300  0.87900  1.0000
  O   O37       1.0  0.47800  0.23600  0.88000  1.0000
  O   O38       1.0  0.97800  0.76400  0.88000  1.0000
  O   O39       1.0  0.65000  0.08650  0.99200  1.0000
  O   O40       1.0  0.15000  0.91300  0.99200  1.0000
  Sb  Sb1       1.0  0.00000  0.00000  0.00000  1.0000
  Sb  Sb2       1.0  0.50000  0.00000  0.00000  1.0000
  Sb  Sb3       1.0  0.13300  0.25000  0.25000  1.0000
  Sb  Sb4       1.0  0.63300  0.75000  0.25000  1.0000
  Sb  Sb5       1.0  0.00000  0.50000  0.50000  1.0000
  Sb  Sb6       1.0  0.50000  0.50000  0.50000  1.0000
  Sb  Sb7       1.0  0.36700  0.25000  0.75000  1.0000
  Sb  Sb8       1.0  0.86700  0.75000  0.75000  1.0000
  Si  Si1       1.0  0.25000  0.07630  0.00000  1.0000
  Si  Si2       1.0  0.75000  0.92400  0.00000  1.0000
  Si  Si3       1.0  0.56200  0.25000  0.25000  1.0000
  Si  Si4       1.0  0.06230  0.75000  0.25000  1.0000
  Si  Si5       1.0  0.25000  0.42400  0.50000  1.0000
  Si  Si6       1.0  0.75000  0.57600  0.50000  1.0000
  Si  Si7       1.0  0.93800  0.25000  0.75000  1.0000
  Si  Si8       1.0  0.43800  0.75000  0.75000  1.0000
