data_image0
_chemical_formula_structural       Dy16O28S12Si8
_chemical_formula_sum              "Dy16 O28 S12 Si8"
_cell_length_a       10.6831
_cell_length_b       10.6831
_cell_length_c       10.6831
_cell_angle_alpha    100.919
_cell_angle_beta     113.909
_cell_angle_gamma    113.909

_space_group_name_H-M_alt    "P 1"
_space_group_IT_number       1

loop_
  _space_group_symop_operation_xyz
  'x, y, z'

loop_
  _atom_site_type_symbol
  _atom_site_label
  _atom_site_symmetry_multiplicity
  _atom_site_fract_x
  _atom_site_fract_y
  _atom_site_fract_z
  _atom_site_occupancy
  Dy  Dy1       1.0  0.09520  0.29800  0.04760  1.0000
  Dy  Dy2       1.0  0.75000  0.95200  0.04760  1.0000
  Dy  Dy3       1.0  0.51500  0.65900  0.17300  1.0000
  Dy  Dy4       1.0  0.25000  0.70200  0.29800  1.0000
  Dy  Dy5       1.0  0.59500  0.04760  0.29800  1.0000
  Dy  Dy6       1.0  0.51500  0.35600  0.34100  1.0000
  Dy  Dy7       1.0  0.98500  0.82700  0.34100  1.0000
  Dy  Dy8       1.0  0.01490  0.34100  0.35600  1.0000
  Dy  Dy9       1.0  0.98500  0.65900  0.64400  1.0000
  Dy  Dy10      1.0  0.01490  0.17300  0.65900  1.0000
  Dy  Dy11      1.0  0.48500  0.64400  0.65900  1.0000
  Dy  Dy12      1.0  0.75000  0.29800  0.70200  1.0000
  Dy  Dy13      1.0  0.40500  0.95200  0.70200  1.0000
  Dy  Dy14      1.0  0.48500  0.34100  0.82700  1.0000
  Dy  Dy15      1.0  0.25000  0.04760  0.95200  1.0000
  Dy  Dy16      1.0  0.90500  0.70200  0.95200  1.0000
  O   O1        1.0  0.23300  0.56700  0.08240  1.0000
  O   O2        1.0  0.51500  0.85000  0.08240  1.0000
  O   O3        1.0  0.23300  0.16500  0.15000  1.0000
  O   O4        1.0  0.98500  0.91800  0.15000  1.0000
  O   O5        1.0  0.75000  0.40100  0.15100  1.0000
  O   O6        1.0  0.73300  0.15000  0.16500  1.0000
  O   O7        1.0  0.01500  0.43300  0.16500  1.0000
  O   O8        1.0  0.51700  0.19100  0.17400  1.0000
  O   O9        1.0  0.98300  0.65700  0.17400  1.0000
  O   O10       1.0  0.01680  0.17400  0.19100  1.0000
  O   O11       1.0  0.51700  0.82600  0.34300  1.0000
  O   O12       1.0  0.25000  0.15100  0.40100  1.0000
  O   O13       1.0  0.26700  0.91800  0.43300  1.0000
  O   O14       1.0  0.51500  0.16500  0.43300  1.0000
  O   O15       1.0  0.73300  0.08240  0.56700  1.0000
  O   O16       1.0  0.48500  0.83500  0.56700  1.0000
  O   O17       1.0  0.75000  0.84900  0.59900  1.0000
  O   O18       1.0  0.48300  0.17400  0.65700  1.0000
  O   O19       1.0  0.98300  0.82600  0.80900  1.0000
  O   O20       1.0  0.01680  0.34300  0.82600  1.0000
  O   O21       1.0  0.48300  0.80900  0.82600  1.0000
  O   O22       1.0  0.26700  0.85000  0.83500  1.0000
  O   O23       1.0  0.98500  0.56700  0.83500  1.0000
  O   O24       1.0  0.25000  0.59900  0.84900  1.0000
  O   O25       1.0  0.01500  0.08240  0.85000  1.0000
  O   O26       1.0  0.76700  0.83500  0.85000  1.0000
  O   O27       1.0  0.48500  0.15000  0.91800  1.0000
  O   O28       1.0  0.76700  0.43300  0.91800  1.0000
  S   S1        1.0  0.35400  0.35400  0.00000  1.0000
  S   S2        1.0  0.64600  0.64600  0.00000  1.0000
  S   S3        1.0  0.25000  0.87500  0.12500  1.0000
  S   S4        1.0  0.85400  0.00000  0.35400  1.0000
  S   S5        1.0  0.35400  0.50000  0.35400  1.0000
  S   S6        1.0  0.75000  0.62500  0.37500  1.0000
  S   S7        1.0  0.14600  0.64600  0.50000  1.0000
  S   S8        1.0  0.85400  0.35400  0.50000  1.0000
  S   S9        1.0  0.25000  0.37500  0.62500  1.0000
  S   S10       1.0  0.14600  0.00000  0.64600  1.0000
  S   S11       1.0  0.64600  0.50000  0.64600  1.0000
  S   S12       1.0  0.75000  0.12500  0.87500  1.0000
  Si  Si1       1.0  0.62500  0.22100  0.09610  1.0000
  Si  Si2       1.0  0.87500  0.47100  0.09610  1.0000
  Si  Si3       1.0  0.12500  0.09610  0.22100  1.0000
  Si  Si4       1.0  0.37500  0.09610  0.47100  1.0000
  Si  Si5       1.0  0.62500  0.90400  0.52900  1.0000
  Si  Si6       1.0  0.87500  0.90400  0.77900  1.0000
  Si  Si7       1.0  0.12500  0.52900  0.90400  1.0000
  Si  Si8       1.0  0.37500  0.77900  0.90400  1.0000
