data_image0
_chemical_formula_structural       C12Cl4H40N4O4
_chemical_formula_sum              "C12 Cl4 H40 N4 O4"
_cell_length_a       14.0322
_cell_length_b       7.36757
_cell_length_c       5.27657
_cell_angle_alpha    90
_cell_angle_beta     90
_cell_angle_gamma    90

_space_group_name_H-M_alt    "P 1"
_space_group_IT_number       1

loop_
  _space_group_symop_operation_xyz
  'x, y, z'

loop_
  _atom_site_type_symbol
  _atom_site_label
  _atom_site_symmetry_multiplicity
  _atom_site_fract_x
  _atom_site_fract_y
  _atom_site_fract_z
  _atom_site_occupancy
  C   C1        1.0  0.14400  0.58300  0.15400  1.0000
  C   C2        1.0  0.14400  0.91700  0.15400  1.0000
  C   C3        1.0  0.94100  0.25000  0.17800  1.0000
  C   C4        1.0  0.44100  0.25000  0.32200  1.0000
  C   C5        1.0  0.64400  0.58300  0.34600  1.0000
  C   C6        1.0  0.64400  0.91700  0.34600  1.0000
  C   C7        1.0  0.35600  0.08330  0.65400  1.0000
  C   C8        1.0  0.35600  0.41700  0.65400  1.0000
  C   C9        1.0  0.55900  0.75000  0.67800  1.0000
  C   C10       1.0  0.05860  0.75000  0.82200  1.0000
  C   C11       1.0  0.85600  0.08330  0.84600  1.0000
  C   C12       1.0  0.85600  0.41700  0.84600  1.0000
  Cl  Cl1       1.0  0.39700  0.75000  0.14400  1.0000
  Cl  Cl2       1.0  0.89700  0.75000  0.35600  1.0000
  Cl  Cl3       1.0  0.10300  0.25000  0.64400  1.0000
  Cl  Cl4       1.0  0.60300  0.25000  0.85600  1.0000
  H   H1        1.0  0.14500  0.03440  0.02690  1.0000
  H   H2        1.0  0.14500  0.46600  0.02690  1.0000
  H   H3        1.0  0.71700  0.25000  0.05490  1.0000
  H   H4        1.0  0.00509  0.25000  0.05760  1.0000
  H   H5        1.0  0.43800  0.12700  0.20600  1.0000
  H   H6        1.0  0.43800  0.37300  0.20600  1.0000
  H   H7        1.0  0.70800  0.58800  0.22800  1.0000
  H   H8        1.0  0.70800  0.91200  0.22800  1.0000
  H   H9        1.0  0.57900  0.58500  0.22900  1.0000
  H   H10       1.0  0.57900  0.91500  0.22900  1.0000
  H   H11       1.0  0.07950  0.58500  0.27100  1.0000
  H   H12       1.0  0.07950  0.91500  0.27100  1.0000
  H   H13       1.0  0.20800  0.58800  0.27200  1.0000
  H   H14       1.0  0.20800  0.91200  0.27200  1.0000
  H   H15       1.0  0.93800  0.12700  0.29400  1.0000
  H   H16       1.0  0.93800  0.37300  0.29400  1.0000
  H   H17       1.0  0.50500  0.25000  0.44200  1.0000
  H   H18       1.0  0.21700  0.25000  0.44500  1.0000
  H   H19       1.0  0.64500  0.03440  0.47300  1.0000
  H   H20       1.0  0.64500  0.46600  0.47300  1.0000
  H   H21       1.0  0.35500  0.53400  0.52700  1.0000
  H   H22       1.0  0.35500  0.96600  0.52700  1.0000
  H   H23       1.0  0.78300  0.75000  0.55500  1.0000
  H   H24       1.0  0.49500  0.75000  0.55800  1.0000
  H   H25       1.0  0.06210  0.62700  0.70600  1.0000
  H   H26       1.0  0.06210  0.87300  0.70600  1.0000
  H   H27       1.0  0.79200  0.08760  0.72800  1.0000
  H   H28       1.0  0.79200  0.41200  0.72800  1.0000
  H   H29       1.0  0.92100  0.08490  0.72900  1.0000
  H   H30       1.0  0.92100  0.41500  0.72900  1.0000
  H   H31       1.0  0.42100  0.08490  0.77100  1.0000
  H   H32       1.0  0.42100  0.41500  0.77100  1.0000
  H   H33       1.0  0.29200  0.08760  0.77200  1.0000
  H   H34       1.0  0.29200  0.41200  0.77200  1.0000
  H   H35       1.0  0.56200  0.62700  0.79400  1.0000
  H   H36       1.0  0.56200  0.87300  0.79400  1.0000
  H   H37       1.0  0.99500  0.75000  0.94200  1.0000
  H   H38       1.0  0.28300  0.75000  0.94500  1.0000
  H   H39       1.0  0.85500  0.53400  0.97300  1.0000
  H   H40       1.0  0.85500  0.96600  0.97300  1.0000
  N   N1        1.0  0.85700  0.25000  0.00666  1.0000
  N   N2        1.0  0.35700  0.25000  0.49300  1.0000
  N   N3        1.0  0.64300  0.75000  0.50700  1.0000
  N   N4        1.0  0.14300  0.75000  0.99300  1.0000
  O   O1        1.0  0.77600  0.25000  0.17200  1.0000
  O   O2        1.0  0.27600  0.25000  0.32800  1.0000
  O   O3        1.0  0.72400  0.75000  0.67200  1.0000
  O   O4        1.0  0.22400  0.75000  0.82800  1.0000
