data_image0
_chemical_formula_structural       Na2Nb2O12Sr6
_chemical_formula_sum              "Na2 Nb2 O12 Sr6"
_cell_length_a       6.77381
_cell_length_b       6.77381
_cell_length_c       6.77381
_cell_angle_alpha    91.2523
_cell_angle_beta     91.2523
_cell_angle_gamma    91.2523

_space_group_name_H-M_alt    "P 1"
_space_group_IT_number       1

loop_
  _space_group_symop_operation_xyz
  'x, y, z'

loop_
  _atom_site_type_symbol
  _atom_site_label
  _atom_site_symmetry_multiplicity
  _atom_site_fract_x
  _atom_site_fract_y
  _atom_site_fract_z
  _atom_site_occupancy
  Na  Na1       1.0  0.25000  0.25000  0.25000  1.0000
  Na  Na2       1.0  0.75000  0.75000  0.75000  1.0000
  Nb  Nb1       1.0  0.50000  0.50000  0.50000  1.0000
  Nb  Nb2       1.0  0.00000  0.00000  0.00000  1.0000
  O   O1        1.0  0.55500  0.21700  0.42300  1.0000
  O   O2        1.0  0.42300  0.55500  0.21700  1.0000
  O   O3        1.0  0.21700  0.42300  0.55500  1.0000
  O   O4        1.0  0.28300  0.94500  0.07650  1.0000
  O   O5        1.0  0.94500  0.07650  0.28300  1.0000
  O   O6        1.0  0.07650  0.28300  0.94500  1.0000
  O   O7        1.0  0.44500  0.78300  0.57700  1.0000
  O   O8        1.0  0.57700  0.44500  0.78300  1.0000
  O   O9        1.0  0.78300  0.57700  0.44500  1.0000
  O   O10       1.0  0.71700  0.05510  0.92300  1.0000
  O   O11       1.0  0.05510  0.92300  0.71700  1.0000
  O   O12       1.0  0.92300  0.71700  0.05510  1.0000
  Sr  Sr1       1.0  0.60500  0.89500  0.25000  1.0000
  Sr  Sr2       1.0  0.25000  0.60500  0.89500  1.0000
  Sr  Sr3       1.0  0.89500  0.25000  0.60500  1.0000
  Sr  Sr4       1.0  0.39500  0.10500  0.75000  1.0000
  Sr  Sr5       1.0  0.75000  0.39500  0.10500  1.0000
  Sr  Sr6       1.0  0.10500  0.75000  0.39500  1.0000
