data_image0
_chemical_formula_structural       O36Te6Zn18
_chemical_formula_sum              "O36 Te6 Zn18"
_cell_length_a       8.6745
_cell_length_b       8.6745
_cell_length_c       10.3548
_cell_angle_alpha    92.6267
_cell_angle_beta     92.6267
_cell_angle_gamma    61.5981

_space_group_name_H-M_alt    "P 1"
_space_group_IT_number       1

loop_
  _space_group_symop_operation_xyz
  'x, y, z'

loop_
  _atom_site_type_symbol
  _atom_site_label
  _atom_site_symmetry_multiplicity
  _atom_site_fract_x
  _atom_site_fract_y
  _atom_site_fract_z
  _atom_site_occupancy
  O   O1        1.0  0.76200  0.09100  0.06150  1.0000
  O   O2        1.0  0.42300  0.42600  0.06820  1.0000
  O   O3        1.0  0.09090  0.76800  0.07370  1.0000
  O   O4        1.0  0.11900  0.42900  0.09910  1.0000
  O   O5        1.0  0.41200  0.10800  0.10500  1.0000
  O   O6        1.0  0.04930  0.09600  0.15800  1.0000
  O   O7        1.0  0.77900  0.73300  0.17400  1.0000
  O   O8        1.0  0.45000  0.76500  0.20000  1.0000
  O   O9        1.0  0.75500  0.44200  0.20300  1.0000
  O   O10       1.0  0.55800  0.24500  0.29700  1.0000
  O   O11       1.0  0.23500  0.55000  0.30000  1.0000
  O   O12       1.0  0.26700  0.22100  0.32600  1.0000
  O   O13       1.0  0.90400  0.95100  0.34200  1.0000
  O   O14       1.0  0.89200  0.58800  0.39500  1.0000
  O   O15       1.0  0.57100  0.88100  0.40100  1.0000
  O   O16       1.0  0.23200  0.90900  0.42600  1.0000
  O   O17       1.0  0.57400  0.57700  0.43200  1.0000
  O   O18       1.0  0.90900  0.23800  0.43800  1.0000
  O   O19       1.0  0.09100  0.76200  0.56200  1.0000
  O   O20       1.0  0.42600  0.42300  0.56800  1.0000
  O   O21       1.0  0.76800  0.09090  0.57400  1.0000
  O   O22       1.0  0.42900  0.11900  0.59900  1.0000
  O   O23       1.0  0.10800  0.41200  0.60500  1.0000
  O   O24       1.0  0.09600  0.04930  0.65800  1.0000
  O   O25       1.0  0.73300  0.77900  0.67400  1.0000
  O   O26       1.0  0.76500  0.45000  0.70000  1.0000
  O   O27       1.0  0.44200  0.75500  0.70300  1.0000
  O   O28       1.0  0.24500  0.55800  0.79700  1.0000
  O   O29       1.0  0.55000  0.23500  0.80000  1.0000
  O   O30       1.0  0.22100  0.26700  0.82600  1.0000
  O   O31       1.0  0.95100  0.90400  0.84200  1.0000
  O   O32       1.0  0.58800  0.89200  0.89500  1.0000
  O   O33       1.0  0.88100  0.57100  0.90100  1.0000
  O   O34       1.0  0.90900  0.23200  0.92600  1.0000
  O   O35       1.0  0.57700  0.57400  0.93200  1.0000
  O   O36       1.0  0.23800  0.90900  0.93800  1.0000
  Te  Te1       1.0  0.00000  0.00000  0.00000  1.0000
  Te  Te2       1.0  0.33900  0.33400  0.19700  1.0000
  Te  Te3       1.0  0.66600  0.66100  0.30300  1.0000
  Te  Te4       1.0  0.00000  0.00000  0.50000  1.0000
  Te  Te5       1.0  0.33400  0.33900  0.69700  1.0000
  Te  Te6       1.0  0.66100  0.66600  0.80300  1.0000
  Zn  Zn1       1.0  0.37200  0.67600  0.05130  1.0000
  Zn  Zn2       1.0  0.89400  0.43000  0.05660  1.0000
  Zn  Zn3       1.0  0.65800  0.93400  0.07320  1.0000
  Zn  Zn4       1.0  0.00000  0.72200  0.24500  1.0000
  Zn  Zn5       1.0  0.80100  0.19900  0.25000  1.0000
  Zn  Zn6       1.0  0.27800  0.00000  0.25500  1.0000
  Zn  Zn7       1.0  0.06550  0.34200  0.42700  1.0000
  Zn  Zn8       1.0  0.57000  0.10600  0.44300  1.0000
  Zn  Zn9       1.0  0.32400  0.62800  0.44900  1.0000
  Zn  Zn10      1.0  0.67600  0.37200  0.55100  1.0000
  Zn  Zn11      1.0  0.43000  0.89400  0.55700  1.0000
  Zn  Zn12      1.0  0.93400  0.65800  0.57300  1.0000
  Zn  Zn13      1.0  0.72200  1.00000  0.74500  1.0000
  Zn  Zn14      1.0  0.19900  0.80100  0.75000  1.0000
  Zn  Zn15      1.0  0.00000  0.27800  0.75500  1.0000
  Zn  Zn16      1.0  0.34200  0.06550  0.92700  1.0000
  Zn  Zn17      1.0  0.10600  0.57000  0.94300  1.0000
  Zn  Zn18      1.0  0.62800  0.32400  0.94900  1.0000
