data_image0
_chemical_formula_structural       K8O40P8Ti8
_chemical_formula_sum              "K8 O40 P8 Ti8"
_cell_length_a       12.7697
_cell_length_b       6.38332
_cell_length_c       10.5484
_cell_angle_alpha    90
_cell_angle_beta     90
_cell_angle_gamma    90

_space_group_name_H-M_alt    "P 1"
_space_group_IT_number       1

loop_
  _space_group_symop_operation_xyz
  'x, y, z'

loop_
  _atom_site_type_symbol
  _atom_site_label
  _atom_site_symmetry_multiplicity
  _atom_site_fract_x
  _atom_site_fract_y
  _atom_site_fract_z
  _atom_site_occupancy
  K   K1        1.0  0.60600  0.19300  0.06670  1.0000
  K   K2        1.0  0.10600  0.30700  0.06670  1.0000
  K   K3        1.0  0.37900  0.22000  0.31300  1.0000
  K   K4        1.0  0.87900  0.28000  0.31300  1.0000
  K   K5        1.0  0.89400  0.69300  0.56700  1.0000
  K   K6        1.0  0.39400  0.80700  0.56700  1.0000
  K   K7        1.0  0.12100  0.72000  0.81300  1.0000
  K   K8        1.0  0.62100  0.78000  0.81300  1.0000
  O   O1        1.0  0.39000  0.18600  0.04110  1.0000
  O   O2        1.0  0.89000  0.31400  0.04110  1.0000
  O   O3        1.0  0.74500  0.53700  0.12600  1.0000
  O   O4        1.0  0.24500  0.96300  0.12600  1.0000
  O   O5        1.0  0.27600  0.53000  0.14000  1.0000
  O   O6        1.0  0.77600  0.97000  0.14000  1.0000
  O   O7        1.0  0.48900  0.51200  0.14900  1.0000
  O   O8        1.0  0.98900  0.98800  0.14900  1.0000
  O   O9        1.0  0.09320  0.68700  0.24000  1.0000
  O   O10       1.0  0.59300  0.81300  0.24000  1.0000
  O   O11       1.0  0.90000  0.69400  0.27800  1.0000
  O   O12       1.0  0.40000  0.80600  0.27800  1.0000
  O   O13       1.0  0.50800  0.53500  0.38500  1.0000
  O   O14       1.0  0.00763  0.96500  0.38500  1.0000
  O   O15       1.0  0.72400  0.54500  0.38500  1.0000
  O   O16       1.0  0.22400  0.95500  0.38500  1.0000
  O   O17       1.0  0.25300  0.53300  0.39700  1.0000
  O   O18       1.0  0.75300  0.96700  0.39700  1.0000
  O   O19       1.0  0.60900  0.19400  0.48500  1.0000
  O   O20       1.0  0.10900  0.30600  0.48500  1.0000
  O   O21       1.0  0.11000  0.68600  0.54100  1.0000
  O   O22       1.0  0.61000  0.81400  0.54100  1.0000
  O   O23       1.0  0.75500  0.03720  0.62600  1.0000
  O   O24       1.0  0.25500  0.46300  0.62600  1.0000
  O   O25       1.0  0.22400  0.03030  0.64000  1.0000
  O   O26       1.0  0.72400  0.47000  0.64000  1.0000
  O   O27       1.0  0.01150  0.01180  0.64900  1.0000
  O   O28       1.0  0.51100  0.48800  0.64900  1.0000
  O   O29       1.0  0.40700  0.18700  0.74000  1.0000
  O   O30       1.0  0.90700  0.31300  0.74000  1.0000
  O   O31       1.0  0.60000  0.19400  0.77800  1.0000
  O   O32       1.0  0.09970  0.30600  0.77800  1.0000
  O   O33       1.0  0.99200  0.03550  0.88500  1.0000
  O   O34       1.0  0.49200  0.46500  0.88500  1.0000
  O   O35       1.0  0.77600  0.04540  0.88500  1.0000
  O   O36       1.0  0.27600  0.45500  0.88500  1.0000
  O   O37       1.0  0.24700  0.03280  0.89700  1.0000
  O   O38       1.0  0.74700  0.46700  0.89700  1.0000
  O   O39       1.0  0.89100  0.69400  0.98500  1.0000
  O   O40       1.0  0.39100  0.80600  0.98500  1.0000
  P   P1        1.0  0.82000  0.50400  0.01160  1.0000
  P   P2        1.0  0.32000  0.99600  0.01160  1.0000
  P   P3        1.0  0.49800  0.66500  0.26100  1.0000
  P   P4        1.0  0.99800  0.83500  0.26100  1.0000
  P   P5        1.0  0.68000  0.00419  0.51200  1.0000
  P   P6        1.0  0.18000  0.49600  0.51200  1.0000
  P   P7        1.0  0.00189  0.16500  0.76100  1.0000
  P   P8        1.0  0.50200  0.33500  0.76100  1.0000
  Ti  Ti1       1.0  0.87300  0.00000  0.00688  1.0000
  Ti  Ti2       1.0  0.37300  0.50000  0.00688  1.0000
  Ti  Ti3       1.0  0.24500  0.73900  0.25600  1.0000
  Ti  Ti4       1.0  0.74500  0.76100  0.25600  1.0000
  Ti  Ti5       1.0  0.12700  0.00000  0.50700  1.0000
  Ti  Ti6       1.0  0.62700  0.50000  0.50700  1.0000
  Ti  Ti7       1.0  0.25500  0.23900  0.75600  1.0000
  Ti  Ti8       1.0  0.75500  0.26100  0.75600  1.0000
