data_image0
_chemical_formula_structural       B6C6Cl18H18N6Si6
_chemical_formula_sum              "B6 C6 Cl18 H18 N6 Si6"
_cell_length_a       10.7333
_cell_length_b       10.7333
_cell_length_c       10.7333
_cell_angle_alpha    106.412
_cell_angle_beta     106.412
_cell_angle_gamma    106.412

_space_group_name_H-M_alt    "P 1"
_space_group_IT_number       1

loop_
  _space_group_symop_operation_xyz
  'x, y, z'

loop_
  _atom_site_type_symbol
  _atom_site_label
  _atom_site_symmetry_multiplicity
  _atom_site_fract_x
  _atom_site_fract_y
  _atom_site_fract_z
  _atom_site_occupancy
  B   B1        1.0  0.29800  0.38700  0.21700  1.0000
  B   B2        1.0  0.38700  0.21700  0.29800  1.0000
  B   B3        1.0  0.21700  0.29800  0.38700  1.0000
  B   B4        1.0  0.88700  0.79800  0.71700  1.0000
  B   B5        1.0  0.71700  0.88700  0.79800  1.0000
  B   B6        1.0  0.79800  0.71700  0.88700  1.0000
  C   C1        1.0  0.29000  0.47700  0.12200  1.0000
  C   C2        1.0  0.47700  0.12200  0.29000  1.0000
  C   C3        1.0  0.12200  0.29000  0.47700  1.0000
  C   C4        1.0  0.97700  0.79000  0.62200  1.0000
  C   C5        1.0  0.62200  0.97700  0.79000  1.0000
  C   C6        1.0  0.79000  0.62200  0.97700  1.0000
  Cl  Cl1       1.0  0.62400  0.33100  0.00069  1.0000
  Cl  Cl2       1.0  0.50100  0.83100  0.12400  1.0000
  Cl  Cl3       1.0  0.20100  0.83100  0.15400  1.0000
  Cl  Cl4       1.0  0.83100  0.15400  0.20100  1.0000
  Cl  Cl5       1.0  0.97500  0.95200  0.31700  1.0000
  Cl  Cl6       1.0  0.70100  0.65400  0.33100  1.0000
  Cl  Cl7       1.0  0.00069  0.62400  0.33100  1.0000
  Cl  Cl8       1.0  0.47500  0.81700  0.45200  1.0000
  Cl  Cl9       1.0  0.81700  0.45200  0.47500  1.0000
  Cl  Cl10      1.0  0.83100  0.12400  0.50100  1.0000
  Cl  Cl11      1.0  0.33100  0.00069  0.62400  1.0000
  Cl  Cl12      1.0  0.33100  0.70100  0.65400  1.0000
  Cl  Cl13      1.0  0.65400  0.33100  0.70100  1.0000
  Cl  Cl14      1.0  0.45200  0.47500  0.81700  1.0000
  Cl  Cl15      1.0  0.15400  0.20100  0.83100  1.0000
  Cl  Cl16      1.0  0.12400  0.50100  0.83100  1.0000
  Cl  Cl17      1.0  0.31700  0.97500  0.95200  1.0000
  Cl  Cl18      1.0  0.95200  0.31700  0.97500  1.0000
  H   H1        1.0  0.88600  0.60000  0.00742  1.0000
  H   H2        1.0  0.77700  0.67400  0.07420  1.0000
  H   H3        1.0  0.38600  0.50700  0.10000  1.0000
  H   H4        1.0  0.43800  0.30500  0.15600  1.0000
  H   H5        1.0  0.27700  0.57400  0.17400  1.0000
  H   H6        1.0  0.57400  0.17400  0.27700  1.0000
  H   H7        1.0  0.15600  0.43800  0.30500  1.0000
  H   H8        1.0  0.50700  0.10000  0.38600  1.0000
  H   H9        1.0  0.30500  0.15600  0.43800  1.0000
  H   H10       1.0  0.10000  0.38600  0.50700  1.0000
  H   H11       1.0  0.17400  0.27700  0.57400  1.0000
  H   H12       1.0  0.00742  0.88600  0.60000  1.0000
  H   H13       1.0  0.80500  0.93800  0.65600  1.0000
  H   H14       1.0  0.07420  0.77700  0.67400  1.0000
  H   H15       1.0  0.67400  0.07420  0.77700  1.0000
  H   H16       1.0  0.93800  0.65600  0.80500  1.0000
  H   H17       1.0  0.60000  0.00742  0.88600  1.0000
  H   H18       1.0  0.65600  0.80500  0.93800  1.0000
  N   N1        1.0  0.38200  0.30400  0.21800  1.0000
  N   N2        1.0  0.21800  0.38200  0.30400  1.0000
  N   N3        1.0  0.30400  0.21800  0.38200  1.0000
  N   N4        1.0  0.80400  0.88200  0.71800  1.0000
  N   N5        1.0  0.88200  0.71800  0.80400  1.0000
  N   N6        1.0  0.71800  0.80400  0.88200  1.0000
  Si  Si1       1.0  0.38000  0.94900  0.13900  1.0000
  Si  Si2       1.0  0.94900  0.13900  0.38000  1.0000
  Si  Si3       1.0  0.88000  0.63900  0.44900  1.0000
  Si  Si4       1.0  0.44900  0.88000  0.63900  1.0000
  Si  Si5       1.0  0.63900  0.44900  0.88000  1.0000
  Si  Si6       1.0  0.13900  0.38000  0.94900  1.0000
