data_image0
_chemical_formula_structural       Cs8Ga4O40P12
_chemical_formula_sum              "Cs8 Ga4 O40 P12"
_cell_length_a       12.0875
_cell_length_b       8.86176
_cell_length_c       9.52131
_cell_angle_alpha    90
_cell_angle_beta     96.0104
_cell_angle_gamma    90

_space_group_name_H-M_alt    "P 1"
_space_group_IT_number       1

loop_
  _space_group_symop_operation_xyz
  'x, y, z'

loop_
  _atom_site_type_symbol
  _atom_site_label
  _atom_site_symmetry_multiplicity
  _atom_site_fract_x
  _atom_site_fract_y
  _atom_site_fract_z
  _atom_site_occupancy
  Cs  Cs1       1.0  0.15200  0.11900  0.00995  1.0000
  Cs  Cs2       1.0  0.53800  0.90700  0.24200  1.0000
  Cs  Cs3       1.0  0.46200  0.40700  0.25800  1.0000
  Cs  Cs4       1.0  0.84800  0.61900  0.49000  1.0000
  Cs  Cs5       1.0  0.15200  0.38100  0.51000  1.0000
  Cs  Cs6       1.0  0.53800  0.59300  0.74200  1.0000
  Cs  Cs7       1.0  0.46200  0.09310  0.75800  1.0000
  Cs  Cs8       1.0  0.84800  0.88100  0.99000  1.0000
  Ga  Ga1       1.0  0.16000  0.64700  0.14600  1.0000
  Ga  Ga2       1.0  0.84000  0.14700  0.35400  1.0000
  Ga  Ga3       1.0  0.16000  0.85300  0.64600  1.0000
  Ga  Ga4       1.0  0.84000  0.35300  0.85400  1.0000
  O   O1        1.0  0.94000  0.34000  0.03880  1.0000
  O   O2        1.0  0.55700  0.17400  0.05220  1.0000
  O   O3        1.0  0.24100  0.46800  0.07190  1.0000
  O   O4        1.0  0.27100  0.78100  0.07580  1.0000
  O   O5        1.0  0.66900  0.67200  0.12400  1.0000
  O   O6        1.0  0.68400  0.38900  0.13000  1.0000
  O   O7        1.0  0.75000  0.12100  0.17500  1.0000
  O   O8        1.0  0.85600  0.55200  0.17500  1.0000
  O   O9        1.0  0.07100  0.81900  0.19400  1.0000
  O   O10       1.0  0.05940  0.50200  0.22300  1.0000
  O   O11       1.0  0.94100  0.00164  0.27700  1.0000
  O   O12       1.0  0.92900  0.31900  0.30600  1.0000
  O   O13       1.0  0.14400  0.05240  0.32500  1.0000
  O   O14       1.0  0.25000  0.62100  0.32500  1.0000
  O   O15       1.0  0.31600  0.88900  0.37000  1.0000
  O   O16       1.0  0.33100  0.17200  0.37600  1.0000
  O   O17       1.0  0.72900  0.28100  0.42400  1.0000
  O   O18       1.0  0.75900  0.96800  0.42800  1.0000
  O   O19       1.0  0.44300  0.67400  0.44800  1.0000
  O   O20       1.0  0.06000  0.84000  0.46100  1.0000
  O   O21       1.0  0.94000  0.16000  0.53900  1.0000
  O   O22       1.0  0.55700  0.32600  0.55200  1.0000
  O   O23       1.0  0.24100  0.03170  0.57200  1.0000
  O   O24       1.0  0.27100  0.71900  0.57600  1.0000
  O   O25       1.0  0.66900  0.82800  0.62400  1.0000
  O   O26       1.0  0.68400  0.11100  0.63000  1.0000
  O   O27       1.0  0.75000  0.37900  0.67500  1.0000
  O   O28       1.0  0.85600  0.94800  0.67500  1.0000
  O   O29       1.0  0.07100  0.68100  0.69400  1.0000
  O   O30       1.0  0.05940  0.99800  0.72300  1.0000
  O   O31       1.0  0.94100  0.49800  0.77700  1.0000
  O   O32       1.0  0.92900  0.18100  0.80600  1.0000
  O   O33       1.0  0.14400  0.44800  0.82500  1.0000
  O   O34       1.0  0.25000  0.87900  0.82500  1.0000
  O   O35       1.0  0.31600  0.61100  0.87000  1.0000
  O   O36       1.0  0.33100  0.32800  0.87600  1.0000
  O   O37       1.0  0.72900  0.21900  0.92400  1.0000
  O   O38       1.0  0.75900  0.53200  0.92800  1.0000
  O   O39       1.0  0.44300  0.82600  0.94800  1.0000
  O   O40       1.0  0.06000  0.66000  0.96100  1.0000
  P   P1        1.0  0.67700  0.21500  0.06520  1.0000
  P   P2        1.0  0.73600  0.54300  0.08200  1.0000
  P   P3        1.0  0.95100  0.41900  0.18100  1.0000
  P   P4        1.0  0.04910  0.91900  0.31900  1.0000
  P   P5        1.0  0.26400  0.04250  0.41800  1.0000
  P   P6        1.0  0.32300  0.71500  0.43500  1.0000
  P   P7        1.0  0.67700  0.28500  0.56500  1.0000
  P   P8        1.0  0.73600  0.95700  0.58200  1.0000
  P   P9        1.0  0.95100  0.08080  0.68100  1.0000
  P   P10       1.0  0.04910  0.58100  0.81900  1.0000
  P   P11       1.0  0.26400  0.45700  0.91800  1.0000
  P   P12       1.0  0.32300  0.78500  0.93500  1.0000
