data_image0
_chemical_formula_structural       Cu10O36Te6Zn8
_chemical_formula_sum              "Cu10 O36 Te6 Zn8"
_cell_length_a       8.58861
_cell_length_b       8.58861
_cell_length_c       10.3887
_cell_angle_alpha    93.905
_cell_angle_beta     93.905
_cell_angle_gamma    61.3502

_space_group_name_H-M_alt    "P 1"
_space_group_IT_number       1

loop_
  _space_group_symop_operation_xyz
  'x, y, z'

loop_
  _atom_site_type_symbol
  _atom_site_label
  _atom_site_symmetry_multiplicity
  _atom_site_fract_x
  _atom_site_fract_y
  _atom_site_fract_z
  _atom_site_occupancy
  Cu  Cu1       1.0  0.97500  0.35300  0.05260  1.0000
  Cu  Cu2       1.0  0.20000  0.50300  0.23900  1.0000
  Cu  Cu3       1.0  0.68200  0.31800  0.25000  1.0000
  Cu  Cu4       1.0  0.49700  0.80000  0.26100  1.0000
  Cu  Cu5       1.0  0.64700  0.02530  0.44700  1.0000
  Cu  Cu6       1.0  0.35300  0.97500  0.55300  1.0000
  Cu  Cu7       1.0  0.50300  0.20000  0.73900  1.0000
  Cu  Cu8       1.0  0.31800  0.68200  0.75000  1.0000
  Cu  Cu9       1.0  0.80000  0.49700  0.76100  1.0000
  Cu  Cu10      1.0  0.02530  0.64700  0.94700  1.0000
  O   O1        1.0  0.58700  0.26000  0.05570  1.0000
  O   O2        1.0  0.25700  0.58900  0.05700  1.0000
  O   O3        1.0  0.91900  0.92700  0.06220  1.0000
  O   O4        1.0  0.93400  0.61700  0.10700  1.0000
  O   O5        1.0  0.60700  0.91500  0.10800  1.0000
  O   O6        1.0  0.21400  0.28000  0.16500  1.0000
  O   O7        1.0  0.57900  0.55800  0.17000  1.0000
  O   O8        1.0  0.92600  0.26000  0.19900  1.0000
  O   O9        1.0  0.25600  0.94000  0.20500  1.0000
  O   O10       1.0  0.06020  0.74400  0.29500  1.0000
  O   O11       1.0  0.74000  0.07370  0.30100  1.0000
  O   O12       1.0  0.44200  0.42100  0.33000  1.0000
  O   O13       1.0  0.72000  0.78600  0.33500  1.0000
  O   O14       1.0  0.08550  0.39300  0.39200  1.0000
  O   O15       1.0  0.38300  0.06630  0.39300  1.0000
  O   O16       1.0  0.07320  0.08070  0.43800  1.0000
  O   O17       1.0  0.41100  0.74300  0.44300  1.0000
  O   O18       1.0  0.74000  0.41300  0.44400  1.0000
  O   O19       1.0  0.26000  0.58700  0.55600  1.0000
  O   O20       1.0  0.58900  0.25700  0.55700  1.0000
  O   O21       1.0  0.92700  0.91900  0.56200  1.0000
  O   O22       1.0  0.61700  0.93400  0.60700  1.0000
  O   O23       1.0  0.91500  0.60700  0.60800  1.0000
  O   O24       1.0  0.28000  0.21400  0.66500  1.0000
  O   O25       1.0  0.55800  0.57900  0.67000  1.0000
  O   O26       1.0  0.26000  0.92600  0.69900  1.0000
  O   O27       1.0  0.94000  0.25600  0.70500  1.0000
  O   O28       1.0  0.74400  0.06020  0.79500  1.0000
  O   O29       1.0  0.07370  0.74000  0.80100  1.0000
  O   O30       1.0  0.42100  0.44200  0.83000  1.0000
  O   O31       1.0  0.78600  0.72000  0.83500  1.0000
  O   O32       1.0  0.39300  0.08550  0.89200  1.0000
  O   O33       1.0  0.06630  0.38300  0.89300  1.0000
  O   O34       1.0  0.08070  0.07320  0.93800  1.0000
  O   O35       1.0  0.74300  0.41100  0.94300  1.0000
  O   O36       1.0  0.41300  0.74000  0.94400  1.0000
  Te  Te1       1.0  0.50000  0.50000  0.00000  1.0000
  Te  Te2       1.0  0.83500  0.84800  0.19700  1.0000
  Te  Te3       1.0  0.15200  0.16500  0.30300  1.0000
  Te  Te4       1.0  0.50000  0.50000  0.50000  1.0000
  Te  Te5       1.0  0.84800  0.83500  0.69700  1.0000
  Te  Te6       1.0  0.16500  0.15200  0.80300  1.0000
  Zn  Zn1       1.0  0.17800  0.85900  0.04710  1.0000
  Zn  Zn2       1.0  0.42900  0.16300  0.07370  1.0000
  Zn  Zn3       1.0  0.83700  0.57100  0.42600  1.0000
  Zn  Zn4       1.0  0.14100  0.82200  0.45300  1.0000
  Zn  Zn5       1.0  0.85900  0.17800  0.54700  1.0000
  Zn  Zn6       1.0  0.16300  0.42900  0.57400  1.0000
  Zn  Zn7       1.0  0.57100  0.83700  0.92600  1.0000
  Zn  Zn8       1.0  0.82200  0.14100  0.95300  1.0000
