data_image0
_chemical_formula_structural       Fe4O44P12Si4
_chemical_formula_sum              "Fe4 O44 P12 Si4"
_cell_length_a       8.18564
_cell_length_b       8.18564
_cell_length_c       13.808
_cell_angle_alpha    107.242
_cell_angle_beta     90
_cell_angle_gamma    60

_space_group_name_H-M_alt    "P 1"
_space_group_IT_number       1

loop_
  _space_group_symop_operation_xyz
  'x, y, z'

loop_
  _atom_site_type_symbol
  _atom_site_label
  _atom_site_symmetry_multiplicity
  _atom_site_fract_x
  _atom_site_fract_y
  _atom_site_fract_z
  _atom_site_occupancy
  Fe  Fe1       1.0  0.65800  0.68500  0.02730  1.0000
  Fe  Fe2       1.0  0.84200  0.31500  0.47300  1.0000
  Fe  Fe3       1.0  0.15800  0.68500  0.52700  1.0000
  Fe  Fe4       1.0  0.34200  0.31500  0.97300  1.0000
  O   O1        1.0  0.00000  0.00000  0.00000  1.0000
  O   O2        1.0  0.21500  0.60600  0.06400  1.0000
  O   O3        1.0  0.17900  0.27900  0.06400  1.0000
  O   O4        1.0  0.54200  0.24300  0.06400  1.0000
  O   O5        1.0  0.53700  0.96800  0.11700  1.0000
  O   O6        1.0  0.49400  0.65400  0.11700  1.0000
  O   O7        1.0  0.85200  0.61100  0.11700  1.0000
  O   O8        1.0  0.15400  0.95200  0.16300  1.0000
  O   O9        1.0  0.89400  0.31700  0.16300  1.0000
  O   O10       1.0  0.78900  0.05680  0.16300  1.0000
  O   O11       1.0  0.25000  0.70200  0.25000  1.0000
  O   O12       1.0  0.04840  0.50000  0.25000  1.0000
  O   O13       1.0  0.45200  0.29800  0.25000  1.0000
  O   O14       1.0  0.34600  0.94300  0.33700  1.0000
  O   O15       1.0  0.71100  0.68300  0.33700  1.0000
  O   O16       1.0  0.60600  0.04830  0.33700  1.0000
  O   O17       1.0  0.96300  0.38900  0.38300  1.0000
  O   O18       1.0  0.64800  0.34600  0.38300  1.0000
  O   O19       1.0  0.00566  0.03150  0.38300  1.0000
  O   O20       1.0  0.28500  0.75700  0.43600  1.0000
  O   O21       1.0  0.95800  0.72100  0.43600  1.0000
  O   O22       1.0  0.32100  0.39400  0.43600  1.0000
  O   O23       1.0  0.50000  0.00000  0.50000  1.0000
  O   O24       1.0  0.67900  0.60600  0.56400  1.0000
  O   O25       1.0  0.04220  0.27900  0.56400  1.0000
  O   O26       1.0  0.71500  0.24300  0.56400  1.0000
  O   O27       1.0  0.99400  0.96800  0.61700  1.0000
  O   O28       1.0  0.35200  0.65400  0.61700  1.0000
  O   O29       1.0  0.03720  0.61100  0.61700  1.0000
  O   O30       1.0  0.39400  0.95200  0.66300  1.0000
  O   O31       1.0  0.28900  0.31700  0.66300  1.0000
  O   O32       1.0  0.65400  0.05680  0.66300  1.0000
  O   O33       1.0  0.54800  0.70200  0.75000  1.0000
  O   O34       1.0  0.95200  0.50000  0.75000  1.0000
  O   O35       1.0  0.75000  0.29800  0.75000  1.0000
  O   O36       1.0  0.21100  0.94300  0.83700  1.0000
  O   O37       1.0  0.10600  0.68300  0.83700  1.0000
  O   O38       1.0  0.84600  0.04830  0.83700  1.0000
  O   O39       1.0  0.14800  0.38900  0.88300  1.0000
  O   O40       1.0  0.50600  0.34600  0.88300  1.0000
  O   O41       1.0  0.46300  0.03150  0.88300  1.0000
  O   O42       1.0  0.45800  0.75700  0.93600  1.0000
  O   O43       1.0  0.82100  0.72100  0.93600  1.0000
  O   O44       1.0  0.78500  0.39400  0.93600  1.0000
  P   P1        1.0  0.28800  0.71700  0.14000  1.0000
  P   P2        1.0  0.99500  0.42800  0.14000  1.0000
  P   P3        1.0  0.57800  0.13400  0.14000  1.0000
  P   P4        1.0  0.21200  0.86600  0.36000  1.0000
  P   P5        1.0  0.92200  0.57200  0.36000  1.0000
  P   P6        1.0  0.50500  0.28300  0.36000  1.0000
  P   P7        1.0  0.49500  0.71700  0.64000  1.0000
  P   P8        1.0  0.07750  0.42800  0.64000  1.0000
  P   P9        1.0  0.78800  0.13400  0.64000  1.0000
  P   P10       1.0  0.42200  0.86600  0.86000  1.0000
  P   P11       1.0  0.00545  0.57200  0.86000  1.0000
  P   P12       1.0  0.71200  0.28300  0.86000  1.0000
  Si  Si1       1.0  0.95900  0.08120  0.12200  1.0000
  Si  Si2       1.0  0.54100  0.91900  0.37800  1.0000
  Si  Si3       1.0  0.45900  0.08120  0.62200  1.0000
  Si  Si4       1.0  0.04060  0.91900  0.87800  1.0000
