data_image0
_chemical_formula_structural       N32S28Tl8
_chemical_formula_sum              "N32 S28 Tl8"
_cell_length_a       9.20541
_cell_length_b       11.3802
_cell_length_c       11.6991
_cell_angle_alpha    90
_cell_angle_beta     90
_cell_angle_gamma    90

_space_group_name_H-M_alt    "P 1"
_space_group_IT_number       1

loop_
  _space_group_symop_operation_xyz
  'x, y, z'

loop_
  _atom_site_type_symbol
  _atom_site_label
  _atom_site_symmetry_multiplicity
  _atom_site_fract_x
  _atom_site_fract_y
  _atom_site_fract_z
  _atom_site_occupancy
  N   N1        1.0  0.25000  0.81200  0.04280  1.0000
  N   N2        1.0  0.75000  0.59600  0.06820  1.0000
  N   N3        1.0  0.61100  0.40300  0.14400  1.0000
  N   N4        1.0  0.88900  0.40300  0.14400  1.0000
  N   N5        1.0  0.25000  0.02230  0.16000  1.0000
  N   N6        1.0  0.25000  0.31500  0.22200  1.0000
  N   N7        1.0  0.61000  0.10300  0.23000  1.0000
  N   N8        1.0  0.89000  0.10300  0.23000  1.0000
  N   N9        1.0  0.61000  0.60300  0.27000  1.0000
  N   N10       1.0  0.89000  0.60300  0.27000  1.0000
  N   N11       1.0  0.25000  0.81500  0.27800  1.0000
  N   N12       1.0  0.25000  0.52200  0.34000  1.0000
  N   N13       1.0  0.61100  0.90300  0.35600  1.0000
  N   N14       1.0  0.88900  0.90300  0.35600  1.0000
  N   N15       1.0  0.75000  0.09630  0.43200  1.0000
  N   N16       1.0  0.25000  0.31200  0.45700  1.0000
  N   N17       1.0  0.75000  0.68800  0.54300  1.0000
  N   N18       1.0  0.25000  0.90400  0.56800  1.0000
  N   N19       1.0  0.11100  0.09670  0.64400  1.0000
  N   N20       1.0  0.38900  0.09670  0.64400  1.0000
  N   N21       1.0  0.75000  0.47800  0.66000  1.0000
  N   N22       1.0  0.75000  0.18500  0.72200  1.0000
  N   N23       1.0  0.11000  0.39700  0.73000  1.0000
  N   N24       1.0  0.39000  0.39700  0.73000  1.0000
  N   N25       1.0  0.11000  0.89700  0.77000  1.0000
  N   N26       1.0  0.39000  0.89700  0.77000  1.0000
  N   N27       1.0  0.75000  0.68500  0.77800  1.0000
  N   N28       1.0  0.75000  0.97800  0.84000  1.0000
  N   N29       1.0  0.11100  0.59700  0.85600  1.0000
  N   N30       1.0  0.38900  0.59700  0.85600  1.0000
  N   N31       1.0  0.25000  0.40400  0.93200  1.0000
  N   N32       1.0  0.75000  0.18800  0.95700  1.0000
  S   S1        1.0  0.25000  0.95500  0.03680  1.0000
  S   S2        1.0  0.75000  0.45200  0.06490  1.0000
  S   S3        1.0  0.25000  0.73600  0.16200  1.0000
  S   S4        1.0  0.75000  0.65700  0.19700  1.0000
  S   S5        1.0  0.25000  0.45800  0.21700  1.0000
  S   S6        1.0  0.60200  0.96000  0.22900  1.0000
  S   S7        1.0  0.89800  0.96000  0.22900  1.0000
  S   S8        1.0  0.60200  0.46000  0.27100  1.0000
  S   S9        1.0  0.89800  0.46000  0.27100  1.0000
  S   S10       1.0  0.25000  0.95800  0.28300  1.0000
  S   S11       1.0  0.75000  0.15700  0.30300  1.0000
  S   S12       1.0  0.25000  0.23600  0.33800  1.0000
  S   S13       1.0  0.75000  0.95200  0.43500  1.0000
  S   S14       1.0  0.25000  0.45500  0.46300  1.0000
  S   S15       1.0  0.75000  0.54500  0.53700  1.0000
  S   S16       1.0  0.25000  0.04850  0.56500  1.0000
  S   S17       1.0  0.75000  0.76400  0.66200  1.0000
  S   S18       1.0  0.25000  0.84300  0.69700  1.0000
  S   S19       1.0  0.75000  0.04240  0.71700  1.0000
  S   S20       1.0  0.10200  0.54000  0.72900  1.0000
  S   S21       1.0  0.39800  0.54000  0.72900  1.0000
  S   S22       1.0  0.10200  0.03970  0.77100  1.0000
  S   S23       1.0  0.39800  0.03970  0.77100  1.0000
  S   S24       1.0  0.75000  0.54200  0.78300  1.0000
  S   S25       1.0  0.25000  0.34300  0.80300  1.0000
  S   S26       1.0  0.75000  0.26400  0.83800  1.0000
  S   S27       1.0  0.25000  0.54800  0.93500  1.0000
  S   S28       1.0  0.75000  0.04490  0.96300  1.0000
  Tl  Tl1       1.0  0.04160  0.22000  0.05570  1.0000
  Tl  Tl2       1.0  0.45800  0.22000  0.05570  1.0000
  Tl  Tl3       1.0  0.04160  0.72000  0.44400  1.0000
  Tl  Tl4       1.0  0.45800  0.72000  0.44400  1.0000
  Tl  Tl5       1.0  0.54200  0.28000  0.55600  1.0000
  Tl  Tl6       1.0  0.95800  0.28000  0.55600  1.0000
  Tl  Tl7       1.0  0.54200  0.78000  0.94400  1.0000
  Tl  Tl8       1.0  0.95800  0.78000  0.94400  1.0000
