data_image0
_chemical_formula_structural       As24K24Sn6Sr12
_chemical_formula_sum              "As24 K24 Sn6 Sr12"
_cell_length_a       18.2708
_cell_length_b       18.2708
_cell_length_c       7.73192
_cell_angle_alpha    90
_cell_angle_beta     90
_cell_angle_gamma    120

_space_group_name_H-M_alt    "P 1"
_space_group_IT_number       1

loop_
  _space_group_symop_operation_xyz
  'x, y, z'

loop_
  _atom_site_type_symbol
  _atom_site_label
  _atom_site_symmetry_multiplicity
  _atom_site_fract_x
  _atom_site_fract_y
  _atom_site_fract_z
  _atom_site_occupancy
  As  As1       1.0  0.31800  0.00000  0.34700  1.0000
  As  As2       1.0  0.00000  0.31800  0.34700  1.0000
  As  As3       1.0  0.68200  0.68200  0.34700  1.0000
  As  As4       1.0  0.80600  0.00000  0.38000  1.0000
  As  As5       1.0  0.19400  0.19400  0.38000  1.0000
  As  As6       1.0  0.00000  0.80600  0.38000  1.0000
  As  As7       1.0  0.68200  0.14500  0.39400  1.0000
  As  As8       1.0  0.46300  0.31800  0.39400  1.0000
  As  As9       1.0  0.31800  0.46300  0.39400  1.0000
  As  As10      1.0  0.85500  0.53700  0.39400  1.0000
  As  As11      1.0  0.14500  0.68200  0.39400  1.0000
  As  As12      1.0  0.53700  0.85500  0.39400  1.0000
  As  As13      1.0  0.68200  0.00000  0.84700  1.0000
  As  As14      1.0  0.31800  0.31800  0.84700  1.0000
  As  As15      1.0  0.00000  0.68200  0.84700  1.0000
  As  As16      1.0  0.19400  0.00000  0.88000  1.0000
  As  As17      1.0  0.00000  0.19400  0.88000  1.0000
  As  As18      1.0  0.80600  0.80600  0.88000  1.0000
  As  As19      1.0  0.46300  0.14500  0.89400  1.0000
  As  As20      1.0  0.85500  0.31800  0.89400  1.0000
  As  As21      1.0  0.14500  0.46300  0.89400  1.0000
  As  As22      1.0  0.68200  0.53700  0.89400  1.0000
  As  As23      1.0  0.53700  0.68200  0.89400  1.0000
  As  As24      1.0  0.31800  0.85500  0.89400  1.0000
  K   K1        1.0  0.53100  0.00000  0.12100  1.0000
  K   K2        1.0  0.46900  0.46900  0.12100  1.0000
  K   K3        1.0  0.00000  0.53100  0.12100  1.0000
  K   K4        1.0  0.13500  0.00000  0.29400  1.0000
  K   K5        1.0  0.00000  0.13500  0.29400  1.0000
  K   K6        1.0  0.86500  0.86500  0.29400  1.0000
  K   K7        1.0  0.52400  0.18200  0.31100  1.0000
  K   K8        1.0  0.81800  0.34100  0.31100  1.0000
  K   K9        1.0  0.65900  0.47600  0.31100  1.0000
  K   K10       1.0  0.18200  0.52400  0.31100  1.0000
  K   K11       1.0  0.47600  0.65900  0.31100  1.0000
  K   K12       1.0  0.34100  0.81800  0.31100  1.0000
  K   K13       1.0  0.46900  0.00000  0.62100  1.0000
  K   K14       1.0  0.00000  0.46900  0.62100  1.0000
  K   K15       1.0  0.53100  0.53100  0.62100  1.0000
  K   K16       1.0  0.86500  0.00000  0.79400  1.0000
  K   K17       1.0  0.13500  0.13500  0.79400  1.0000
  K   K18       1.0  0.00000  0.86500  0.79400  1.0000
  K   K19       1.0  0.65900  0.18200  0.81100  1.0000
  K   K20       1.0  0.52400  0.34100  0.81100  1.0000
  K   K21       1.0  0.81800  0.47600  0.81100  1.0000
  K   K22       1.0  0.34100  0.52400  0.81100  1.0000
  K   K23       1.0  0.18200  0.65900  0.81100  1.0000
  K   K24       1.0  0.47600  0.81800  0.81100  1.0000
  Sn  Sn1       1.0  0.33200  0.00000  0.00015  1.0000
  Sn  Sn2       1.0  0.00000  0.33200  0.00015  1.0000
  Sn  Sn3       1.0  0.66800  0.66800  0.00015  1.0000
  Sn  Sn4       1.0  0.66800  0.00000  0.50000  1.0000
  Sn  Sn5       1.0  0.33200  0.33200  0.50000  1.0000
  Sn  Sn6       1.0  0.00000  0.66800  0.50000  1.0000
  Sr  Sr1       1.0  0.81000  0.14100  0.11900  1.0000
  Sr  Sr2       1.0  0.33100  0.19000  0.11900  1.0000
  Sr  Sr3       1.0  0.19000  0.33100  0.11900  1.0000
  Sr  Sr4       1.0  0.85900  0.66900  0.11900  1.0000
  Sr  Sr5       1.0  0.14100  0.81000  0.11900  1.0000
  Sr  Sr6       1.0  0.66900  0.85900  0.11900  1.0000
  Sr  Sr7       1.0  0.33100  0.14100  0.61900  1.0000
  Sr  Sr8       1.0  0.85900  0.19000  0.61900  1.0000
  Sr  Sr9       1.0  0.14100  0.33100  0.61900  1.0000
  Sr  Sr10      1.0  0.81000  0.66900  0.61900  1.0000
  Sr  Sr11      1.0  0.66900  0.81000  0.61900  1.0000
  Sr  Sr12      1.0  0.19000  0.85900  0.61900  1.0000
