data_image0
_chemical_formula_structural       K12S44Ta8
_chemical_formula_sum              "K12 S44 Ta8"
_cell_length_a       7.97258
_cell_length_b       12.3719
_cell_length_c       18.3647
_cell_angle_alpha    100.283
_cell_angle_beta     102.537
_cell_angle_gamma    90

_space_group_name_H-M_alt    "P 1"
_space_group_IT_number       1

loop_
  _space_group_symop_operation_xyz
  'x, y, z'

loop_
  _atom_site_type_symbol
  _atom_site_label
  _atom_site_symmetry_multiplicity
  _atom_site_fract_x
  _atom_site_fract_y
  _atom_site_fract_z
  _atom_site_occupancy
  K   K1        1.0  0.35300  0.09410  0.06540  1.0000
  K   K2        1.0  0.71200  0.59400  0.06540  1.0000
  K   K3        1.0  0.34300  0.82900  0.23500  1.0000
  K   K4        1.0  0.89200  0.32900  0.23500  1.0000
  K   K5        1.0  0.36300  0.25600  0.42000  1.0000
  K   K6        1.0  0.05690  0.75600  0.42000  1.0000
  K   K7        1.0  0.94300  0.24400  0.58000  1.0000
  K   K8        1.0  0.63700  0.74400  0.58000  1.0000
  K   K9        1.0  0.65700  0.17100  0.76500  1.0000
  K   K10       1.0  0.10800  0.67100  0.76500  1.0000
  K   K11       1.0  0.28800  0.40600  0.93500  1.0000
  K   K12       1.0  0.64700  0.90600  0.93500  1.0000
  S   S1        1.0  0.10000  0.42900  0.07680  1.0000
  S   S2        1.0  0.97700  0.92900  0.07680  1.0000
  S   S3        1.0  0.53300  0.85400  0.09030  1.0000
  S   S4        1.0  0.55800  0.35400  0.09030  1.0000
  S   S5        1.0  0.24700  0.57700  0.10100  1.0000
  S   S6        1.0  0.85400  0.07660  0.10100  1.0000
  S   S7        1.0  0.27900  0.27200  0.21100  1.0000
  S   S8        1.0  0.93200  0.77200  0.21100  1.0000
  S   S9        1.0  0.66400  0.09420  0.23900  1.0000
  S   S10       1.0  0.57400  0.59400  0.23900  1.0000
  S   S11       1.0  0.08050  0.05090  0.26400  1.0000
  S   S12       1.0  0.18300  0.55100  0.26400  1.0000
  S   S13       1.0  0.50000  0.35600  0.28100  1.0000
  S   S14       1.0  0.78100  0.85600  0.28100  1.0000
  S   S15       1.0  0.75400  0.55200  0.32900  1.0000
  S   S16       1.0  0.57400  0.05200  0.32900  1.0000
  S   S17       1.0  0.17500  0.99800  0.36700  1.0000
  S   S18       1.0  0.19200  0.49800  0.36700  1.0000
  S   S19       1.0  0.94200  0.25900  0.40500  1.0000
  S   S20       1.0  0.46300  0.75900  0.40500  1.0000
  S   S21       1.0  0.87300  0.00300  0.46900  1.0000
  S   S22       1.0  0.59600  0.50300  0.46900  1.0000
  S   S23       1.0  0.12700  0.99700  0.53100  1.0000
  S   S24       1.0  0.40400  0.49700  0.53100  1.0000
  S   S25       1.0  0.53700  0.24100  0.59500  1.0000
  S   S26       1.0  0.05770  0.74100  0.59500  1.0000
  S   S27       1.0  0.82500  0.00195  0.63300  1.0000
  S   S28       1.0  0.80800  0.50200  0.63300  1.0000
  S   S29       1.0  0.24600  0.44800  0.67100  1.0000
  S   S30       1.0  0.42600  0.94800  0.67100  1.0000
  S   S31       1.0  0.50000  0.64400  0.71900  1.0000
  S   S32       1.0  0.21900  0.14400  0.71900  1.0000
  S   S33       1.0  0.91900  0.94900  0.73600  1.0000
  S   S34       1.0  0.81700  0.44900  0.73600  1.0000
  S   S35       1.0  0.42600  0.40600  0.76100  1.0000
  S   S36       1.0  0.33600  0.90600  0.76100  1.0000
  S   S37       1.0  0.06790  0.22800  0.78900  1.0000
  S   S38       1.0  0.72100  0.72800  0.78900  1.0000
  S   S39       1.0  0.75300  0.42300  0.89900  1.0000
  S   S40       1.0  0.14600  0.92300  0.89900  1.0000
  S   S41       1.0  0.46700  0.14600  0.91000  1.0000
  S   S42       1.0  0.44200  0.64600  0.91000  1.0000
  S   S43       1.0  0.90000  0.57100  0.92300  1.0000
  S   S44       1.0  0.02330  0.07080  0.92300  1.0000
  Ta  Ta1       1.0  0.38100  0.42700  0.16500  1.0000
  Ta  Ta2       1.0  0.78400  0.92700  0.16500  1.0000
  Ta  Ta3       1.0  0.89300  0.07970  0.35500  1.0000
  Ta  Ta4       1.0  0.46200  0.58000  0.35500  1.0000
  Ta  Ta5       1.0  0.53800  0.42000  0.64500  1.0000
  Ta  Ta6       1.0  0.10700  0.92000  0.64500  1.0000
  Ta  Ta7       1.0  0.61900  0.57300  0.83500  1.0000
  Ta  Ta8       1.0  0.21600  0.07260  0.83500  1.0000
