data_image0
_chemical_formula_structural       As8Cr8O36Rb8
_chemical_formula_sum              "As8 Cr8 O36 Rb8"
_cell_length_a       8.57934
_cell_length_b       5.71146
_cell_length_c       18.271
_cell_angle_alpha    90
_cell_angle_beta     90
_cell_angle_gamma    90

_space_group_name_H-M_alt    "P 1"
_space_group_IT_number       1

loop_
  _space_group_symop_operation_xyz
  'x, y, z'

loop_
  _atom_site_type_symbol
  _atom_site_label
  _atom_site_symmetry_multiplicity
  _atom_site_fract_x
  _atom_site_fract_y
  _atom_site_fract_z
  _atom_site_occupancy
  As  As1       1.0  0.17500  0.75000  0.05460  1.0000
  As  As2       1.0  0.68200  0.25000  0.14300  1.0000
  As  As3       1.0  0.18200  0.25000  0.35700  1.0000
  As  As4       1.0  0.67500  0.75000  0.44500  1.0000
  As  As5       1.0  0.32500  0.25000  0.55500  1.0000
  As  As6       1.0  0.81800  0.75000  0.64300  1.0000
  As  As7       1.0  0.31800  0.75000  0.85700  1.0000
  As  As8       1.0  0.82500  0.25000  0.94500  1.0000
  Cr  Cr1       1.0  0.50000  0.00000  0.00000  1.0000
  Cr  Cr2       1.0  0.50000  0.50000  0.00000  1.0000
  Cr  Cr3       1.0  0.77900  0.75000  0.06070  1.0000
  Cr  Cr4       1.0  0.27900  0.75000  0.43900  1.0000
  Cr  Cr5       1.0  0.00000  0.00000  0.50000  1.0000
  Cr  Cr6       1.0  0.00000  0.50000  0.50000  1.0000
  Cr  Cr7       1.0  0.72100  0.25000  0.56100  1.0000
  Cr  Cr8       1.0  0.22100  0.25000  0.93900  1.0000
  O   O1        1.0  0.99300  0.75000  0.01980  1.0000
  O   O2        1.0  0.27000  0.50000  0.02030  1.0000
  O   O3        1.0  0.27000  0.00000  0.02030  1.0000
  O   O4        1.0  0.55200  0.75000  0.06900  1.0000
  O   O5        1.0  0.53600  0.25000  0.07480  1.0000
  O   O6        1.0  0.80200  0.00585  0.13500  1.0000
  O   O7        1.0  0.80200  0.49400  0.13500  1.0000
  O   O8        1.0  0.18500  0.75000  0.14600  1.0000
  O   O9        1.0  0.58100  0.25000  0.22200  1.0000
  O   O10       1.0  0.08120  0.25000  0.27800  1.0000
  O   O11       1.0  0.68500  0.75000  0.35400  1.0000
  O   O12       1.0  0.30200  0.00585  0.36500  1.0000
  O   O13       1.0  0.30200  0.49400  0.36500  1.0000
  O   O14       1.0  0.03570  0.25000  0.42500  1.0000
  O   O15       1.0  0.05200  0.75000  0.43100  1.0000
  O   O16       1.0  0.77000  0.50000  0.48000  1.0000
  O   O17       1.0  0.77000  0.00000  0.48000  1.0000
  O   O18       1.0  0.49300  0.75000  0.48000  1.0000
  O   O19       1.0  0.50700  0.25000  0.52000  1.0000
  O   O20       1.0  0.23000  0.00047  0.52000  1.0000
  O   O21       1.0  0.23000  0.50000  0.52000  1.0000
  O   O22       1.0  0.94800  0.25000  0.56900  1.0000
  O   O23       1.0  0.96400  0.75000  0.57500  1.0000
  O   O24       1.0  0.69800  0.50600  0.63500  1.0000
  O   O25       1.0  0.69800  0.99400  0.63500  1.0000
  O   O26       1.0  0.31500  0.25000  0.64600  1.0000
  O   O27       1.0  0.91900  0.75000  0.72200  1.0000
  O   O28       1.0  0.41900  0.75000  0.77800  1.0000
  O   O29       1.0  0.81500  0.25000  0.85400  1.0000
  O   O30       1.0  0.19800  0.50600  0.86500  1.0000
  O   O31       1.0  0.19800  0.99400  0.86500  1.0000
  O   O32       1.0  0.46400  0.75000  0.92500  1.0000
  O   O33       1.0  0.44800  0.25000  0.93100  1.0000
  O   O34       1.0  0.73000  0.00047  0.98000  1.0000
  O   O35       1.0  0.73000  0.50000  0.98000  1.0000
  O   O36       1.0  0.00699  0.25000  0.98000  1.0000
  Rb  Rb1       1.0  0.10700  0.25000  0.13700  1.0000
  Rb  Rb2       1.0  0.46100  0.75000  0.23200  1.0000
  Rb  Rb3       1.0  0.96100  0.75000  0.26800  1.0000
  Rb  Rb4       1.0  0.60700  0.25000  0.36300  1.0000
  Rb  Rb5       1.0  0.39300  0.75000  0.63700  1.0000
  Rb  Rb6       1.0  0.03880  0.25000  0.73200  1.0000
  Rb  Rb7       1.0  0.53900  0.25000  0.76800  1.0000
  Rb  Rb8       1.0  0.89300  0.75000  0.86300  1.0000
