data_image0
_chemical_formula_structural       Au12C24N24Zn6
_chemical_formula_sum              "Au12 C24 N24 Zn6"
_cell_length_a       8.39748
_cell_length_b       8.39747
_cell_length_c       20.9052
_cell_angle_alpha    90
_cell_angle_beta     90
_cell_angle_gamma    120

_space_group_name_H-M_alt    "P 1"
_space_group_IT_number       1

loop_
  _space_group_symop_operation_xyz
  'x, y, z'

loop_
  _atom_site_type_symbol
  _atom_site_label
  _atom_site_symmetry_multiplicity
  _atom_site_fract_x
  _atom_site_fract_y
  _atom_site_fract_z
  _atom_site_occupancy
  Au  Au1       1.0  0.00177  0.31700  0.04070  1.0000
  Au  Au2       1.0  0.99800  0.68300  0.04070  1.0000
  Au  Au3       1.0  0.99800  0.31500  0.29300  1.0000
  Au  Au4       1.0  0.00177  0.68500  0.29300  1.0000
  Au  Au5       1.0  0.68500  0.00177  0.37400  1.0000
  Au  Au6       1.0  0.31500  0.99800  0.37400  1.0000
  Au  Au7       1.0  0.31700  0.00177  0.62600  1.0000
  Au  Au8       1.0  0.68300  0.99800  0.62600  1.0000
  Au  Au9       1.0  0.31700  0.31500  0.70700  1.0000
  Au  Au10      1.0  0.68300  0.68500  0.70700  1.0000
  Au  Au11      1.0  0.31500  0.31700  0.95900  1.0000
  Au  Au12      1.0  0.68500  0.68300  0.95900  1.0000
  C   C1        1.0  0.40200  0.21900  0.02870  1.0000
  C   C2        1.0  0.59800  0.78100  0.02870  1.0000
  C   C3        1.0  0.18100  0.39300  0.11200  1.0000
  C   C4        1.0  0.81900  0.60700  0.11200  1.0000
  C   C5        1.0  0.81900  0.21300  0.22100  1.0000
  C   C6        1.0  0.18100  0.78700  0.22100  1.0000
  C   C7        1.0  0.40200  0.18300  0.30500  1.0000
  C   C8        1.0  0.59800  0.81700  0.30500  1.0000
  C   C9        1.0  0.18300  0.40200  0.36200  1.0000
  C   C10       1.0  0.81700  0.59800  0.36200  1.0000
  C   C11       1.0  0.78700  0.18100  0.44500  1.0000
  C   C12       1.0  0.21300  0.81900  0.44500  1.0000
  C   C13       1.0  0.39300  0.18100  0.55500  1.0000
  C   C14       1.0  0.60700  0.81900  0.55500  1.0000
  C   C15       1.0  0.21900  0.40200  0.63800  1.0000
  C   C16       1.0  0.78100  0.59800  0.63800  1.0000
  C   C17       1.0  0.78100  0.18300  0.69500  1.0000
  C   C18       1.0  0.21900  0.81700  0.69500  1.0000
  C   C19       1.0  0.39300  0.21300  0.77900  1.0000
  C   C20       1.0  0.60700  0.78700  0.77900  1.0000
  C   C21       1.0  0.21300  0.39300  0.88800  1.0000
  C   C22       1.0  0.78700  0.60700  0.88800  1.0000
  C   C23       1.0  0.81700  0.21900  0.97100  1.0000
  C   C24       1.0  0.18300  0.78100  0.97100  1.0000
  N   N1        1.0  0.44700  0.15400  0.06900  1.0000
  N   N2        1.0  0.55300  0.84600  0.06900  1.0000
  N   N3        1.0  0.29000  0.43500  0.15200  1.0000
  N   N4        1.0  0.71000  0.56500  0.15200  1.0000
  N   N5        1.0  0.71000  0.14500  0.18100  1.0000
  N   N6        1.0  0.29000  0.85500  0.18100  1.0000
  N   N7        1.0  0.44700  0.29300  0.26400  1.0000
  N   N8        1.0  0.55300  0.70700  0.26400  1.0000
  N   N9        1.0  0.29300  0.44700  0.40200  1.0000
  N   N10       1.0  0.70700  0.55300  0.40200  1.0000
  N   N11       1.0  0.85500  0.29000  0.48600  1.0000
  N   N12       1.0  0.14500  0.71000  0.48600  1.0000
  N   N13       1.0  0.43500  0.29000  0.51400  1.0000
  N   N14       1.0  0.56500  0.71000  0.51400  1.0000
  N   N15       1.0  0.15400  0.44700  0.59800  1.0000
  N   N16       1.0  0.84600  0.55300  0.59800  1.0000
  N   N17       1.0  0.84600  0.29300  0.73600  1.0000
  N   N18       1.0  0.15400  0.70700  0.73600  1.0000
  N   N19       1.0  0.43500  0.14500  0.81900  1.0000
  N   N20       1.0  0.56500  0.85500  0.81900  1.0000
  N   N21       1.0  0.14500  0.43500  0.84800  1.0000
  N   N22       1.0  0.85500  0.56500  0.84800  1.0000
  N   N23       1.0  0.70700  0.15400  0.93100  1.0000
  N   N24       1.0  0.29300  0.84600  0.93100  1.0000
  Zn  Zn1       1.0  0.50000  0.00000  0.12500  1.0000
  Zn  Zn2       1.0  0.50000  0.50000  0.20800  1.0000
  Zn  Zn3       1.0  0.50000  0.50000  0.45800  1.0000
  Zn  Zn4       1.0  0.00000  0.50000  0.54200  1.0000
  Zn  Zn5       1.0  0.00000  0.50000  0.79200  1.0000
  Zn  Zn6       1.0  0.50000  0.00000  0.87500  1.0000
