data_image0
_chemical_formula_structural       I8O44S8
_chemical_formula_sum              "I8 O44 S8"
_cell_length_a       8.65583
_cell_length_b       10.1985
_cell_length_c       9.11047
_cell_angle_alpha    90
_cell_angle_beta     94.5688
_cell_angle_gamma    90

_space_group_name_H-M_alt    "P 1"
_space_group_IT_number       1

loop_
  _space_group_symop_operation_xyz
  'x, y, z'

loop_
  _atom_site_type_symbol
  _atom_site_label
  _atom_site_symmetry_multiplicity
  _atom_site_fract_x
  _atom_site_fract_y
  _atom_site_fract_z
  _atom_site_occupancy
  I   I1        1.0  0.61800  0.21600  0.08060  1.0000
  I   I2        1.0  0.11800  0.28400  0.08060  1.0000
  I   I3        1.0  0.61900  0.33900  0.38800  1.0000
  I   I4        1.0  0.11900  0.16100  0.38800  1.0000
  I   I5        1.0  0.88100  0.83900  0.61200  1.0000
  I   I6        1.0  0.38100  0.66100  0.61200  1.0000
  I   I7        1.0  0.88200  0.71600  0.91900  1.0000
  I   I8        1.0  0.38200  0.78400  0.91900  1.0000
  O   O1        1.0  0.82300  0.21200  0.08000  1.0000
  O   O2        1.0  0.32300  0.28800  0.08000  1.0000
  O   O3        1.0  0.15500  0.52900  0.10200  1.0000
  O   O4        1.0  0.65500  0.97100  0.10200  1.0000
  O   O5        1.0  0.90700  0.85800  0.11500  1.0000
  O   O6        1.0  0.40700  0.64200  0.11500  1.0000
  O   O7        1.0  0.60900  0.38700  0.17300  1.0000
  O   O8        1.0  0.10900  0.11300  0.17300  1.0000
  O   O9        1.0  0.84200  0.58500  0.18800  1.0000
  O   O10       1.0  0.34200  0.91500  0.18800  1.0000
  O   O11       1.0  0.68500  0.78000  0.24700  1.0000
  O   O12       1.0  0.18500  0.72000  0.24700  1.0000
  O   O13       1.0  0.60000  0.16700  0.29200  1.0000
  O   O14       1.0  0.09960  0.33300  0.29200  1.0000
  O   O15       1.0  0.33600  0.52200  0.32700  1.0000
  O   O16       1.0  0.83600  0.97800  0.32700  1.0000
  O   O17       1.0  0.15700  0.91800  0.38200  1.0000
  O   O18       1.0  0.65700  0.58200  0.38200  1.0000
  O   O19       1.0  0.90600  0.70000  0.41600  1.0000
  O   O20       1.0  0.40600  0.80000  0.41600  1.0000
  O   O21       1.0  0.82200  0.33800  0.42300  1.0000
  O   O22       1.0  0.32200  0.16200  0.42300  1.0000
  O   O23       1.0  0.17800  0.66200  0.57700  1.0000
  O   O24       1.0  0.67800  0.83800  0.57700  1.0000
  O   O25       1.0  0.09430  0.30000  0.58400  1.0000
  O   O26       1.0  0.59400  0.20000  0.58400  1.0000
  O   O27       1.0  0.84300  0.08240  0.61800  1.0000
  O   O28       1.0  0.34300  0.41800  0.61800  1.0000
  O   O29       1.0  0.66400  0.47800  0.67300  1.0000
  O   O30       1.0  0.16400  0.02170  0.67300  1.0000
  O   O31       1.0  0.90000  0.66700  0.70800  1.0000
  O   O32       1.0  0.40000  0.83300  0.70800  1.0000
  O   O33       1.0  0.81500  0.28000  0.75300  1.0000
  O   O34       1.0  0.31500  0.22000  0.75300  1.0000
  O   O35       1.0  0.65800  0.08470  0.81200  1.0000
  O   O36       1.0  0.15800  0.41500  0.81200  1.0000
  O   O37       1.0  0.89100  0.88700  0.82700  1.0000
  O   O38       1.0  0.39100  0.61300  0.82700  1.0000
  O   O39       1.0  0.59300  0.35800  0.88500  1.0000
  O   O40       1.0  0.09260  0.14200  0.88500  1.0000
  O   O41       1.0  0.84500  0.47100  0.89800  1.0000
  O   O42       1.0  0.34500  0.02870  0.89800  1.0000
  O   O43       1.0  0.67700  0.71200  0.92000  1.0000
  O   O44       1.0  0.17700  0.78800  0.92000  1.0000
  S   S1        1.0  0.77800  0.90900  0.19600  1.0000
  S   S2        1.0  0.27800  0.59100  0.19600  1.0000
  S   S3        1.0  0.78000  0.64900  0.31100  1.0000
  S   S4        1.0  0.28000  0.85100  0.31100  1.0000
  S   S5        1.0  0.22000  0.35100  0.68900  1.0000
  S   S6        1.0  0.72000  0.14900  0.68900  1.0000
  S   S7        1.0  0.72200  0.40900  0.80400  1.0000
  S   S8        1.0  0.22200  0.09070  0.80400  1.0000
