data_image0
_chemical_formula_structural       H20In4O34S6
_chemical_formula_sum              "H20 In4 O34 S6"
_cell_length_a       5.54794
_cell_length_b       10.6874
_cell_length_c       11.1723
_cell_angle_alpha    88.4934
_cell_angle_beta     88.6561
_cell_angle_gamma    79.2267

_space_group_name_H-M_alt    "P 1"
_space_group_IT_number       1

loop_
  _space_group_symop_operation_xyz
  'x, y, z'

loop_
  _atom_site_type_symbol
  _atom_site_label
  _atom_site_symmetry_multiplicity
  _atom_site_fract_x
  _atom_site_fract_y
  _atom_site_fract_z
  _atom_site_occupancy
  H   H1        1.0  0.77200  0.39200  0.06500  1.0000
  H   H2        1.0  0.34900  0.81000  0.09820  1.0000
  H   H3        1.0  0.63400  0.53800  0.09850  1.0000
  H   H4        1.0  0.11900  0.62100  0.16400  1.0000
  H   H5        1.0  0.34400  0.94000  0.16600  1.0000
  H   H6        1.0  0.15300  0.62400  0.31100  1.0000
  H   H7        1.0  0.40700  0.95200  0.36500  1.0000
  H   H8        1.0  0.63900  0.55500  0.39200  1.0000
  H   H9        1.0  0.42800  0.81400  0.43300  1.0000
  H   H10       1.0  0.70300  0.41200  0.45100  1.0000
  H   H11       1.0  0.29700  0.58800  0.54900  1.0000
  H   H12       1.0  0.57200  0.18600  0.56700  1.0000
  H   H13       1.0  0.36100  0.44500  0.60800  1.0000
  H   H14       1.0  0.59300  0.04770  0.63500  1.0000
  H   H15       1.0  0.84700  0.37600  0.68900  1.0000
  H   H16       1.0  0.65600  0.06040  0.83400  1.0000
  H   H17       1.0  0.88100  0.37900  0.83600  1.0000
  H   H18       1.0  0.36600  0.46200  0.90200  1.0000
  H   H19       1.0  0.65100  0.19000  0.90200  1.0000
  H   H20       1.0  0.22800  0.60800  0.93500  1.0000
  In  In1       1.0  0.00000  0.00000  0.00000  1.0000
  In  In2       1.0  0.41300  0.39000  0.25400  1.0000
  In  In3       1.0  0.00000  0.00000  0.50000  1.0000
  In  In4       1.0  0.58700  0.61000  0.74600  1.0000
  O   O1        1.0  0.74300  0.87400  0.01300  1.0000
  O   O2        1.0  0.02850  0.67000  0.03550  1.0000
  O   O3        1.0  0.58500  0.68600  0.06120  1.0000
  O   O4        1.0  0.66200  0.44600  0.12400  1.0000
  O   O5        1.0  0.77900  0.12100  0.12900  1.0000
  O   O6        1.0  0.23600  0.88600  0.13000  1.0000
  O   O7        1.0  0.22400  0.28900  0.13700  1.0000
  O   O8        1.0  0.21600  0.58200  0.23400  1.0000
  O   O9        1.0  0.47600  0.03110  0.24800  1.0000
  O   O10       1.0  0.89400  0.00394  0.31500  1.0000
  O   O11       1.0  0.63700  0.21400  0.31700  1.0000
  O   O12       1.0  0.60700  0.46600  0.38800  1.0000
  O   O13       1.0  0.13500  0.37900  0.39200  1.0000
  O   O14       1.0  0.68000  0.69600  0.41600  1.0000
  O   O15       1.0  0.34400  0.90500  0.43300  1.0000
  O   O16       1.0  0.12100  0.67400  0.44600  1.0000
  O   O17       1.0  0.16900  0.15900  0.45500  1.0000
  O   O18       1.0  0.83100  0.84100  0.54500  1.0000
  O   O19       1.0  0.87900  0.32600  0.55400  1.0000
  O   O20       1.0  0.65600  0.09520  0.56700  1.0000
  O   O21       1.0  0.32000  0.30400  0.58400  1.0000
  O   O22       1.0  0.86500  0.62100  0.60800  1.0000
  O   O23       1.0  0.39300  0.53400  0.61200  1.0000
  O   O24       1.0  0.36300  0.78600  0.68300  1.0000
  O   O25       1.0  0.10600  0.99600  0.68500  1.0000
  O   O26       1.0  0.52400  0.96900  0.75200  1.0000
  O   O27       1.0  0.78400  0.41800  0.76600  1.0000
  O   O28       1.0  0.77600  0.71100  0.86300  1.0000
  O   O29       1.0  0.76400  0.11400  0.87000  1.0000
  O   O30       1.0  0.22100  0.87900  0.87100  1.0000
  O   O31       1.0  0.33800  0.55400  0.87600  1.0000
  O   O32       1.0  0.41500  0.31400  0.93900  1.0000
  O   O33       1.0  0.97100  0.33000  0.96500  1.0000
  O   O34       1.0  0.25700  0.12600  0.98700  1.0000
  S   S1        1.0  0.21700  0.26700  0.00617  1.0000
  S   S2        1.0  0.69400  0.09120  0.25200  1.0000
  S   S3        1.0  0.12700  0.29200  0.49800  1.0000
  S   S4        1.0  0.87300  0.70800  0.50200  1.0000
  S   S5        1.0  0.30600  0.90900  0.74800  1.0000
  S   S6        1.0  0.78300  0.73300  0.99400  1.0000
