data_image0
_chemical_formula_structural       Mn4O44P12Sr8
_chemical_formula_sum              "Mn4 O44 P12 Sr8"
_cell_length_a       6.62056
_cell_length_b       6.79289
_cell_length_c       19.1038
_cell_angle_alpha    90
_cell_angle_beta     99.2612
_cell_angle_gamma    90

_space_group_name_H-M_alt    "P 1"
_space_group_IT_number       1

loop_
  _space_group_symop_operation_xyz
  'x, y, z'

loop_
  _atom_site_type_symbol
  _atom_site_label
  _atom_site_symmetry_multiplicity
  _atom_site_fract_x
  _atom_site_fract_y
  _atom_site_fract_z
  _atom_site_occupancy
  Mn  Mn1       1.0  0.95800  0.63200  0.12300  1.0000
  Mn  Mn2       1.0  0.04240  0.13200  0.37700  1.0000
  Mn  Mn3       1.0  0.95800  0.86800  0.62300  1.0000
  Mn  Mn4       1.0  0.04240  0.36800  0.87700  1.0000
  O   O1        1.0  0.31200  0.49500  0.03050  1.0000
  O   O2        1.0  0.91200  0.77100  0.03130  1.0000
  O   O3        1.0  0.49400  0.81400  0.05010  1.0000
  O   O4        1.0  0.99800  0.37600  0.08020  1.0000
  O   O5        1.0  0.31000  0.15500  0.08790  1.0000
  O   O6        1.0  0.63200  0.51900  0.12500  1.0000
  O   O7        1.0  0.29400  0.67800  0.14300  1.0000
  O   O8        1.0  0.92500  0.89300  0.16300  1.0000
  O   O9        1.0  0.69100  0.14000  0.20200  1.0000
  O   O10       1.0  0.98700  0.51500  0.21600  1.0000
  O   O11       1.0  0.31100  0.30600  0.24500  1.0000
  O   O12       1.0  0.68900  0.80600  0.25500  1.0000
  O   O13       1.0  0.01300  0.01530  0.28400  1.0000
  O   O14       1.0  0.30900  0.64000  0.29800  1.0000
  O   O15       1.0  0.07540  0.39300  0.33700  1.0000
  O   O16       1.0  0.70600  0.17800  0.35700  1.0000
  O   O17       1.0  0.36800  0.01940  0.37500  1.0000
  O   O18       1.0  0.69000  0.65500  0.41200  1.0000
  O   O19       1.0  0.00223  0.87600  0.42000  1.0000
  O   O20       1.0  0.50600  0.31400  0.45000  1.0000
  O   O21       1.0  0.08800  0.27100  0.46900  1.0000
  O   O22       1.0  0.68800  0.99500  0.46900  1.0000
  O   O23       1.0  0.31200  0.00522  0.53100  1.0000
  O   O24       1.0  0.91200  0.72900  0.53100  1.0000
  O   O25       1.0  0.49400  0.68600  0.55000  1.0000
  O   O26       1.0  0.99800  0.12400  0.58000  1.0000
  O   O27       1.0  0.31000  0.34500  0.58800  1.0000
  O   O28       1.0  0.63200  0.98100  0.62500  1.0000
  O   O29       1.0  0.29400  0.82200  0.64300  1.0000
  O   O30       1.0  0.92500  0.60700  0.66300  1.0000
  O   O31       1.0  0.69100  0.36000  0.70200  1.0000
  O   O32       1.0  0.98700  0.98500  0.71600  1.0000
  O   O33       1.0  0.31100  0.19400  0.74500  1.0000
  O   O34       1.0  0.68900  0.69400  0.75500  1.0000
  O   O35       1.0  0.01300  0.48500  0.78400  1.0000
  O   O36       1.0  0.30900  0.86000  0.79800  1.0000
  O   O37       1.0  0.07540  0.10700  0.83700  1.0000
  O   O38       1.0  0.70600  0.32200  0.85700  1.0000
  O   O39       1.0  0.36800  0.48100  0.87500  1.0000
  O   O40       1.0  0.69000  0.84500  0.91200  1.0000
  O   O41       1.0  0.00223  0.62400  0.92000  1.0000
  O   O42       1.0  0.50600  0.18600  0.95000  1.0000
  O   O43       1.0  0.08800  0.22900  0.96900  1.0000
  O   O44       1.0  0.68800  0.50500  0.96900  1.0000
  P   P1        1.0  0.17800  0.30300  0.04390  1.0000
  P   P2        1.0  0.44300  0.63600  0.09160  1.0000
  P   P3        1.0  0.82300  0.96100  0.22900  1.0000
  P   P4        1.0  0.17700  0.46100  0.27100  1.0000
  P   P5        1.0  0.55700  0.13600  0.40800  1.0000
  P   P6        1.0  0.82200  0.80300  0.45600  1.0000
  P   P7        1.0  0.17800  0.19700  0.54400  1.0000
  P   P8        1.0  0.44300  0.86400  0.59200  1.0000
  P   P9        1.0  0.82300  0.53900  0.72900  1.0000
  P   P10       1.0  0.17700  0.03910  0.77100  1.0000
  P   P11       1.0  0.55700  0.36400  0.90800  1.0000
  P   P12       1.0  0.82200  0.69700  0.95600  1.0000
  Sr  Sr1       1.0  0.68800  0.13900  0.07240  1.0000
  Sr  Sr2       1.0  0.33700  0.96000  0.23000  1.0000
  Sr  Sr3       1.0  0.66300  0.46000  0.27000  1.0000
  Sr  Sr4       1.0  0.31200  0.63900  0.42800  1.0000
  Sr  Sr5       1.0  0.68800  0.36100  0.57200  1.0000
  Sr  Sr6       1.0  0.33700  0.54000  0.73000  1.0000
  Sr  Sr7       1.0  0.66300  0.04040  0.77000  1.0000
  Sr  Sr8       1.0  0.31200  0.86100  0.92800  1.0000
