data_image0
_chemical_formula_structural       B20Cd4O40Sm4
_chemical_formula_sum              "B20 Cd4 O40 Sm4"
_cell_length_a       8.53134
_cell_length_b       7.88122
_cell_length_c       9.57854
_cell_angle_alpha    90
_cell_angle_beta     92.5819
_cell_angle_gamma    90

_space_group_name_H-M_alt    "P 1"
_space_group_IT_number       1

loop_
  _space_group_symop_operation_xyz
  'x, y, z'

loop_
  _atom_site_type_symbol
  _atom_site_label
  _atom_site_symmetry_multiplicity
  _atom_site_fract_x
  _atom_site_fract_y
  _atom_site_fract_z
  _atom_site_occupancy
  B   B1        1.0  0.15700  0.39500  0.01170  1.0000
  B   B2        1.0  0.77800  0.03080  0.05790  1.0000
  B   B3        1.0  0.56400  0.82300  0.09540  1.0000
  B   B4        1.0  0.02110  0.82300  0.09560  1.0000
  B   B5        1.0  0.91700  0.57300  0.24700  1.0000
  B   B6        1.0  0.58300  0.07260  0.25300  1.0000
  B   B7        1.0  0.47900  0.32300  0.40400  1.0000
  B   B8        1.0  0.93600  0.32300  0.40500  1.0000
  B   B9        1.0  0.72200  0.53100  0.44200  1.0000
  B   B10       1.0  0.34300  0.89500  0.48800  1.0000
  B   B11       1.0  0.65700  0.10500  0.51200  1.0000
  B   B12       1.0  0.27800  0.46900  0.55800  1.0000
  B   B13       1.0  0.06410  0.67700  0.59500  1.0000
  B   B14       1.0  0.52100  0.67700  0.59600  1.0000
  B   B15       1.0  0.41700  0.92700  0.74700  1.0000
  B   B16       1.0  0.08260  0.42700  0.75300  1.0000
  B   B17       1.0  0.97900  0.17700  0.90400  1.0000
  B   B18       1.0  0.43600  0.17700  0.90500  1.0000
  B   B19       1.0  0.22200  0.96900  0.94200  1.0000
  B   B20       1.0  0.84300  0.60500  0.98800  1.0000
  Cd  Cd1       1.0  0.59900  0.40400  0.13000  1.0000
  Cd  Cd2       1.0  0.90100  0.90400  0.37000  1.0000
  Cd  Cd3       1.0  0.09870  0.09630  0.63000  1.0000
  Cd  Cd4       1.0  0.40100  0.59600  0.87000  1.0000
  O   O1        1.0  0.67900  0.88100  0.01260  1.0000
  O   O2        1.0  0.04560  0.26700  0.02650  1.0000
  O   O3        1.0  0.18100  0.88400  0.07470  1.0000
  O   O4        1.0  0.49400  0.66700  0.08160  1.0000
  O   O5        1.0  0.82800  0.53100  0.11600  1.0000
  O   O6        1.0  0.25000  0.43700  0.12500  1.0000
  O   O7        1.0  0.92300  0.96900  0.13700  1.0000
  O   O8        1.0  0.69000  0.13800  0.15000  1.0000
  O   O9        1.0  0.50700  0.91600  0.20300  1.0000
  O   O10       1.0  0.03570  0.70500  0.21900  1.0000
  O   O11       1.0  0.46400  0.20500  0.28100  1.0000
  O   O12       1.0  0.99300  0.41600  0.29700  1.0000
  O   O13       1.0  0.81000  0.63800  0.35000  1.0000
  O   O14       1.0  0.57700  0.46900  0.36300  1.0000
  O   O15       1.0  0.25000  0.93700  0.37500  1.0000
  O   O16       1.0  0.67200  0.03080  0.38400  1.0000
  O   O17       1.0  0.00635  0.16700  0.41800  1.0000
  O   O18       1.0  0.31900  0.38400  0.42500  1.0000
  O   O19       1.0  0.45400  0.76700  0.47300  1.0000
  O   O20       1.0  0.82100  0.38100  0.48700  1.0000
  O   O21       1.0  0.17900  0.61900  0.51300  1.0000
  O   O22       1.0  0.54600  0.23300  0.52700  1.0000
  O   O23       1.0  0.68100  0.61600  0.57500  1.0000
  O   O24       1.0  0.99400  0.83300  0.58200  1.0000
  O   O25       1.0  0.32800  0.96900  0.61600  1.0000
  O   O26       1.0  0.75000  0.06330  0.62500  1.0000
  O   O27       1.0  0.42300  0.53100  0.63700  1.0000
  O   O28       1.0  0.19000  0.36200  0.65000  1.0000
  O   O29       1.0  0.00723  0.58400  0.70300  1.0000
  O   O30       1.0  0.53600  0.79500  0.71900  1.0000
  O   O31       1.0  0.96400  0.29500  0.78100  1.0000
  O   O32       1.0  0.49300  0.08380  0.79700  1.0000
  O   O33       1.0  0.31000  0.86200  0.85000  1.0000
  O   O34       1.0  0.07720  0.03100  0.86300  1.0000
  O   O35       1.0  0.75000  0.56300  0.87500  1.0000
  O   O36       1.0  0.17200  0.46900  0.88400  1.0000
  O   O37       1.0  0.50600  0.33300  0.91800  1.0000
  O   O38       1.0  0.81900  0.11600  0.92500  1.0000
  O   O39       1.0  0.95400  0.73300  0.97300  1.0000
  O   O40       1.0  0.32100  0.11900  0.98700  1.0000
  Sm  Sm1       1.0  0.18800  0.17600  0.23600  1.0000
  Sm  Sm2       1.0  0.31200  0.67600  0.26400  1.0000
  Sm  Sm3       1.0  0.68800  0.32400  0.73600  1.0000
  Sm  Sm4       1.0  0.81200  0.82400  0.76400  1.0000
