data_image0
_chemical_formula_structural       B12Be16O36Rb4
_chemical_formula_sum              "B12 Be16 O36 Rb4"
_cell_length_a       8.49327
_cell_length_b       13.2305
_cell_length_c       6.1809
_cell_angle_alpha    90
_cell_angle_beta     90
_cell_angle_gamma    90

_space_group_name_H-M_alt    "P 1"
_space_group_IT_number       1

loop_
  _space_group_symop_operation_xyz
  'x, y, z'

loop_
  _atom_site_type_symbol
  _atom_site_label
  _atom_site_symmetry_multiplicity
  _atom_site_fract_x
  _atom_site_fract_y
  _atom_site_fract_z
  _atom_site_occupancy
  B   B1        1.0  0.44600  0.25000  0.18700  1.0000
  B   B2        1.0  0.17400  0.53700  0.19000  1.0000
  B   B3        1.0  0.17400  0.96300  0.19000  1.0000
  B   B4        1.0  0.67400  0.53700  0.31000  1.0000
  B   B5        1.0  0.67400  0.96300  0.31000  1.0000
  B   B6        1.0  0.94600  0.25000  0.31300  1.0000
  B   B7        1.0  0.05420  0.75000  0.68700  1.0000
  B   B8        1.0  0.32600  0.03750  0.69000  1.0000
  B   B9        1.0  0.32600  0.46300  0.69000  1.0000
  B   B10       1.0  0.82600  0.03750  0.81000  1.0000
  B   B11       1.0  0.82600  0.46300  0.81000  1.0000
  B   B12       1.0  0.55400  0.75000  0.81300  1.0000
  Be  Be1       1.0  0.43600  0.05660  0.09390  1.0000
  Be  Be2       1.0  0.43600  0.44300  0.09390  1.0000
  Be  Be3       1.0  0.71700  0.14400  0.15200  1.0000
  Be  Be4       1.0  0.71700  0.35600  0.15200  1.0000
  Be  Be5       1.0  0.21700  0.14400  0.34800  1.0000
  Be  Be6       1.0  0.21700  0.35600  0.34800  1.0000
  Be  Be7       1.0  0.93600  0.05660  0.40600  1.0000
  Be  Be8       1.0  0.93600  0.44300  0.40600  1.0000
  Be  Be9       1.0  0.06420  0.55700  0.59400  1.0000
  Be  Be10      1.0  0.06420  0.94300  0.59400  1.0000
  Be  Be11      1.0  0.78300  0.64400  0.65200  1.0000
  Be  Be12      1.0  0.78300  0.85600  0.65200  1.0000
  Be  Be13      1.0  0.28300  0.64400  0.84800  1.0000
  Be  Be14      1.0  0.28300  0.85600  0.84800  1.0000
  Be  Be15      1.0  0.56400  0.55700  0.90600  1.0000
  Be  Be16      1.0  0.56400  0.94300  0.90600  1.0000
  O   O1        1.0  0.21200  0.62200  0.07950  1.0000
  O   O2        1.0  0.21200  0.87800  0.07950  1.0000
  O   O3        1.0  0.52400  0.16100  0.15700  1.0000
  O   O4        1.0  0.52400  0.33900  0.15700  1.0000
  O   O5        1.0  0.54600  0.53800  0.16800  1.0000
  O   O6        1.0  0.54600  0.96200  0.16800  1.0000
  O   O7        1.0  0.25800  0.05340  0.17500  1.0000
  O   O8        1.0  0.25800  0.44700  0.17500  1.0000
  O   O9        1.0  0.29000  0.25000  0.24800  1.0000
  O   O10       1.0  0.79000  0.25000  0.25200  1.0000
  O   O11       1.0  0.75800  0.05340  0.32500  1.0000
  O   O12       1.0  0.75800  0.44700  0.32500  1.0000
  O   O13       1.0  0.04640  0.53800  0.33200  1.0000
  O   O14       1.0  0.04640  0.96200  0.33200  1.0000
  O   O15       1.0  0.02400  0.16100  0.34300  1.0000
  O   O16       1.0  0.02400  0.33900  0.34300  1.0000
  O   O17       1.0  0.71200  0.62200  0.42000  1.0000
  O   O18       1.0  0.71200  0.87800  0.42000  1.0000
  O   O19       1.0  0.28800  0.12200  0.58000  1.0000
  O   O20       1.0  0.28800  0.37800  0.58000  1.0000
  O   O21       1.0  0.97600  0.66100  0.65700  1.0000
  O   O22       1.0  0.97600  0.83900  0.65700  1.0000
  O   O23       1.0  0.95400  0.03780  0.66800  1.0000
  O   O24       1.0  0.95400  0.46200  0.66800  1.0000
  O   O25       1.0  0.24200  0.55300  0.67500  1.0000
  O   O26       1.0  0.24200  0.94700  0.67500  1.0000
  O   O27       1.0  0.21000  0.75000  0.74800  1.0000
  O   O28       1.0  0.71000  0.75000  0.75200  1.0000
  O   O29       1.0  0.74200  0.55300  0.82500  1.0000
  O   O30       1.0  0.74200  0.94700  0.82500  1.0000
  O   O31       1.0  0.45400  0.03780  0.83200  1.0000
  O   O32       1.0  0.45400  0.46200  0.83200  1.0000
  O   O33       1.0  0.47600  0.66100  0.84300  1.0000
  O   O34       1.0  0.47600  0.83900  0.84300  1.0000
  O   O35       1.0  0.78800  0.12200  0.92000  1.0000
  O   O36       1.0  0.78800  0.37800  0.92000  1.0000
  Rb  Rb1       1.0  0.93000  0.75000  0.16800  1.0000
  Rb  Rb2       1.0  0.43000  0.75000  0.33200  1.0000
  Rb  Rb3       1.0  0.57000  0.25000  0.66800  1.0000
  Rb  Rb4       1.0  0.07020  0.25000  0.83200  1.0000
