data_image0
_chemical_formula_structural       C12Cs6N12Na2Re12S16
_chemical_formula_sum              "C12 Cs6 N12 Na2 Re12 S16"
_cell_length_a       11.2837
_cell_length_b       8.94374
_cell_length_c       13.1095
_cell_angle_alpha    90
_cell_angle_beta     90
_cell_angle_gamma    90

_space_group_name_H-M_alt    "P 1"
_space_group_IT_number       1

loop_
  _space_group_symop_operation_xyz
  'x, y, z'

loop_
  _atom_site_type_symbol
  _atom_site_label
  _atom_site_symmetry_multiplicity
  _atom_site_fract_x
  _atom_site_fract_y
  _atom_site_fract_z
  _atom_site_occupancy
  C   C1        1.0  0.25700  0.72000  0.07150  1.0000
  C   C2        1.0  0.74300  0.72000  0.07150  1.0000
  C   C3        1.0  0.50000  0.19400  0.22900  1.0000
  C   C4        1.0  0.00000  0.19400  0.27100  1.0000
  C   C5        1.0  0.24300  0.72000  0.42900  1.0000
  C   C6        1.0  0.75700  0.72000  0.42900  1.0000
  C   C7        1.0  0.24300  0.28000  0.57100  1.0000
  C   C8        1.0  0.75700  0.28000  0.57100  1.0000
  C   C9        1.0  0.00000  0.80600  0.72900  1.0000
  C   C10       1.0  0.50000  0.80600  0.77100  1.0000
  C   C11       1.0  0.25700  0.28000  0.92900  1.0000
  C   C12       1.0  0.74300  0.28000  0.92900  1.0000
  Cs  Cs1       1.0  0.50000  0.00000  0.00000  1.0000
  Cs  Cs2       1.0  0.25000  0.42600  0.25000  1.0000
  Cs  Cs3       1.0  0.75000  0.42600  0.25000  1.0000
  Cs  Cs4       1.0  0.00000  0.00000  0.50000  1.0000
  Cs  Cs5       1.0  0.25000  0.57400  0.75000  1.0000
  Cs  Cs6       1.0  0.75000  0.57400  0.75000  1.0000
  N   N1        1.0  0.34100  0.64300  0.08210  1.0000
  N   N2        1.0  0.65900  0.64300  0.08210  1.0000
  N   N3        1.0  0.50000  0.27300  0.15600  1.0000
  N   N4        1.0  0.00000  0.27300  0.34400  1.0000
  N   N5        1.0  0.15900  0.64300  0.41800  1.0000
  N   N6        1.0  0.84100  0.64300  0.41800  1.0000
  N   N7        1.0  0.15900  0.35700  0.58200  1.0000
  N   N8        1.0  0.84100  0.35700  0.58200  1.0000
  N   N9        1.0  0.00000  0.72700  0.65600  1.0000
  N   N10       1.0  0.50000  0.72700  0.84400  1.0000
  N   N11       1.0  0.34100  0.35700  0.91800  1.0000
  N   N12       1.0  0.65900  0.35700  0.91800  1.0000
  Na  Na1       1.0  0.50000  0.50000  0.00000  1.0000
  Na  Na2       1.0  0.00000  0.50000  0.50000  1.0000
  Re  Re1       1.0  0.11600  0.86500  0.03820  1.0000
  Re  Re2       1.0  0.88400  0.86500  0.03820  1.0000
  Re  Re3       1.0  0.00000  0.08020  0.13100  1.0000
  Re  Re4       1.0  0.50000  0.08020  0.36900  1.0000
  Re  Re5       1.0  0.38400  0.86500  0.46200  1.0000
  Re  Re6       1.0  0.61600  0.86500  0.46200  1.0000
  Re  Re7       1.0  0.38400  0.13500  0.53800  1.0000
  Re  Re8       1.0  0.61600  0.13500  0.53800  1.0000
  Re  Re9       1.0  0.50000  0.92000  0.63100  1.0000
  Re  Re10      1.0  0.00000  0.92000  0.86900  1.0000
  Re  Re11      1.0  0.11600  0.13500  0.96200  1.0000
  Re  Re12      1.0  0.88400  0.13500  0.96200  1.0000
  S   S1        1.0  0.00000  0.32400  0.04910  1.0000
  S   S2        1.0  0.21400  0.07180  0.12100  1.0000
  S   S3        1.0  0.78600  0.07180  0.12100  1.0000
  S   S4        1.0  0.00000  0.82300  0.19200  1.0000
  S   S5        1.0  0.50000  0.82300  0.30800  1.0000
  S   S6        1.0  0.28600  0.07180  0.37900  1.0000
  S   S7        1.0  0.71400  0.07180  0.37900  1.0000
  S   S8        1.0  0.50000  0.32400  0.45100  1.0000
  S   S9        1.0  0.50000  0.67600  0.54900  1.0000
  S   S10       1.0  0.28600  0.92800  0.62100  1.0000
  S   S11       1.0  0.71400  0.92800  0.62100  1.0000
  S   S12       1.0  0.50000  0.17700  0.69200  1.0000
  S   S13       1.0  0.00000  0.17700  0.80800  1.0000
  S   S14       1.0  0.21400  0.92800  0.87900  1.0000
  S   S15       1.0  0.78600  0.92800  0.87900  1.0000
  S   S16       1.0  0.00000  0.67600  0.95100  1.0000
