data_image0
_chemical_formula_structural       B20Ce4O40Zn4
_chemical_formula_sum              "B20 Ce4 O40 Zn4"
_cell_length_a       8.70779
_cell_length_b       7.61153
_cell_length_c       9.50735
_cell_angle_alpha    90
_cell_angle_beta     92.9349
_cell_angle_gamma    90

_space_group_name_H-M_alt    "P 1"
_space_group_IT_number       1

loop_
  _space_group_symop_operation_xyz
  'x, y, z'

loop_
  _atom_site_type_symbol
  _atom_site_label
  _atom_site_symmetry_multiplicity
  _atom_site_fract_x
  _atom_site_fract_y
  _atom_site_fract_z
  _atom_site_occupancy
  B   B1        1.0  0.84900  0.59400  0.00489  1.0000
  B   B2        1.0  0.78200  0.03420  0.05230  1.0000
  B   B3        1.0  0.57200  0.81400  0.08440  1.0000
  B   B4        1.0  0.01710  0.82600  0.11000  1.0000
  B   B5        1.0  0.58600  0.08180  0.23400  1.0000
  B   B6        1.0  0.91400  0.58200  0.26600  1.0000
  B   B7        1.0  0.48300  0.32600  0.39000  1.0000
  B   B8        1.0  0.92800  0.31400  0.41600  1.0000
  B   B9        1.0  0.71800  0.53400  0.44800  1.0000
  B   B10       1.0  0.65100  0.09450  0.49500  1.0000
  B   B11       1.0  0.34900  0.90600  0.50500  1.0000
  B   B12       1.0  0.28200  0.46600  0.55200  1.0000
  B   B13       1.0  0.07160  0.68600  0.58400  1.0000
  B   B14       1.0  0.51700  0.67400  0.61000  1.0000
  B   B15       1.0  0.08630  0.41800  0.73400  1.0000
  B   B16       1.0  0.41400  0.91800  0.76600  1.0000
  B   B17       1.0  0.98300  0.17400  0.89000  1.0000
  B   B18       1.0  0.42800  0.18600  0.91600  1.0000
  B   B19       1.0  0.21800  0.96600  0.94800  1.0000
  B   B20       1.0  0.15100  0.40600  0.99500  1.0000
  Ce  Ce1       1.0  0.17900  0.18400  0.23400  1.0000
  Ce  Ce2       1.0  0.32100  0.68400  0.26600  1.0000
  Ce  Ce3       1.0  0.67900  0.31600  0.73400  1.0000
  Ce  Ce4       1.0  0.82100  0.81600  0.76600  1.0000
  O   O1        1.0  0.69000  0.87400  0.00941  1.0000
  O   O2        1.0  0.03680  0.28000  0.01010  1.0000
  O   O3        1.0  0.50400  0.65200  0.06810  1.0000
  O   O4        1.0  0.17300  0.89300  0.08550  1.0000
  O   O5        1.0  0.23100  0.45900  0.11100  1.0000
  O   O6        1.0  0.68600  0.15400  0.12900  1.0000
  O   O7        1.0  0.81800  0.53600  0.13700  1.0000
  O   O8        1.0  0.91700  0.97800  0.14400  1.0000
  O   O9        1.0  0.51100  0.91700  0.18700  1.0000
  O   O10       1.0  0.02920  0.71800  0.23900  1.0000
  O   O11       1.0  0.47100  0.21800  0.26100  1.0000
  O   O12       1.0  0.98900  0.41700  0.31300  1.0000
  O   O13       1.0  0.58300  0.47800  0.35600  1.0000
  O   O14       1.0  0.68200  0.03610  0.36300  1.0000
  O   O15       1.0  0.81400  0.65400  0.37100  1.0000
  O   O16       1.0  0.26900  0.95900  0.38900  1.0000
  O   O17       1.0  0.32700  0.39300  0.41500  1.0000
  O   O18       1.0  0.99600  0.15200  0.43200  1.0000
  O   O19       1.0  0.46300  0.78000  0.49000  1.0000
  O   O20       1.0  0.81000  0.37400  0.49100  1.0000
  O   O21       1.0  0.19000  0.62600  0.50900  1.0000
  O   O22       1.0  0.53700  0.22000  0.51000  1.0000
  O   O23       1.0  0.00361  0.84800  0.56800  1.0000
  O   O24       1.0  0.67300  0.60700  0.58500  1.0000
  O   O25       1.0  0.73100  0.04100  0.61100  1.0000
  O   O26       1.0  0.18600  0.34600  0.62900  1.0000
  O   O27       1.0  0.31800  0.96400  0.63700  1.0000
  O   O28       1.0  0.41700  0.52200  0.64400  1.0000
  O   O29       1.0  0.01130  0.58300  0.68700  1.0000
  O   O30       1.0  0.52900  0.78200  0.73900  1.0000
  O   O31       1.0  0.97100  0.28200  0.76100  1.0000
  O   O32       1.0  0.48900  0.08260  0.81300  1.0000
  O   O33       1.0  0.08320  0.02210  0.85600  1.0000
  O   O34       1.0  0.18200  0.46400  0.86300  1.0000
  O   O35       1.0  0.31400  0.84600  0.87100  1.0000
  O   O36       1.0  0.76900  0.54100  0.88900  1.0000
  O   O37       1.0  0.82700  0.10700  0.91500  1.0000
  O   O38       1.0  0.49600  0.34800  0.93200  1.0000
  O   O39       1.0  0.96300  0.72000  0.99000  1.0000
  O   O40       1.0  0.31000  0.12600  0.99100  1.0000
  Zn  Zn1       1.0  0.60900  0.41200  0.12300  1.0000
  Zn  Zn2       1.0  0.89100  0.91200  0.37700  1.0000
  Zn  Zn3       1.0  0.10900  0.08770  0.62300  1.0000
  Zn  Zn4       1.0  0.39100  0.58800  0.87700  1.0000
