data_image0
_chemical_formula_structural       H16Ni4O32V8
_chemical_formula_sum              "H16 Ni4 O32 V8"
_cell_length_a       5.45632
_cell_length_b       10.4865
_cell_length_c       11.5754
_cell_angle_alpha    90
_cell_angle_beta     90
_cell_angle_gamma    90

_space_group_name_H-M_alt    "P 1"
_space_group_IT_number       1

loop_
  _space_group_symop_operation_xyz
  'x, y, z'

loop_
  _atom_site_type_symbol
  _atom_site_label
  _atom_site_symmetry_multiplicity
  _atom_site_fract_x
  _atom_site_fract_y
  _atom_site_fract_z
  _atom_site_occupancy
  H   H1        1.0  0.04780  0.25000  0.08140  1.0000
  H   H2        1.0  0.12100  0.67600  0.09380  1.0000
  H   H3        1.0  0.12100  0.82400  0.09380  1.0000
  H   H4        1.0  0.17200  0.25000  0.21000  1.0000
  H   H5        1.0  0.67200  0.25000  0.29000  1.0000
  H   H6        1.0  0.62100  0.67600  0.40600  1.0000
  H   H7        1.0  0.62100  0.82400  0.40600  1.0000
  H   H8        1.0  0.54800  0.25000  0.41900  1.0000
  H   H9        1.0  0.45200  0.75000  0.58100  1.0000
  H   H10       1.0  0.37900  0.17600  0.59400  1.0000
  H   H11       1.0  0.37900  0.32400  0.59400  1.0000
  H   H12       1.0  0.32800  0.75000  0.71000  1.0000
  H   H13       1.0  0.82800  0.75000  0.79000  1.0000
  H   H14       1.0  0.87900  0.17600  0.90600  1.0000
  H   H15       1.0  0.87900  0.32400  0.90600  1.0000
  H   H16       1.0  0.95200  0.75000  0.91900  1.0000
  Ni  Ni1       1.0  0.52100  0.25000  0.04340  1.0000
  Ni  Ni2       1.0  0.02100  0.25000  0.45700  1.0000
  Ni  Ni3       1.0  0.97900  0.75000  0.54300  1.0000
  Ni  Ni4       1.0  0.47900  0.75000  0.95700  1.0000
  O   O1        1.0  0.15200  0.75000  0.04240  1.0000
  O   O2        1.0  0.60800  0.61400  0.06140  1.0000
  O   O3        1.0  0.60800  0.88600  0.06140  1.0000
  O   O4        1.0  0.20100  0.25000  0.12600  1.0000
  O   O5        1.0  0.67100  0.12300  0.15200  1.0000
  O   O6        1.0  0.67100  0.37700  0.15200  1.0000
  O   O7        1.0  0.02340  0.57600  0.19900  1.0000
  O   O8        1.0  0.02340  0.92400  0.19900  1.0000
  O   O9        1.0  0.52300  0.57600  0.30100  1.0000
  O   O10       1.0  0.52300  0.92400  0.30100  1.0000
  O   O11       1.0  0.17100  0.12300  0.34800  1.0000
  O   O12       1.0  0.17100  0.37700  0.34800  1.0000
  O   O13       1.0  0.70100  0.25000  0.37400  1.0000
  O   O14       1.0  0.10800  0.61400  0.43900  1.0000
  O   O15       1.0  0.10800  0.88600  0.43900  1.0000
  O   O16       1.0  0.65200  0.75000  0.45800  1.0000
  O   O17       1.0  0.34800  0.25000  0.54200  1.0000
  O   O18       1.0  0.89200  0.11400  0.56100  1.0000
  O   O19       1.0  0.89200  0.38600  0.56100  1.0000
  O   O20       1.0  0.29900  0.75000  0.62600  1.0000
  O   O21       1.0  0.82900  0.62300  0.65200  1.0000
  O   O22       1.0  0.82900  0.87700  0.65200  1.0000
  O   O23       1.0  0.47700  0.07650  0.69900  1.0000
  O   O24       1.0  0.47700  0.42400  0.69900  1.0000
  O   O25       1.0  0.97700  0.07650  0.80100  1.0000
  O   O26       1.0  0.97700  0.42400  0.80100  1.0000
  O   O27       1.0  0.32900  0.62300  0.84800  1.0000
  O   O28       1.0  0.32900  0.87700  0.84800  1.0000
  O   O29       1.0  0.79900  0.75000  0.87400  1.0000
  O   O30       1.0  0.39200  0.11400  0.93900  1.0000
  O   O31       1.0  0.39200  0.38600  0.93900  1.0000
  O   O32       1.0  0.84800  0.25000  0.95800  1.0000
  V   V1        1.0  0.70500  0.53300  0.17500  1.0000
  V   V2        1.0  0.70500  0.96700  0.17500  1.0000
  V   V3        1.0  0.20500  0.53300  0.32500  1.0000
  V   V4        1.0  0.20500  0.96700  0.32500  1.0000
  V   V5        1.0  0.79500  0.03260  0.67500  1.0000
  V   V6        1.0  0.79500  0.46700  0.67500  1.0000
  V   V7        1.0  0.29500  0.03260  0.82500  1.0000
  V   V8        1.0  0.29500  0.46700  0.82500  1.0000
