data_image0
_chemical_formula_structural       H16N4O28P8V4
_chemical_formula_sum              "H16 N4 O28 P8 V4"
_cell_length_a       7.37764
_cell_length_b       9.94257
_cell_length_c       8.19051
_cell_angle_alpha    90
_cell_angle_beta     105.287
_cell_angle_gamma    90

_space_group_name_H-M_alt    "P 1"
_space_group_IT_number       1

loop_
  _space_group_symop_operation_xyz
  'x, y, z'

loop_
  _atom_site_type_symbol
  _atom_site_label
  _atom_site_symmetry_multiplicity
  _atom_site_fract_x
  _atom_site_fract_y
  _atom_site_fract_z
  _atom_site_occupancy
  H   H1        1.0  0.28400  0.64600  0.00667  1.0000
  H   H2        1.0  0.92600  0.27800  0.06370  1.0000
  H   H3        1.0  0.23500  0.77900  0.11500  1.0000
  H   H4        1.0  0.12200  0.63000  0.11800  1.0000
  H   H5        1.0  0.87800  0.13000  0.38200  1.0000
  H   H6        1.0  0.76500  0.27900  0.38500  1.0000
  H   H7        1.0  0.07400  0.77800  0.43600  1.0000
  H   H8        1.0  0.71600  0.14600  0.49300  1.0000
  H   H9        1.0  0.28400  0.85400  0.50700  1.0000
  H   H10       1.0  0.92600  0.22200  0.56400  1.0000
  H   H11       1.0  0.23500  0.72100  0.61500  1.0000
  H   H12       1.0  0.12200  0.87000  0.61800  1.0000
  H   H13       1.0  0.87800  0.37000  0.88200  1.0000
  H   H14       1.0  0.76500  0.22100  0.88500  1.0000
  H   H15       1.0  0.07400  0.72200  0.93600  1.0000
  H   H16       1.0  0.71600  0.35400  0.99300  1.0000
  N   N1        1.0  0.18000  0.69500  0.04440  1.0000
  N   N2        1.0  0.82000  0.19500  0.45600  1.0000
  N   N3        1.0  0.18000  0.80500  0.54400  1.0000
  N   N4        1.0  0.82000  0.30500  0.95600  1.0000
  O   O1        1.0  0.32700  0.39700  0.01590  1.0000
  O   O2        1.0  0.14300  0.08620  0.01590  1.0000
  O   O3        1.0  0.64500  0.93800  0.17700  1.0000
  O   O4        1.0  0.01690  0.51400  0.22300  1.0000
  O   O5        1.0  0.65000  0.41100  0.23000  1.0000
  O   O6        1.0  0.45300  0.20900  0.23200  1.0000
  O   O7        1.0  0.91200  0.76900  0.24400  1.0000
  O   O8        1.0  0.08790  0.26900  0.25600  1.0000
  O   O9        1.0  0.54700  0.70900  0.26800  1.0000
  O   O10       1.0  0.35000  0.91100  0.27000  1.0000
  O   O11       1.0  0.98300  0.01390  0.27700  1.0000
  O   O12       1.0  0.35500  0.43800  0.32300  1.0000
  O   O13       1.0  0.85700  0.58600  0.48400  1.0000
  O   O14       1.0  0.67300  0.89700  0.48400  1.0000
  O   O15       1.0  0.32700  0.10300  0.51600  1.0000
  O   O16       1.0  0.14300  0.41400  0.51600  1.0000
  O   O17       1.0  0.64500  0.56200  0.67700  1.0000
  O   O18       1.0  0.01690  0.98600  0.72300  1.0000
  O   O19       1.0  0.65000  0.08940  0.73000  1.0000
  O   O20       1.0  0.45300  0.29100  0.73200  1.0000
  O   O21       1.0  0.91200  0.73100  0.74400  1.0000
  O   O22       1.0  0.08790  0.23100  0.75600  1.0000
  O   O23       1.0  0.54700  0.79100  0.76800  1.0000
  O   O24       1.0  0.35000  0.58900  0.77000  1.0000
  O   O25       1.0  0.98300  0.48600  0.77700  1.0000
  O   O26       1.0  0.35500  0.06180  0.82300  1.0000
  O   O27       1.0  0.85700  0.91400  0.98400  1.0000
  O   O28       1.0  0.67300  0.60300  0.98400  1.0000
  P   P1        1.0  0.85700  0.90800  0.16700  1.0000
  P   P2        1.0  0.44600  0.35900  0.19000  1.0000
  P   P3        1.0  0.55400  0.85900  0.31000  1.0000
  P   P4        1.0  0.14300  0.40800  0.33300  1.0000
  P   P5        1.0  0.85700  0.59200  0.66700  1.0000
  P   P6        1.0  0.44600  0.14100  0.69000  1.0000
  P   P7        1.0  0.55400  0.64100  0.81000  1.0000
  P   P8        1.0  0.14300  0.09170  0.83300  1.0000
  V   V1        1.0  0.76500  0.59700  0.23700  1.0000
  V   V2        1.0  0.23500  0.09720  0.26300  1.0000
  V   V3        1.0  0.76500  0.90300  0.73700  1.0000
  V   V4        1.0  0.23500  0.40300  0.76300  1.0000
