data_image0
_chemical_formula_structural       Cl12H28O16Sn4
_chemical_formula_sum              "Cl12 H28 O16 Sn4"
_cell_length_a       9.5513
_cell_length_b       6.27165
_cell_length_c       12.2618
_cell_angle_alpha    90
_cell_angle_beta     93.127
_cell_angle_gamma    90

_space_group_name_H-M_alt    "P 1"
_space_group_IT_number       1

loop_
  _space_group_symop_operation_xyz
  'x, y, z'

loop_
  _atom_site_type_symbol
  _atom_site_label
  _atom_site_symmetry_multiplicity
  _atom_site_fract_x
  _atom_site_fract_y
  _atom_site_fract_z
  _atom_site_occupancy
  Cl  Cl1       1.0  0.79500  0.62800  0.03180  1.0000
  Cl  Cl2       1.0  0.13900  0.84200  0.07510  1.0000
  Cl  Cl3       1.0  0.71400  0.09550  0.18200  1.0000
  Cl  Cl4       1.0  0.78600  0.59500  0.31800  1.0000
  Cl  Cl5       1.0  0.36100  0.34200  0.42500  1.0000
  Cl  Cl6       1.0  0.70500  0.12800  0.46800  1.0000
  Cl  Cl7       1.0  0.29500  0.87200  0.53200  1.0000
  Cl  Cl8       1.0  0.63900  0.65800  0.57500  1.0000
  Cl  Cl9       1.0  0.21400  0.40500  0.68200  1.0000
  Cl  Cl10      1.0  0.28600  0.90500  0.81800  1.0000
  Cl  Cl11      1.0  0.86100  0.15800  0.92500  1.0000
  Cl  Cl12      1.0  0.20500  0.37200  0.96800  1.0000
  H   H1        1.0  0.48500  0.69200  0.08690  1.0000
  H   H2        1.0  0.10200  0.36200  0.12100  1.0000
  H   H3        1.0  0.95200  0.40300  0.16300  1.0000
  H   H4        1.0  0.41200  0.29700  0.17700  1.0000
  H   H5        1.0  0.59000  0.48500  0.20600  1.0000
  H   H6        1.0  0.39400  0.05190  0.22500  1.0000
  H   H7        1.0  0.46500  0.62100  0.24600  1.0000
  H   H8        1.0  0.03480  0.12100  0.25400  1.0000
  H   H9        1.0  0.10600  0.55200  0.27500  1.0000
  H   H10       1.0  0.91000  0.98500  0.29400  1.0000
  H   H11       1.0  0.08840  0.79700  0.32300  1.0000
  H   H12       1.0  0.54800  0.90300  0.33700  1.0000
  H   H13       1.0  0.39800  0.86200  0.37900  1.0000
  H   H14       1.0  0.01530  0.19200  0.41300  1.0000
  H   H15       1.0  0.98500  0.80800  0.58700  1.0000
  H   H16       1.0  0.60200  0.13800  0.62100  1.0000
  H   H17       1.0  0.45200  0.09650  0.66300  1.0000
  H   H18       1.0  0.91200  0.20300  0.67700  1.0000
  H   H19       1.0  0.09040  0.01490  0.70600  1.0000
  H   H20       1.0  0.89400  0.44800  0.72500  1.0000
  H   H21       1.0  0.96500  0.87900  0.74600  1.0000
  H   H22       1.0  0.53500  0.37900  0.75400  1.0000
  H   H23       1.0  0.60600  0.94800  0.77500  1.0000
  H   H24       1.0  0.41000  0.51500  0.79400  1.0000
  H   H25       1.0  0.58800  0.70300  0.82300  1.0000
  H   H26       1.0  0.04770  0.59700  0.83700  1.0000
  H   H27       1.0  0.89800  0.63800  0.87900  1.0000
  H   H28       1.0  0.51500  0.30800  0.91300  1.0000
  O   O1        1.0  0.48500  0.80900  0.03020  1.0000
  O   O2        1.0  0.35800  0.15800  0.16800  1.0000
  O   O3        1.0  0.49200  0.52000  0.18700  1.0000
  O   O4        1.0  0.04830  0.36500  0.18800  1.0000
  O   O5        1.0  0.45200  0.86500  0.31200  1.0000
  O   O6        1.0  0.00849  0.02010  0.31300  1.0000
  O   O7        1.0  0.14200  0.65800  0.33200  1.0000
  O   O8        1.0  0.01510  0.30900  0.47000  1.0000
  O   O9        1.0  0.98500  0.69100  0.53000  1.0000
  O   O10       1.0  0.85800  0.34200  0.66800  1.0000
  O   O11       1.0  0.99200  0.98000  0.68700  1.0000
  O   O12       1.0  0.54800  0.13500  0.68800  1.0000
  O   O13       1.0  0.95200  0.63500  0.81200  1.0000
  O   O14       1.0  0.50800  0.48000  0.81300  1.0000
  O   O15       1.0  0.64200  0.84200  0.83200  1.0000
  O   O16       1.0  0.51500  0.19100  0.97000  1.0000
  Sn  Sn1       1.0  0.32600  0.03670  0.00348  1.0000
  Sn  Sn2       1.0  0.17400  0.53700  0.49700  1.0000
  Sn  Sn3       1.0  0.82600  0.46300  0.50300  1.0000
  Sn  Sn4       1.0  0.67400  0.96300  0.99700  1.0000
