data_image0
_chemical_formula_structural       Na4O40P8Rb4Ti8
_chemical_formula_sum              "Na4 O40 P8 Rb4 Ti8"
_cell_length_a       12.7565
_cell_length_b       10.5621
_cell_length_c       6.29934
_cell_angle_alpha    90
_cell_angle_beta     90
_cell_angle_gamma    90

_space_group_name_H-M_alt    "P 1"
_space_group_IT_number       1

loop_
  _space_group_symop_operation_xyz
  'x, y, z'

loop_
  _atom_site_type_symbol
  _atom_site_label
  _atom_site_symmetry_multiplicity
  _atom_site_fract_x
  _atom_site_fract_y
  _atom_site_fract_z
  _atom_site_occupancy
  Na  Na1       1.0  0.15100  0.79400  0.24700  1.0000
  Na  Na2       1.0  0.65100  0.79400  0.25300  1.0000
  Na  Na3       1.0  0.34900  0.29400  0.74700  1.0000
  Na  Na4       1.0  0.84900  0.29400  0.75300  1.0000
  O   O1        1.0  0.00581  0.38400  0.01080  1.0000
  O   O2        1.0  0.23100  0.39300  0.01110  1.0000
  O   O3        1.0  0.24600  0.13800  0.01540  1.0000
  O   O4        1.0  0.99000  0.14800  0.02960  1.0000
  O   O5        1.0  0.76300  0.40700  0.04390  1.0000
  O   O6        1.0  0.78300  0.15000  0.05320  1.0000
  O   O7        1.0  0.39000  0.99100  0.16800  1.0000
  O   O8        1.0  0.40900  0.28900  0.17700  1.0000
  O   O9        1.0  0.60200  0.25800  0.19900  1.0000
  O   O10       1.0  0.61700  0.54400  0.21300  1.0000
  O   O11       1.0  0.11700  0.54400  0.28700  1.0000
  O   O12       1.0  0.10200  0.25800  0.30100  1.0000
  O   O13       1.0  0.90900  0.28900  0.32300  1.0000
  O   O14       1.0  0.89000  0.99100  0.33200  1.0000
  O   O15       1.0  0.28300  0.15000  0.44700  1.0000
  O   O16       1.0  0.26300  0.40700  0.45600  1.0000
  O   O17       1.0  0.49000  0.14800  0.47000  1.0000
  O   O18       1.0  0.74600  0.13800  0.48500  1.0000
  O   O19       1.0  0.73100  0.39300  0.48900  1.0000
  O   O20       1.0  0.50600  0.38400  0.48900  1.0000
  O   O21       1.0  0.49400  0.88400  0.51100  1.0000
  O   O22       1.0  0.26900  0.89300  0.51100  1.0000
  O   O23       1.0  0.25400  0.63800  0.51500  1.0000
  O   O24       1.0  0.51000  0.64800  0.53000  1.0000
  O   O25       1.0  0.73700  0.90700  0.54400  1.0000
  O   O26       1.0  0.71700  0.65000  0.55300  1.0000
  O   O27       1.0  0.11000  0.49100  0.66800  1.0000
  O   O28       1.0  0.09130  0.78900  0.67700  1.0000
  O   O29       1.0  0.89800  0.75800  0.69900  1.0000
  O   O30       1.0  0.88300  0.04380  0.71300  1.0000
  O   O31       1.0  0.38300  0.04380  0.78700  1.0000
  O   O32       1.0  0.39800  0.75800  0.80100  1.0000
  O   O33       1.0  0.59100  0.78900  0.82300  1.0000
  O   O34       1.0  0.61000  0.49100  0.83200  1.0000
  O   O35       1.0  0.21700  0.65000  0.94700  1.0000
  O   O36       1.0  0.23700  0.90700  0.95600  1.0000
  O   O37       1.0  0.01010  0.64800  0.97000  1.0000
  O   O38       1.0  0.75400  0.63800  0.98500  1.0000
  O   O39       1.0  0.76900  0.89300  0.98900  1.0000
  O   O40       1.0  0.99400  0.88400  0.98900  1.0000
  P   P1        1.0  0.68600  0.51800  0.01620  1.0000
  P   P2        1.0  0.00099  0.26800  0.16400  1.0000
  P   P3        1.0  0.50100  0.26800  0.33600  1.0000
  P   P4        1.0  0.18600  0.51800  0.48400  1.0000
  P   P5        1.0  0.81400  0.01780  0.51600  1.0000
  P   P6        1.0  0.49900  0.76800  0.66400  1.0000
  P   P7        1.0  0.99900  0.76800  0.83600  1.0000
  P   P8        1.0  0.31400  0.01780  0.98400  1.0000
  Rb  Rb1       1.0  0.40300  0.57700  0.14900  1.0000
  Rb  Rb2       1.0  0.90300  0.57700  0.35100  1.0000
  Rb  Rb3       1.0  0.09700  0.07660  0.64900  1.0000
  Rb  Rb4       1.0  0.59700  0.07660  0.85100  1.0000
  Ti  Ti1       1.0  0.87500  0.00800  0.02500  1.0000
  Ti  Ti2       1.0  0.25300  0.26800  0.24000  1.0000
  Ti  Ti3       1.0  0.75300  0.26800  0.26000  1.0000
  Ti  Ti4       1.0  0.37500  0.00800  0.47500  1.0000
  Ti  Ti5       1.0  0.62500  0.50800  0.52500  1.0000
  Ti  Ti6       1.0  0.24700  0.76800  0.74000  1.0000
  Ti  Ti7       1.0  0.74700  0.76800  0.76000  1.0000
  Ti  Ti8       1.0  0.12500  0.50800  0.97500  1.0000
