data_image0
_chemical_formula_structural       F6H24Mo4N6O20
_chemical_formula_sum              "F6 H24 Mo4 N6 O20"
_cell_length_a       10.2855
_cell_length_b       6.48158
_cell_length_c       8.01598
_cell_angle_alpha    90
_cell_angle_beta     106.621
_cell_angle_gamma    90

_space_group_name_H-M_alt    "P 1"
_space_group_IT_number       1

loop_
  _space_group_symop_operation_xyz
  'x, y, z'

loop_
  _atom_site_type_symbol
  _atom_site_label
  _atom_site_symmetry_multiplicity
  _atom_site_fract_x
  _atom_site_fract_y
  _atom_site_fract_z
  _atom_site_occupancy
  F   F1        1.0  0.31700  0.94800  0.00601  1.0000
  F   F2        1.0  0.25000  0.12300  0.25000  1.0000
  F   F3        1.0  0.18300  0.94800  0.49400  1.0000
  F   F4        1.0  0.81700  0.05220  0.50600  1.0000
  F   F5        1.0  0.75000  0.87700  0.75000  1.0000
  F   F6        1.0  0.68300  0.05220  0.99400  1.0000
  H   H1        1.0  0.98700  0.74400  0.07800  1.0000
  H   H2        1.0  0.14300  0.63400  0.13100  1.0000
  H   H3        1.0  0.13000  0.89500  0.13200  1.0000
  H   H4        1.0  0.72000  0.23900  0.14200  1.0000
  H   H5        1.0  0.41600  0.75800  0.21700  1.0000
  H   H6        1.0  0.83000  0.42500  0.24100  1.0000
  H   H7        1.0  0.67000  0.42500  0.25900  1.0000
  H   H8        1.0  0.08430  0.75800  0.28300  1.0000
  H   H9        1.0  0.78000  0.23900  0.35800  1.0000
  H   H10       1.0  0.37000  0.89500  0.36800  1.0000
  H   H11       1.0  0.35700  0.63400  0.36900  1.0000
  H   H12       1.0  0.51300  0.74400  0.42200  1.0000
  H   H13       1.0  0.48700  0.25600  0.57800  1.0000
  H   H14       1.0  0.64300  0.36600  0.63100  1.0000
  H   H15       1.0  0.63000  0.10500  0.63200  1.0000
  H   H16       1.0  0.22000  0.76100  0.64200  1.0000
  H   H17       1.0  0.91600  0.24200  0.71700  1.0000
  H   H18       1.0  0.33000  0.57500  0.74100  1.0000
  H   H19       1.0  0.17000  0.57500  0.75900  1.0000
  H   H20       1.0  0.58400  0.24200  0.78300  1.0000
  H   H21       1.0  0.28000  0.76100  0.85800  1.0000
  H   H22       1.0  0.87000  0.10500  0.86800  1.0000
  H   H23       1.0  0.85700  0.36600  0.86900  1.0000
  H   H24       1.0  0.01270  0.25600  0.92200  1.0000
  Mo  Mo1       1.0  0.37100  0.23400  0.07820  1.0000
  Mo  Mo2       1.0  0.12900  0.23400  0.42200  1.0000
  Mo  Mo3       1.0  0.87100  0.76600  0.57800  1.0000
  Mo  Mo4       1.0  0.62900  0.76600  0.92200  1.0000
  N   N1        1.0  0.08700  0.75800  0.15600  1.0000
  N   N2        1.0  0.75000  0.33400  0.25000  1.0000
  N   N3        1.0  0.41300  0.75800  0.34400  1.0000
  N   N4        1.0  0.58700  0.24200  0.65600  1.0000
  N   N5        1.0  0.25000  0.66600  0.75000  1.0000
  N   N6        1.0  0.91300  0.24200  0.84400  1.0000
  O   O1        1.0  0.81400  0.67800  0.05980  1.0000
  O   O2        1.0  0.25800  0.48000  0.06180  1.0000
  O   O3        1.0  0.54300  0.71100  0.06950  1.0000
  O   O4        1.0  0.00972  0.34400  0.20700  1.0000
  O   O5        1.0  0.98300  0.12500  0.22500  1.0000
  O   O6        1.0  0.51700  0.12500  0.27500  1.0000
  O   O7        1.0  0.49000  0.34400  0.29300  1.0000
  O   O8        1.0  0.95700  0.71100  0.43000  1.0000
  O   O9        1.0  0.24200  0.48000  0.43800  1.0000
  O   O10       1.0  0.68600  0.67800  0.44000  1.0000
  O   O11       1.0  0.31400  0.32200  0.56000  1.0000
  O   O12       1.0  0.75800  0.52000  0.56200  1.0000
  O   O13       1.0  0.04270  0.28900  0.57000  1.0000
  O   O14       1.0  0.51000  0.65600  0.70700  1.0000
  O   O15       1.0  0.48300  0.87500  0.72500  1.0000
  O   O16       1.0  0.01720  0.87500  0.77500  1.0000
  O   O17       1.0  0.99000  0.65600  0.79300  1.0000
  O   O18       1.0  0.45700  0.28900  0.93000  1.0000
  O   O19       1.0  0.74200  0.52000  0.93800  1.0000
  O   O20       1.0  0.18600  0.32200  0.94000  1.0000
