data_image0
_chemical_formula_structural       B12H20K2MgO30
_chemical_formula_sum              "B12 H20 K2 Mg1 O30"
_cell_length_a       7.26594
_cell_length_b       7.62059
_cell_length_c       10.5317
_cell_angle_alpha    107.93
_cell_angle_beta     96.9219
_cell_angle_gamma    90.7581

_space_group_name_H-M_alt    "P 1"
_space_group_IT_number       1

loop_
  _space_group_symop_operation_xyz
  'x, y, z'

loop_
  _atom_site_type_symbol
  _atom_site_label
  _atom_site_symmetry_multiplicity
  _atom_site_fract_x
  _atom_site_fract_y
  _atom_site_fract_z
  _atom_site_occupancy
  B   B1        1.0  0.62500  0.84000  0.04280  1.0000
  B   B2        1.0  0.86700  0.10300  0.13900  1.0000
  B   B3        1.0  0.88300  0.43800  0.19500  1.0000
  B   B4        1.0  0.65700  0.98500  0.28700  1.0000
  B   B5        1.0  0.83400  0.30500  0.38000  1.0000
  B   B6        1.0  0.53900  0.24400  0.46100  1.0000
  B   B7        1.0  0.46100  0.75600  0.53900  1.0000
  B   B8        1.0  0.16600  0.69500  0.62000  1.0000
  B   B9        1.0  0.34300  0.01530  0.71300  1.0000
  B   B10       1.0  0.11700  0.56200  0.80500  1.0000
  B   B11       1.0  0.13300  0.89700  0.86100  1.0000
  B   B12       1.0  0.37500  0.16000  0.95700  1.0000
  H   H1        1.0  0.13300  0.05070  0.10100  1.0000
  H   H2        1.0  0.40700  0.31800  0.15000  1.0000
  H   H3        1.0  0.87100  0.70600  0.22600  1.0000
  H   H4        1.0  0.19100  0.27500  0.26600  1.0000
  H   H5        1.0  0.13000  0.96300  0.28200  1.0000
  H   H6        1.0  0.27600  0.46800  0.36800  1.0000
  H   H7        1.0  0.31300  0.96300  0.37600  1.0000
  H   H8        1.0  0.71400  0.80300  0.38900  1.0000
  H   H9        1.0  0.61200  0.56200  0.43100  1.0000
  H   H10       1.0  0.96800  0.64200  0.45700  1.0000
  H   H11       1.0  0.03150  0.35800  0.54300  1.0000
  H   H12       1.0  0.38800  0.43800  0.56900  1.0000
  H   H13       1.0  0.28600  0.19700  0.61100  1.0000
  H   H14       1.0  0.68700  0.03710  0.62400  1.0000
  H   H15       1.0  0.72400  0.53200  0.63200  1.0000
  H   H16       1.0  0.87000  0.03710  0.71800  1.0000
  H   H17       1.0  0.80900  0.72500  0.73400  1.0000
  H   H18       1.0  0.12900  0.29400  0.77400  1.0000
  H   H19       1.0  0.59300  0.68200  0.85000  1.0000
  H   H20       1.0  0.86700  0.94900  0.89900  1.0000
  K   K1        1.0  0.26300  0.62800  0.11200  1.0000
  K   K2        1.0  0.73700  0.37200  0.88800  1.0000
  Mg  Mg1       1.0  0.00000  0.00000  0.50000  1.0000
  O   O1        1.0  0.76600  0.95300  0.02990  1.0000
  O   O2        1.0  0.45600  0.30500  0.06370  1.0000
  O   O3        1.0  0.87000  0.27000  0.09950  1.0000
  O   O4        1.0  0.89500  0.59200  0.15400  1.0000
  O   O5        1.0  0.55800  0.86700  0.16300  1.0000
  O   O6        1.0  0.05850  0.06010  0.17700  1.0000
  O   O7        1.0  0.76700  0.13800  0.26300  1.0000
  O   O8        1.0  0.27800  0.38200  0.27700  1.0000
  O   O9        1.0  0.88300  0.45600  0.33000  1.0000
  O   O10       1.0  0.79100  0.88000  0.34900  1.0000
  O   O11       1.0  0.18300  0.90900  0.35500  1.0000
  O   O12       1.0  0.52600  0.06560  0.38200  1.0000
  O   O13       1.0  0.58600  0.69500  0.44800  1.0000
  O   O14       1.0  0.67700  0.36800  0.45800  1.0000
  O   O15       1.0  0.98500  0.25200  0.46100  1.0000
  O   O16       1.0  0.01520  0.74800  0.53900  1.0000
  O   O17       1.0  0.32300  0.63200  0.54200  1.0000
  O   O18       1.0  0.41400  0.30500  0.55200  1.0000
  O   O19       1.0  0.47400  0.93400  0.61800  1.0000
  O   O20       1.0  0.81700  0.09070  0.64500  1.0000
  O   O21       1.0  0.20900  0.12000  0.65100  1.0000
  O   O22       1.0  0.11700  0.54400  0.67000  1.0000
  O   O23       1.0  0.72200  0.61800  0.72300  1.0000
  O   O24       1.0  0.23300  0.86200  0.73700  1.0000
  O   O25       1.0  0.94200  0.94000  0.82300  1.0000
  O   O26       1.0  0.44200  0.13300  0.83700  1.0000
  O   O27       1.0  0.10500  0.40800  0.84600  1.0000
  O   O28       1.0  0.13000  0.73000  0.90100  1.0000
  O   O29       1.0  0.54400  0.69500  0.93600  1.0000
  O   O30       1.0  0.23400  0.04710  0.97000  1.0000
