data_image0
_chemical_formula_structural       K4Na4O40P8Sn4Ti4
_chemical_formula_sum              "K4 Na4 O40 P8 Sn4 Ti4"
_cell_length_a       12.8661
_cell_length_b       10.6797
_cell_length_c       6.33363
_cell_angle_alpha    90
_cell_angle_beta     90
_cell_angle_gamma    90

_space_group_name_H-M_alt    "P 1"
_space_group_IT_number       1

loop_
  _space_group_symop_operation_xyz
  'x, y, z'

loop_
  _atom_site_type_symbol
  _atom_site_label
  _atom_site_symmetry_multiplicity
  _atom_site_fract_x
  _atom_site_fract_y
  _atom_site_fract_z
  _atom_site_occupancy
  K   K1        1.0  0.40100  0.58300  0.17000  1.0000
  K   K2        1.0  0.90100  0.58300  0.33000  1.0000
  K   K3        1.0  0.09860  0.08250  0.67000  1.0000
  K   K4        1.0  0.59900  0.08250  0.83000  1.0000
  Na  Na1       1.0  0.64800  0.80700  0.24600  1.0000
  Na  Na2       1.0  0.14800  0.80700  0.25400  1.0000
  Na  Na3       1.0  0.85200  0.30700  0.74600  1.0000
  Na  Na4       1.0  0.35200  0.30700  0.75400  1.0000
  O   O1        1.0  0.24900  0.14800  0.00245  1.0000
  O   O2        1.0  0.01200  0.39300  0.01460  1.0000
  O   O3        1.0  0.23400  0.40700  0.01500  1.0000
  O   O4        1.0  0.98700  0.16200  0.01550  1.0000
  O   O5        1.0  0.77800  0.15800  0.01840  1.0000
  O   O6        1.0  0.76100  0.41900  0.02590  1.0000
  O   O7        1.0  0.41000  0.29900  0.18200  1.0000
  O   O8        1.0  0.38800  0.01100  0.18400  1.0000
  O   O9        1.0  0.59600  0.25600  0.19000  1.0000
  O   O10       1.0  0.61000  0.54100  0.19900  1.0000
  O   O11       1.0  0.11000  0.54100  0.30100  1.0000
  O   O12       1.0  0.09590  0.25600  0.31000  1.0000
  O   O13       1.0  0.88800  0.01100  0.31600  1.0000
  O   O14       1.0  0.91000  0.29900  0.31800  1.0000
  O   O15       1.0  0.26100  0.41900  0.47400  1.0000
  O   O16       1.0  0.27800  0.15800  0.48200  1.0000
  O   O17       1.0  0.48700  0.16200  0.48400  1.0000
  O   O18       1.0  0.73400  0.40700  0.48500  1.0000
  O   O19       1.0  0.51200  0.39300  0.48500  1.0000
  O   O20       1.0  0.74900  0.14800  0.49800  1.0000
  O   O21       1.0  0.25100  0.64800  0.50200  1.0000
  O   O22       1.0  0.48800  0.89300  0.51500  1.0000
  O   O23       1.0  0.26600  0.90700  0.51500  1.0000
  O   O24       1.0  0.51300  0.66200  0.51600  1.0000
  O   O25       1.0  0.72200  0.65800  0.51800  1.0000
  O   O26       1.0  0.73900  0.91900  0.52600  1.0000
  O   O27       1.0  0.08960  0.79900  0.68200  1.0000
  O   O28       1.0  0.11200  0.51100  0.68400  1.0000
  O   O29       1.0  0.90400  0.75600  0.69000  1.0000
  O   O30       1.0  0.89000  0.04150  0.69900  1.0000
  O   O31       1.0  0.39000  0.04150  0.80100  1.0000
  O   O32       1.0  0.40400  0.75600  0.81000  1.0000
  O   O33       1.0  0.61200  0.51100  0.81600  1.0000
  O   O34       1.0  0.59000  0.79900  0.81800  1.0000
  O   O35       1.0  0.23900  0.91900  0.97400  1.0000
  O   O36       1.0  0.22200  0.65800  0.98200  1.0000
  O   O37       1.0  0.01270  0.66200  0.98400  1.0000
  O   O38       1.0  0.76600  0.90700  0.98500  1.0000
  O   O39       1.0  0.98800  0.89300  0.98500  1.0000
  O   O40       1.0  0.75100  0.64800  0.99800  1.0000
  P   P1        1.0  0.68300  0.52800  0.00755  1.0000
  P   P2        1.0  0.00179  0.27700  0.15900  1.0000
  P   P3        1.0  0.50200  0.27700  0.34100  1.0000
  P   P4        1.0  0.18300  0.52800  0.49200  1.0000
  P   P5        1.0  0.81700  0.02840  0.50800  1.0000
  P   P6        1.0  0.49800  0.77700  0.65900  1.0000
  P   P7        1.0  0.99800  0.77700  0.84100  1.0000
  P   P8        1.0  0.31700  0.02840  0.99200  1.0000
  Sn  Sn1       1.0  0.25100  0.27800  0.24500  1.0000
  Sn  Sn2       1.0  0.75100  0.27800  0.25500  1.0000
  Sn  Sn3       1.0  0.24900  0.77800  0.74500  1.0000
  Sn  Sn4       1.0  0.74900  0.77800  0.75500  1.0000
  Ti  Ti1       1.0  0.87000  0.02400  0.01090  1.0000
  Ti  Ti2       1.0  0.37000  0.02400  0.48900  1.0000
  Ti  Ti3       1.0  0.63000  0.52400  0.51100  1.0000
  Ti  Ti4       1.0  0.13000  0.52400  0.98900  1.0000
