data_image0
_chemical_formula_structural       O40Sn16W8
_chemical_formula_sum              "O40 Sn16 W8"
_cell_length_a       7.97368
_cell_length_b       13.4263
_cell_length_c       10.3005
_cell_angle_alpha    90
_cell_angle_beta     110.035
_cell_angle_gamma    90

_space_group_name_H-M_alt    "P 1"
_space_group_IT_number       1

loop_
  _space_group_symop_operation_xyz
  'x, y, z'

loop_
  _atom_site_type_symbol
  _atom_site_label
  _atom_site_symmetry_multiplicity
  _atom_site_fract_x
  _atom_site_fract_y
  _atom_site_fract_z
  _atom_site_occupancy
  O   O1        1.0  0.03520  0.17200  0.01670  1.0000
  O   O2        1.0  0.52400  0.78800  0.01790  1.0000
  O   O3        1.0  0.25500  0.31900  0.05860  1.0000
  O   O4        1.0  0.05780  0.61500  0.07630  1.0000
  O   O5        1.0  0.80900  0.27900  0.08670  1.0000
  O   O6        1.0  0.77000  0.94900  0.12900  1.0000
  O   O7        1.0  0.35000  0.10800  0.14900  1.0000
  O   O8        1.0  0.05280  0.43600  0.20200  1.0000
  O   O9        1.0  0.87900  0.76400  0.20900  1.0000
  O   O10       1.0  0.33800  0.75400  0.22000  1.0000
  O   O11       1.0  0.16200  0.25400  0.28000  1.0000
  O   O12       1.0  0.62100  0.26400  0.29100  1.0000
  O   O13       1.0  0.44700  0.93600  0.29800  1.0000
  O   O14       1.0  0.15000  0.60800  0.35100  1.0000
  O   O15       1.0  0.73000  0.44900  0.37100  1.0000
  O   O16       1.0  0.69100  0.77900  0.41300  1.0000
  O   O17       1.0  0.44200  0.11500  0.42400  1.0000
  O   O18       1.0  0.24500  0.81900  0.44100  1.0000
  O   O19       1.0  0.97600  0.28800  0.48200  1.0000
  O   O20       1.0  0.46500  0.67200  0.48300  1.0000
  O   O21       1.0  0.53500  0.32800  0.51700  1.0000
  O   O22       1.0  0.02430  0.71200  0.51800  1.0000
  O   O23       1.0  0.75500  0.18100  0.55900  1.0000
  O   O24       1.0  0.55800  0.88500  0.57600  1.0000
  O   O25       1.0  0.30900  0.22100  0.58700  1.0000
  O   O26       1.0  0.27000  0.55100  0.62900  1.0000
  O   O27       1.0  0.85000  0.39200  0.64900  1.0000
  O   O28       1.0  0.55300  0.06430  0.70200  1.0000
  O   O29       1.0  0.37900  0.73600  0.70900  1.0000
  O   O30       1.0  0.83800  0.74600  0.72000  1.0000
  O   O31       1.0  0.66200  0.24600  0.78000  1.0000
  O   O32       1.0  0.12100  0.23600  0.79100  1.0000
  O   O33       1.0  0.94700  0.56400  0.79800  1.0000
  O   O34       1.0  0.65000  0.89200  0.85100  1.0000
  O   O35       1.0  0.23000  0.05090  0.87100  1.0000
  O   O36       1.0  0.19100  0.72100  0.91300  1.0000
  O   O37       1.0  0.94200  0.38500  0.92400  1.0000
  O   O38       1.0  0.74500  0.68100  0.94100  1.0000
  O   O39       1.0  0.47600  0.21200  0.98200  1.0000
  O   O40       1.0  0.96500  0.82800  0.98300  1.0000
  Sn  Sn1       1.0  0.27600  0.85800  0.04430  1.0000
  Sn  Sn2       1.0  0.55400  0.35200  0.10500  1.0000
  Sn  Sn3       1.0  0.88500  0.59500  0.19800  1.0000
  Sn  Sn4       1.0  0.32000  0.59400  0.22900  1.0000
  Sn  Sn5       1.0  0.18000  0.09400  0.27100  1.0000
  Sn  Sn6       1.0  0.61500  0.09460  0.30200  1.0000
  Sn  Sn7       1.0  0.94600  0.85200  0.39500  1.0000
  Sn  Sn8       1.0  0.22400  0.35800  0.45600  1.0000
  Sn  Sn9       1.0  0.77600  0.64200  0.54400  1.0000
  Sn  Sn10      1.0  0.05450  0.14800  0.60500  1.0000
  Sn  Sn11      1.0  0.38500  0.90500  0.69800  1.0000
  Sn  Sn12      1.0  0.82000  0.90600  0.72900  1.0000
  Sn  Sn13      1.0  0.68000  0.40600  0.77100  1.0000
  Sn  Sn14      1.0  0.11500  0.40500  0.80200  1.0000
  Sn  Sn15      1.0  0.44600  0.64800  0.89500  1.0000
  Sn  Sn16      1.0  0.72400  0.14200  0.95600  1.0000
  W   W1        1.0  0.75600  0.83600  0.03880  1.0000
  W   W2        1.0  0.04110  0.32400  0.10600  1.0000
  W   W3        1.0  0.45900  0.82400  0.39400  1.0000
  W   W4        1.0  0.74400  0.33600  0.46100  1.0000
  W   W5        1.0  0.25600  0.66400  0.53900  1.0000
  W   W6        1.0  0.54100  0.17600  0.60600  1.0000
  W   W7        1.0  0.95900  0.67600  0.89400  1.0000
  W   W8        1.0  0.24400  0.16400  0.96100  1.0000
