data_image0
_chemical_formula_structural       Al8O36Tb16
_chemical_formula_sum              "Al8 O36 Tb16"
_cell_length_a       7.39996
_cell_length_b       10.5145
_cell_length_c       11.1498
_cell_angle_alpha    90
_cell_angle_beta     108.553
_cell_angle_gamma    90

_space_group_name_H-M_alt    "P 1"
_space_group_IT_number       1

loop_
  _space_group_symop_operation_xyz
  'x, y, z'

loop_
  _atom_site_type_symbol
  _atom_site_label
  _atom_site_symmetry_multiplicity
  _atom_site_fract_x
  _atom_site_fract_y
  _atom_site_fract_z
  _atom_site_occupancy
  Al  Al1       1.0  0.65500  0.17800  0.11300  1.0000
  Al  Al2       1.0  0.21800  0.18000  0.12700  1.0000
  Al  Al3       1.0  0.78200  0.68000  0.37300  1.0000
  Al  Al4       1.0  0.34500  0.67800  0.38700  1.0000
  Al  Al5       1.0  0.65500  0.32200  0.61300  1.0000
  Al  Al6       1.0  0.21800  0.32000  0.62700  1.0000
  Al  Al7       1.0  0.78200  0.82000  0.87300  1.0000
  Al  Al8       1.0  0.34500  0.82200  0.88700  1.0000
  O   O1        1.0  0.92700  0.76500  0.01990  1.0000
  O   O2        1.0  0.36000  0.76900  0.03850  1.0000
  O   O3        1.0  0.92200  0.49300  0.10700  1.0000
  O   O4        1.0  0.43600  0.50800  0.10800  1.0000
  O   O5        1.0  0.43400  0.24000  0.11500  1.0000
  O   O6        1.0  0.21200  0.01780  0.15300  1.0000
  O   O7        1.0  0.69400  0.01810  0.16000  1.0000
  O   O8        1.0  0.76800  0.76300  0.23200  1.0000
  O   O9        1.0  0.79200  0.26300  0.24600  1.0000
  O   O10       1.0  0.20800  0.76300  0.25400  1.0000
  O   O11       1.0  0.23200  0.26300  0.26800  1.0000
  O   O12       1.0  0.30600  0.51800  0.34000  1.0000
  O   O13       1.0  0.78800  0.51800  0.34700  1.0000
  O   O14       1.0  0.56600  0.74000  0.38500  1.0000
  O   O15       1.0  0.56400  0.00825  0.39200  1.0000
  O   O16       1.0  0.07830  0.99300  0.39300  1.0000
  O   O17       1.0  0.64000  0.26900  0.46100  1.0000
  O   O18       1.0  0.07280  0.26500  0.48000  1.0000
  O   O19       1.0  0.92700  0.73500  0.52000  1.0000
  O   O20       1.0  0.36000  0.73100  0.53900  1.0000
  O   O21       1.0  0.92200  0.00664  0.60700  1.0000
  O   O22       1.0  0.43600  0.99200  0.60800  1.0000
  O   O23       1.0  0.43400  0.26000  0.61500  1.0000
  O   O24       1.0  0.21200  0.48200  0.65300  1.0000
  O   O25       1.0  0.69400  0.48200  0.66000  1.0000
  O   O26       1.0  0.76800  0.73700  0.73200  1.0000
  O   O27       1.0  0.79200  0.23700  0.74600  1.0000
  O   O28       1.0  0.20800  0.73700  0.75400  1.0000
  O   O29       1.0  0.23200  0.23700  0.76800  1.0000
  O   O30       1.0  0.30600  0.98200  0.84000  1.0000
  O   O31       1.0  0.78800  0.98200  0.84700  1.0000
  O   O32       1.0  0.56600  0.76000  0.88500  1.0000
  O   O33       1.0  0.56400  0.49200  0.89200  1.0000
  O   O34       1.0  0.07830  0.50700  0.89300  1.0000
  O   O35       1.0  0.64000  0.23100  0.96100  1.0000
  O   O36       1.0  0.07280  0.23500  0.98000  1.0000
  Tb  Tb1       1.0  0.66100  0.62600  0.06350  1.0000
  Tb  Tb2       1.0  0.16300  0.62000  0.08610  1.0000
  Tb  Tb3       1.0  0.97600  0.90600  0.19200  1.0000
  Tb  Tb4       1.0  0.47700  0.89000  0.21500  1.0000
  Tb  Tb5       1.0  0.52300  0.39000  0.28500  1.0000
  Tb  Tb6       1.0  0.02400  0.40600  0.30800  1.0000
  Tb  Tb7       1.0  0.83700  0.12000  0.41400  1.0000
  Tb  Tb8       1.0  0.33900  0.12600  0.43700  1.0000
  Tb  Tb9       1.0  0.66100  0.87400  0.56300  1.0000
  Tb  Tb10      1.0  0.16300  0.88000  0.58600  1.0000
  Tb  Tb11      1.0  0.97600  0.59400  0.69200  1.0000
  Tb  Tb12      1.0  0.47700  0.61000  0.71500  1.0000
  Tb  Tb13      1.0  0.52300  0.11000  0.78500  1.0000
  Tb  Tb14      1.0  0.02400  0.09450  0.80800  1.0000
  Tb  Tb15      1.0  0.83700  0.38000  0.91400  1.0000
  Tb  Tb16      1.0  0.33900  0.37400  0.93700  1.0000
