data_image0
_chemical_formula_structural       Ce2K18P8S32
_chemical_formula_sum              "Ce2 K18 P8 S32"
_cell_length_a       9.85315
_cell_length_b       11.3287
_cell_length_c       16.8638
_cell_angle_alpha    90.3571
_cell_angle_beta     106.986
_cell_angle_gamma    115.777

_space_group_name_H-M_alt    "P 1"
_space_group_IT_number       1

loop_
  _space_group_symop_operation_xyz
  'x, y, z'

loop_
  _atom_site_type_symbol
  _atom_site_label
  _atom_site_symmetry_multiplicity
  _atom_site_fract_x
  _atom_site_fract_y
  _atom_site_fract_z
  _atom_site_occupancy
  Ce  Ce1       1.0  0.00359  0.25000  0.25000  1.0000
  Ce  Ce2       1.0  0.99600  0.75000  0.75000  1.0000
  K   K1        1.0  0.59200  0.18500  0.02290  1.0000
  K   K2        1.0  0.03620  0.94200  0.10400  1.0000
  K   K3        1.0  0.62600  0.60000  0.12900  1.0000
  K   K4        1.0  0.13700  0.62300  0.12900  1.0000
  K   K5        1.0  0.50400  0.25000  0.25000  1.0000
  K   K6        1.0  0.88500  0.87700  0.37100  1.0000
  K   K7        1.0  0.39800  0.90000  0.37100  1.0000
  K   K8        1.0  0.49100  0.55800  0.39600  1.0000
  K   K9        1.0  0.88400  0.31500  0.47700  1.0000
  K   K10       1.0  0.11600  0.68500  0.52300  1.0000
  K   K11       1.0  0.50900  0.44200  0.60400  1.0000
  K   K12       1.0  0.60200  0.10000  0.62900  1.0000
  K   K13       1.0  0.11500  0.12300  0.62900  1.0000
  K   K14       1.0  0.49600  0.75000  0.75000  1.0000
  K   K15       1.0  0.86300  0.37700  0.87100  1.0000
  K   K16       1.0  0.37400  0.40000  0.87100  1.0000
  K   K17       1.0  0.96400  0.05800  0.89600  1.0000
  K   K18       1.0  0.40800  0.81500  0.97700  1.0000
  P   P1        1.0  0.20600  0.33900  0.08170  1.0000
  P   P2        1.0  0.59500  0.95400  0.21000  1.0000
  P   P3        1.0  0.93200  0.54600  0.29000  1.0000
  P   P4        1.0  0.28500  0.16100  0.41800  1.0000
  P   P5        1.0  0.71500  0.83900  0.58200  1.0000
  P   P6        1.0  0.06840  0.45400  0.71000  1.0000
  P   P7        1.0  0.40500  0.04630  0.79000  1.0000
  P   P8        1.0  0.79400  0.66100  0.91800  1.0000
  S   S1        1.0  0.23400  0.48200  0.00620  1.0000
  S   S2        1.0  0.30300  0.22500  0.05360  1.0000
  S   S3        1.0  0.96800  0.21600  0.06520  1.0000
  S   S4        1.0  0.74500  0.99400  0.13900  1.0000
  S   S5        1.0  0.39700  0.96800  0.14000  1.0000
  S   S6        1.0  0.81700  0.40100  0.18500  1.0000
  S   S7        1.0  0.30000  0.42300  0.20700  1.0000
  S   S8        1.0  0.52800  0.76900  0.24300  1.0000
  S   S9        1.0  0.01540  0.73100  0.25700  1.0000
  S   S10       1.0  0.17000  0.07740  0.29300  1.0000
  S   S11       1.0  0.73100  0.09900  0.31500  1.0000
  S   S12       1.0  0.78900  0.53200  0.36000  1.0000
  S   S13       1.0  0.11200  0.50600  0.36100  1.0000
  S   S14       1.0  0.18700  0.28400  0.43500  1.0000
  S   S15       1.0  0.52400  0.27500  0.44600  1.0000
  S   S16       1.0  0.24600  0.01790  0.49400  1.0000
  S   S17       1.0  0.75400  0.98200  0.50600  1.0000
  S   S18       1.0  0.47600  0.72500  0.55400  1.0000
  S   S19       1.0  0.81300  0.71600  0.56500  1.0000
  S   S20       1.0  0.88800  0.49400  0.63900  1.0000
  S   S21       1.0  0.21100  0.46800  0.64000  1.0000
  S   S22       1.0  0.26900  0.90100  0.68500  1.0000
  S   S23       1.0  0.83000  0.92300  0.70700  1.0000
  S   S24       1.0  0.98500  0.26900  0.74300  1.0000
  S   S25       1.0  0.47200  0.23100  0.75700  1.0000
  S   S26       1.0  0.70000  0.57700  0.79300  1.0000
  S   S27       1.0  0.18300  0.59900  0.81500  1.0000
  S   S28       1.0  0.60300  0.03170  0.86000  1.0000
  S   S29       1.0  0.25500  0.00641  0.86100  1.0000
  S   S30       1.0  0.03170  0.78400  0.93500  1.0000
  S   S31       1.0  0.69700  0.77500  0.94600  1.0000
  S   S32       1.0  0.76600  0.51800  0.99400  1.0000
