data_image0
_chemical_formula_structural       C4Cl8H36N20
_chemical_formula_sum              "C4 Cl8 H36 N20"
_cell_length_a       4.45912
_cell_length_b       20.9413
_cell_length_c       6.93386
_cell_angle_alpha    90
_cell_angle_beta     94.9282
_cell_angle_gamma    90

_space_group_name_H-M_alt    "P 1"
_space_group_IT_number       1

loop_
  _space_group_symop_operation_xyz
  'x, y, z'

loop_
  _atom_site_type_symbol
  _atom_site_label
  _atom_site_symmetry_multiplicity
  _atom_site_fract_x
  _atom_site_fract_y
  _atom_site_fract_z
  _atom_site_occupancy
  C   C1        1.0  0.59000  0.87500  0.11500  1.0000
  C   C2        1.0  0.41000  0.37500  0.38500  1.0000
  C   C3        1.0  0.59000  0.62500  0.61500  1.0000
  C   C4        1.0  0.41000  0.12500  0.88500  1.0000
  Cl  Cl1       1.0  0.95200  0.29100  0.03150  1.0000
  Cl  Cl2       1.0  0.18200  0.54300  0.21500  1.0000
  Cl  Cl3       1.0  0.81800  0.04310  0.28500  1.0000
  Cl  Cl4       1.0  0.04770  0.79100  0.46800  1.0000
  Cl  Cl5       1.0  0.95200  0.20900  0.53200  1.0000
  Cl  Cl6       1.0  0.18200  0.95700  0.71500  1.0000
  Cl  Cl7       1.0  0.81800  0.45700  0.78500  1.0000
  Cl  Cl8       1.0  0.04770  0.70900  0.96800  1.0000
  H   H1        1.0  0.18700  0.37900  0.00923  1.0000
  H   H2        1.0  0.33100  0.79500  0.04820  1.0000
  H   H3        1.0  0.50300  0.57800  0.05380  1.0000
  H   H4        1.0  0.12000  0.09490  0.07300  1.0000
  H   H5        1.0  0.26200  0.45600  0.09500  1.0000
  H   H6        1.0  0.84200  0.95600  0.12300  1.0000
  H   H7        1.0  0.68500  0.35100  0.17100  1.0000
  H   H8        1.0  0.27400  0.21800  0.18100  1.0000
  H   H9        1.0  0.39900  0.68700  0.22100  1.0000
  H   H10       1.0  0.60100  0.18700  0.27900  1.0000
  H   H11       1.0  0.72600  0.71800  0.31900  1.0000
  H   H12       1.0  0.31500  0.85100  0.32900  1.0000
  H   H13       1.0  0.15800  0.45600  0.37700  1.0000
  H   H14       1.0  0.73800  0.95600  0.40500  1.0000
  H   H15       1.0  0.88000  0.59500  0.42700  1.0000
  H   H16       1.0  0.49700  0.07820  0.44600  1.0000
  H   H17       1.0  0.66900  0.29500  0.45200  1.0000
  H   H18       1.0  0.81300  0.87900  0.49100  1.0000
  H   H19       1.0  0.18700  0.12100  0.50900  1.0000
  H   H20       1.0  0.33100  0.70500  0.54800  1.0000
  H   H21       1.0  0.50300  0.92200  0.55400  1.0000
  H   H22       1.0  0.12000  0.40500  0.57300  1.0000
  H   H23       1.0  0.26200  0.04410  0.59500  1.0000
  H   H24       1.0  0.84200  0.54400  0.62300  1.0000
  H   H25       1.0  0.68500  0.14900  0.67100  1.0000
  H   H26       1.0  0.27400  0.28200  0.68100  1.0000
  H   H27       1.0  0.39900  0.81300  0.72100  1.0000
  H   H28       1.0  0.60100  0.31300  0.77900  1.0000
  H   H29       1.0  0.72600  0.78200  0.81900  1.0000
  H   H30       1.0  0.31500  0.64900  0.82900  1.0000
  H   H31       1.0  0.15800  0.04350  0.87700  1.0000
  H   H32       1.0  0.73800  0.54400  0.90500  1.0000
  H   H33       1.0  0.88000  0.90500  0.92700  1.0000
  H   H34       1.0  0.49700  0.42200  0.94600  1.0000
  H   H35       1.0  0.66900  0.20500  0.95200  1.0000
  H   H36       1.0  0.81300  0.62100  0.99100  1.0000
  N   N1        1.0  0.48200  0.82800  0.00246  1.0000
  N   N2        1.0  0.35500  0.41200  0.05800  1.0000
  N   N3        1.0  0.81300  0.91200  0.06350  1.0000
  N   N4        1.0  0.41600  0.17900  0.18200  1.0000
  N   N5        1.0  0.54100  0.38600  0.21700  1.0000
  N   N6        1.0  0.45900  0.88600  0.28300  1.0000
  N   N7        1.0  0.58400  0.67900  0.31800  1.0000
  N   N8        1.0  0.18700  0.41200  0.43700  1.0000
  N   N9        1.0  0.64500  0.91200  0.44200  1.0000
  N   N10       1.0  0.51800  0.32800  0.49800  1.0000
  N   N11       1.0  0.48200  0.67200  0.50200  1.0000
  N   N12       1.0  0.35500  0.08840  0.55800  1.0000
  N   N13       1.0  0.81300  0.58800  0.56300  1.0000
  N   N14       1.0  0.41600  0.32100  0.68200  1.0000
  N   N15       1.0  0.54100  0.11400  0.71700  1.0000
  N   N16       1.0  0.45900  0.61400  0.78300  1.0000
  N   N17       1.0  0.58400  0.82100  0.81800  1.0000
  N   N18       1.0  0.18700  0.08840  0.93700  1.0000
  N   N19       1.0  0.64500  0.58800  0.94200  1.0000
  N   N20       1.0  0.51800  0.17200  0.99800  1.0000
