data_image0
_chemical_formula_structural       Cl12Cs10Fe2O26V10
_chemical_formula_sum              "Cl12 Cs10 Fe2 O26 V10"
_cell_length_a       11.0057
_cell_length_b       11.0057
_cell_length_c       10.3329
_cell_angle_alpha    90
_cell_angle_beta     90
_cell_angle_gamma    90

_space_group_name_H-M_alt    "P 1"
_space_group_IT_number       1

loop_
  _space_group_symop_operation_xyz
  'x, y, z'

loop_
  _atom_site_type_symbol
  _atom_site_label
  _atom_site_symmetry_multiplicity
  _atom_site_fract_x
  _atom_site_fract_y
  _atom_site_fract_z
  _atom_site_occupancy
  Cl  Cl1       1.0  0.75000  0.25000  0.26900  1.0000
  Cl  Cl2       1.0  0.25000  0.75000  0.26900  1.0000
  Cl  Cl3       1.0  0.53000  0.25000  0.49700  1.0000
  Cl  Cl4       1.0  0.97000  0.25000  0.49700  1.0000
  Cl  Cl5       1.0  0.25000  0.53000  0.49700  1.0000
  Cl  Cl6       1.0  0.25000  0.97000  0.49700  1.0000
  Cl  Cl7       1.0  0.75000  0.02980  0.50300  1.0000
  Cl  Cl8       1.0  0.75000  0.47000  0.50300  1.0000
  Cl  Cl9       1.0  0.02980  0.75000  0.50300  1.0000
  Cl  Cl10      1.0  0.47000  0.75000  0.50300  1.0000
  Cl  Cl11      1.0  0.75000  0.25000  0.73100  1.0000
  Cl  Cl12      1.0  0.25000  0.75000  0.73100  1.0000
  Cs  Cs1       1.0  0.51200  0.51200  0.28400  1.0000
  Cs  Cs2       1.0  0.98800  0.51200  0.28400  1.0000
  Cs  Cs3       1.0  0.51200  0.98800  0.28400  1.0000
  Cs  Cs4       1.0  0.98800  0.98800  0.28400  1.0000
  Cs  Cs5       1.0  0.25000  0.25000  0.36000  1.0000
  Cs  Cs6       1.0  0.75000  0.75000  0.64000  1.0000
  Cs  Cs7       1.0  0.01230  0.01230  0.71600  1.0000
  Cs  Cs8       1.0  0.48800  0.01230  0.71600  1.0000
  Cs  Cs9       1.0  0.01230  0.48800  0.71600  1.0000
  Cs  Cs10      1.0  0.48800  0.48800  0.71600  1.0000
  Fe  Fe1       1.0  0.75000  0.25000  0.50000  1.0000
  Fe  Fe2       1.0  0.25000  0.75000  0.50000  1.0000
  O   O1        1.0  0.61100  0.11100  0.00000  1.0000
  O   O2        1.0  0.88900  0.11100  0.00000  1.0000
  O   O3        1.0  0.61100  0.38900  0.00000  1.0000
  O   O4        1.0  0.88900  0.38900  0.00000  1.0000
  O   O5        1.0  0.11100  0.61100  0.00000  1.0000
  O   O6        1.0  0.38900  0.61100  0.00000  1.0000
  O   O7        1.0  0.11100  0.88900  0.00000  1.0000
  O   O8        1.0  0.38900  0.88900  0.00000  1.0000
  O   O9        1.0  0.75000  0.57700  0.11500  1.0000
  O   O10       1.0  0.57700  0.75000  0.11500  1.0000
  O   O11       1.0  0.92300  0.75000  0.11500  1.0000
  O   O12       1.0  0.75000  0.92300  0.11500  1.0000
  O   O13       1.0  0.25000  0.04990  0.14800  1.0000
  O   O14       1.0  0.04990  0.25000  0.14800  1.0000
  O   O15       1.0  0.45000  0.25000  0.14800  1.0000
  O   O16       1.0  0.25000  0.45000  0.14800  1.0000
  O   O17       1.0  0.75000  0.75000  0.31900  1.0000
  O   O18       1.0  0.25000  0.25000  0.68100  1.0000
  O   O19       1.0  0.75000  0.55000  0.85200  1.0000
  O   O20       1.0  0.55000  0.75000  0.85200  1.0000
  O   O21       1.0  0.95000  0.75000  0.85200  1.0000
  O   O22       1.0  0.75000  0.95000  0.85200  1.0000
  O   O23       1.0  0.25000  0.07660  0.88500  1.0000
  O   O24       1.0  0.07660  0.25000  0.88500  1.0000
  O   O25       1.0  0.42300  0.25000  0.88500  1.0000
  O   O26       1.0  0.25000  0.42300  0.88500  1.0000
  V   V1        1.0  0.52500  0.25000  0.01140  1.0000
  V   V2        1.0  0.97500  0.25000  0.01140  1.0000
  V   V3        1.0  0.25000  0.52500  0.01140  1.0000
  V   V4        1.0  0.25000  0.97500  0.01140  1.0000
  V   V5        1.0  0.75000  0.75000  0.16100  1.0000
  V   V6        1.0  0.25000  0.25000  0.83900  1.0000
  V   V7        1.0  0.75000  0.02500  0.98900  1.0000
  V   V8        1.0  0.75000  0.47500  0.98900  1.0000
  V   V9        1.0  0.02500  0.75000  0.98900  1.0000
  V   V10       1.0  0.47500  0.75000  0.98900  1.0000
