data_image0
_chemical_formula_structural       F4Ho12O40Si12
_chemical_formula_sum              "F4 Ho12 O40 Si12"
_cell_length_a       7.2849
_cell_length_b       11.0581
_cell_length_c       10.3154
_cell_angle_alpha    90
_cell_angle_beta     97.2288
_cell_angle_gamma    90

_space_group_name_H-M_alt    "P 1"
_space_group_IT_number       1

loop_
  _space_group_symop_operation_xyz
  'x, y, z'

loop_
  _atom_site_type_symbol
  _atom_site_label
  _atom_site_symmetry_multiplicity
  _atom_site_fract_x
  _atom_site_fract_y
  _atom_site_fract_z
  _atom_site_occupancy
  F   F1        1.0  0.30300  0.71500  0.06140  1.0000
  F   F2        1.0  0.19700  0.21500  0.43900  1.0000
  F   F3        1.0  0.80300  0.78500  0.56100  1.0000
  F   F4        1.0  0.69700  0.28500  0.93900  1.0000
  Ho  Ho1       1.0  0.20000  0.90300  0.00461  1.0000
  Ho  Ho2       1.0  0.76300  0.46800  0.01880  1.0000
  Ho  Ho3       1.0  0.59300  0.72800  0.18800  1.0000
  Ho  Ho4       1.0  0.90700  0.22800  0.31200  1.0000
  Ho  Ho5       1.0  0.73700  0.96800  0.48100  1.0000
  Ho  Ho6       1.0  0.30000  0.40300  0.49500  1.0000
  Ho  Ho7       1.0  0.70000  0.59700  0.50500  1.0000
  Ho  Ho8       1.0  0.26300  0.03200  0.51900  1.0000
  Ho  Ho9       1.0  0.09310  0.77200  0.68800  1.0000
  Ho  Ho10      1.0  0.40700  0.27200  0.81200  1.0000
  Ho  Ho11      1.0  0.23700  0.53200  0.98100  1.0000
  Ho  Ho12      1.0  0.80000  0.09750  0.99500  1.0000
  O   O1        1.0  0.73200  0.67900  0.01810  1.0000
  O   O2        1.0  0.95500  0.94800  0.10600  1.0000
  O   O3        1.0  0.01110  0.22700  0.11800  1.0000
  O   O4        1.0  0.31600  0.10700  0.12100  1.0000
  O   O5        1.0  0.47800  0.91000  0.12700  1.0000
  O   O6        1.0  0.48600  0.52500  0.13700  1.0000
  O   O7        1.0  0.03700  0.52100  0.13800  1.0000
  O   O8        1.0  0.68800  0.10600  0.19300  1.0000
  O   O9        1.0  0.71000  0.35500  0.19600  1.0000
  O   O10       1.0  0.34200  0.32200  0.23400  1.0000
  O   O11       1.0  0.15800  0.82200  0.26600  1.0000
  O   O12       1.0  0.79000  0.85500  0.30400  1.0000
  O   O13       1.0  0.81200  0.60600  0.30700  1.0000
  O   O14       1.0  0.46300  0.02140  0.36200  1.0000
  O   O15       1.0  0.01360  0.02530  0.36300  1.0000
  O   O16       1.0  0.02190  0.41000  0.37300  1.0000
  O   O17       1.0  0.18400  0.60700  0.37900  1.0000
  O   O18       1.0  0.48900  0.72700  0.38200  1.0000
  O   O19       1.0  0.54500  0.44800  0.39400  1.0000
  O   O20       1.0  0.76800  0.17900  0.48200  1.0000
  O   O21       1.0  0.23200  0.82100  0.51800  1.0000
  O   O22       1.0  0.45500  0.55200  0.60600  1.0000
  O   O23       1.0  0.51100  0.27300  0.61800  1.0000
  O   O24       1.0  0.81600  0.39300  0.62100  1.0000
  O   O25       1.0  0.97800  0.59000  0.62700  1.0000
  O   O26       1.0  0.98600  0.97500  0.63700  1.0000
  O   O27       1.0  0.53700  0.97900  0.63800  1.0000
  O   O28       1.0  0.18800  0.39400  0.69300  1.0000
  O   O29       1.0  0.21000  0.14500  0.69600  1.0000
  O   O30       1.0  0.84200  0.17800  0.73400  1.0000
  O   O31       1.0  0.65800  0.67800  0.76600  1.0000
  O   O32       1.0  0.29000  0.64500  0.80400  1.0000
  O   O33       1.0  0.31200  0.89400  0.80700  1.0000
  O   O34       1.0  0.96300  0.47900  0.86200  1.0000
  O   O35       1.0  0.51400  0.47500  0.86300  1.0000
  O   O36       1.0  0.52200  0.09030  0.87300  1.0000
  O   O37       1.0  0.68400  0.89300  0.87900  1.0000
  O   O38       1.0  0.98900  0.77300  0.88200  1.0000
  O   O39       1.0  0.04460  0.05210  0.89400  1.0000
  O   O40       1.0  0.26800  0.32100  0.98200  1.0000
  Si  Si1       1.0  0.23000  0.24500  0.11000  1.0000
  Si  Si2       1.0  0.49400  0.03700  0.20800  1.0000
  Si  Si3       1.0  0.52500  0.41300  0.24100  1.0000
  Si  Si4       1.0  0.97500  0.91300  0.25900  1.0000
  Si  Si5       1.0  0.00563  0.53700  0.29200  1.0000
  Si  Si6       1.0  0.27000  0.74500  0.39000  1.0000
  Si  Si7       1.0  0.73000  0.25500  0.61000  1.0000
  Si  Si8       1.0  0.99400  0.46300  0.70800  1.0000
  Si  Si9       1.0  0.02480  0.08710  0.74100  1.0000
  Si  Si10      1.0  0.47500  0.58700  0.75900  1.0000
  Si  Si11      1.0  0.50600  0.96300  0.79200  1.0000
  Si  Si12      1.0  0.77000  0.75500  0.89000  1.0000
