data_image0
_chemical_formula_structural       K8N16O32Pt4
_chemical_formula_sum              "K8 N16 O32 Pt4"
_cell_length_a       7.61365
_cell_length_b       12.5063
_cell_length_c       8.90846
_cell_angle_alpha    90
_cell_angle_beta     95.5739
_cell_angle_gamma    90

_space_group_name_H-M_alt    "P 1"
_space_group_IT_number       1

loop_
  _space_group_symop_operation_xyz
  'x, y, z'

loop_
  _atom_site_type_symbol
  _atom_site_label
  _atom_site_symmetry_multiplicity
  _atom_site_fract_x
  _atom_site_fract_y
  _atom_site_fract_z
  _atom_site_occupancy
  K   K1        1.0  0.91700  0.34500  0.18800  1.0000
  K   K2        1.0  0.41700  0.15500  0.18800  1.0000
  K   K3        1.0  0.34900  0.82300  0.34600  1.0000
  K   K4        1.0  0.84900  0.67700  0.34600  1.0000
  K   K5        1.0  0.15100  0.32300  0.65400  1.0000
  K   K6        1.0  0.65100  0.17700  0.65400  1.0000
  K   K7        1.0  0.08270  0.65500  0.81200  1.0000
  K   K8        1.0  0.58300  0.84500  0.81200  1.0000
  N   N1        1.0  0.76200  0.07000  0.01360  1.0000
  N   N2        1.0  0.26200  0.43000  0.01360  1.0000
  N   N3        1.0  0.92700  0.86700  0.10700  1.0000
  N   N4        1.0  0.42700  0.63300  0.10700  1.0000
  N   N5        1.0  0.50700  0.35700  0.39700  1.0000
  N   N6        1.0  0.00733  0.14300  0.39700  1.0000
  N   N7        1.0  0.24400  0.52500  0.41600  1.0000
  N   N8        1.0  0.74400  0.97500  0.41600  1.0000
  N   N9        1.0  0.75600  0.47500  0.58400  1.0000
  N   N10       1.0  0.25600  0.02470  0.58400  1.0000
  N   N11       1.0  0.49300  0.64300  0.60300  1.0000
  N   N12       1.0  0.99300  0.85700  0.60300  1.0000
  N   N13       1.0  0.57300  0.36700  0.89300  1.0000
  N   N14       1.0  0.07330  0.13300  0.89300  1.0000
  N   N15       1.0  0.23800  0.93000  0.98600  1.0000
  N   N16       1.0  0.73800  0.57000  0.98600  1.0000
  O   O1        1.0  0.78300  0.82100  0.07100  1.0000
  O   O2        1.0  0.28300  0.67900  0.07100  1.0000
  O   O3        1.0  0.36500  0.94800  0.08360  1.0000
  O   O4        1.0  0.86500  0.55200  0.08360  1.0000
  O   O5        1.0  0.74600  0.13300  0.12000  1.0000
  O   O6        1.0  0.24600  0.36700  0.12000  1.0000
  O   O7        1.0  0.03000  0.83100  0.21300  1.0000
  O   O8        1.0  0.53000  0.66900  0.21300  1.0000
  O   O9        1.0  0.60500  0.34300  0.29400  1.0000
  O   O10       1.0  0.10500  0.15700  0.29400  1.0000
  O   O11       1.0  0.69800  0.88400  0.37100  1.0000
  O   O12       1.0  0.19800  0.61600  0.37100  1.0000
  O   O13       1.0  0.13300  0.45000  0.40900  1.0000
  O   O14       1.0  0.63300  0.04950  0.40900  1.0000
  O   O15       1.0  0.41500  0.28100  0.43900  1.0000
  O   O16       1.0  0.91500  0.21900  0.43900  1.0000
  O   O17       1.0  0.58500  0.71900  0.56100  1.0000
  O   O18       1.0  0.08470  0.78100  0.56100  1.0000
  O   O19       1.0  0.86700  0.55000  0.59100  1.0000
  O   O20       1.0  0.36700  0.95000  0.59100  1.0000
  O   O21       1.0  0.30200  0.11600  0.62900  1.0000
  O   O22       1.0  0.80200  0.38400  0.62900  1.0000
  O   O23       1.0  0.39500  0.65700  0.70600  1.0000
  O   O24       1.0  0.89500  0.84300  0.70600  1.0000
  O   O25       1.0  0.97000  0.16900  0.78700  1.0000
  O   O26       1.0  0.47000  0.33100  0.78700  1.0000
  O   O27       1.0  0.25400  0.86700  0.88000  1.0000
  O   O28       1.0  0.75400  0.63300  0.88000  1.0000
  O   O29       1.0  0.63500  0.05250  0.91600  1.0000
  O   O30       1.0  0.13500  0.44800  0.91600  1.0000
  O   O31       1.0  0.71700  0.32100  0.92900  1.0000
  O   O32       1.0  0.21700  0.17900  0.92900  1.0000
  Pt  Pt1       1.0  0.00000  0.00000  0.00000  1.0000
  Pt  Pt2       1.0  0.50000  0.50000  0.00000  1.0000
  Pt  Pt3       1.0  0.00000  0.00000  0.50000  1.0000
  Pt  Pt4       1.0  0.50000  0.50000  0.50000  1.0000
