data_image0
_chemical_formula_structural       La2Sb2Te2
_chemical_formula_sum              "La2 Sb2 Te2"
_cell_length_a       4.42444
_cell_length_b       4.42444
_cell_length_c       9.63697
_cell_angle_alpha    90
_cell_angle_beta     90
_cell_angle_gamma    90

_space_group_name_H-M_alt    "P 1"
_space_group_IT_number       1

loop_
  _space_group_symop_operation_xyz
  'x, y, z'

loop_
  _atom_site_type_symbol
  _atom_site_label
  _atom_site_symmetry_multiplicity
  _atom_site_fract_x
  _atom_site_fract_y
  _atom_site_fract_z
  _atom_site_occupancy
  La  La1       1.0  0.25000  0.25000  0.27800  1.0000
  La  La2       1.0  0.75000  0.75000  0.72200  1.0000
  Sb  Sb1       1.0  0.75000  0.25000  0.00000  1.0000
  Sb  Sb2       1.0  0.25000  0.75000  0.00000  1.0000
  Te  Te1       1.0  0.75000  0.75000  0.37100  1.0000
  Te  Te2       1.0  0.25000  0.25000  0.62900  1.0000
