data_image0
_chemical_formula_structural       B20Cl4O36Sr8
_chemical_formula_sum              "B20 Cl4 O36 Sr8"
_cell_length_a       11.2338
_cell_length_b       11.3293
_cell_length_c       6.49677
_cell_angle_alpha    90
_cell_angle_beta     90
_cell_angle_gamma    90

_space_group_name_H-M_alt    "P 1"
_space_group_IT_number       1

loop_
  _space_group_symop_operation_xyz
  'x, y, z'

loop_
  _atom_site_type_symbol
  _atom_site_label
  _atom_site_symmetry_multiplicity
  _atom_site_fract_x
  _atom_site_fract_y
  _atom_site_fract_z
  _atom_site_occupancy
  B   B1        1.0  0.72200  0.20700  0.03200  1.0000
  B   B2        1.0  0.27800  0.79300  0.03200  1.0000
  B   B3        1.0  0.32700  0.27500  0.20100  1.0000
  B   B4        1.0  0.67300  0.72500  0.20100  1.0000
  B   B5        1.0  0.23100  0.46400  0.30700  1.0000
  B   B6        1.0  0.76900  0.53600  0.30700  1.0000
  B   B7        1.0  0.80200  0.31200  0.35000  1.0000
  B   B8        1.0  0.19800  0.68800  0.35000  1.0000
  B   B9        1.0  0.00103  0.24300  0.47300  1.0000
  B   B10       1.0  0.99900  0.75700  0.47300  1.0000
  B   B11       1.0  0.22200  0.29300  0.53200  1.0000
  B   B12       1.0  0.77800  0.70700  0.53200  1.0000
  B   B13       1.0  0.82700  0.22500  0.70100  1.0000
  B   B14       1.0  0.17300  0.77500  0.70100  1.0000
  B   B15       1.0  0.73100  0.03590  0.80700  1.0000
  B   B16       1.0  0.26900  0.96400  0.80700  1.0000
  B   B17       1.0  0.30200  0.18800  0.85000  1.0000
  B   B18       1.0  0.69800  0.81200  0.85000  1.0000
  B   B19       1.0  0.50100  0.25700  0.97300  1.0000
  B   B20       1.0  0.49900  0.74300  0.97300  1.0000
  Cl  Cl1       1.0  0.00000  0.00000  0.14900  1.0000
  Cl  Cl2       1.0  0.50000  0.00000  0.39500  1.0000
  Cl  Cl3       1.0  0.50000  0.50000  0.64900  1.0000
  Cl  Cl4       1.0  0.00000  0.50000  0.89500  1.0000
  O   O1        1.0  0.27500  0.18200  0.07120  1.0000
  O   O2        1.0  0.72500  0.81800  0.07120  1.0000
  O   O3        1.0  0.26200  0.38600  0.15200  1.0000
  O   O4        1.0  0.73800  0.61400  0.15200  1.0000
  O   O5        1.0  0.45600  0.29200  0.15700  1.0000
  O   O6        1.0  0.54400  0.70800  0.15700  1.0000
  O   O7        1.0  0.77100  0.42200  0.24400  1.0000
  O   O8        1.0  0.22900  0.57800  0.24400  1.0000
  O   O9        1.0  0.72900  0.21800  0.25400  1.0000
  O   O10       1.0  0.27100  0.78200  0.25400  1.0000
  O   O11       1.0  0.93100  0.29000  0.32000  1.0000
  O   O12       1.0  0.06890  0.71000  0.32000  1.0000
  O   O13       1.0  0.32500  0.24800  0.42000  1.0000
  O   O14       1.0  0.67500  0.75200  0.42000  1.0000
  O   O15       1.0  0.12000  0.22800  0.43000  1.0000
  O   O16       1.0  0.88000  0.77200  0.43000  1.0000
  O   O17       1.0  0.20600  0.42400  0.50000  1.0000
  O   O18       1.0  0.79400  0.57600  0.50000  1.0000
  O   O19       1.0  0.77500  0.31800  0.57100  1.0000
  O   O20       1.0  0.22500  0.68200  0.57100  1.0000
  O   O21       1.0  0.76200  0.11400  0.65200  1.0000
  O   O22       1.0  0.23800  0.88600  0.65200  1.0000
  O   O23       1.0  0.95600  0.20800  0.65700  1.0000
  O   O24       1.0  0.04440  0.79200  0.65700  1.0000
  O   O25       1.0  0.27100  0.07820  0.74400  1.0000
  O   O26       1.0  0.72900  0.92200  0.74400  1.0000
  O   O27       1.0  0.22900  0.28200  0.75400  1.0000
  O   O28       1.0  0.77100  0.71800  0.75400  1.0000
  O   O29       1.0  0.43100  0.21000  0.82000  1.0000
  O   O30       1.0  0.56900  0.79000  0.82000  1.0000
  O   O31       1.0  0.82500  0.25200  0.92000  1.0000
  O   O32       1.0  0.17500  0.74800  0.92000  1.0000
  O   O33       1.0  0.62000  0.27200  0.93000  1.0000
  O   O34       1.0  0.38000  0.72800  0.93000  1.0000
  O   O35       1.0  0.70600  0.07630  0.00000  1.0000
  O   O36       1.0  0.29400  0.92400  0.00000  1.0000
  Sr  Sr1       1.0  0.05090  0.25100  0.00378  1.0000
  Sr  Sr2       1.0  0.94900  0.74900  0.00378  1.0000
  Sr  Sr3       1.0  0.24100  0.02650  0.34400  1.0000
  Sr  Sr4       1.0  0.75900  0.97300  0.34400  1.0000
  Sr  Sr5       1.0  0.55100  0.24900  0.50400  1.0000
  Sr  Sr6       1.0  0.44900  0.75100  0.50400  1.0000
  Sr  Sr7       1.0  0.74100  0.47300  0.84400  1.0000
  Sr  Sr8       1.0  0.25900  0.52700  0.84400  1.0000
