data_image0
_chemical_formula_structural       Ge4H8O16Tb4
_chemical_formula_sum              "Ge4 H8 O16 Tb4"
_cell_length_a       12.079
_cell_length_b       6.18619
_cell_length_c       5.01428
_cell_angle_alpha    90
_cell_angle_beta     102.928
_cell_angle_gamma    90

_space_group_name_H-M_alt    "P 1"
_space_group_IT_number       1

loop_
  _space_group_symop_operation_xyz
  'x, y, z'

loop_
  _atom_site_type_symbol
  _atom_site_label
  _atom_site_symmetry_multiplicity
  _atom_site_fract_x
  _atom_site_fract_y
  _atom_site_fract_z
  _atom_site_occupancy
  Ge  Ge1       1.0  0.10500  0.21000  0.29000  1.0000
  Ge  Ge2       1.0  0.60500  0.29000  0.29000  1.0000
  Ge  Ge3       1.0  0.39500  0.71000  0.71000  1.0000
  Ge  Ge4       1.0  0.89500  0.79000  0.71000  1.0000
  H   H1        1.0  0.00623  0.75500  0.34400  1.0000
  H   H2        1.0  0.50600  0.74500  0.34400  1.0000
  H   H3        1.0  0.74500  0.02950  0.47900  1.0000
  H   H4        1.0  0.24500  0.47100  0.47900  1.0000
  H   H5        1.0  0.25500  0.97100  0.52100  1.0000
  H   H6        1.0  0.75500  0.52900  0.52100  1.0000
  H   H7        1.0  0.49400  0.25500  0.65600  1.0000
  H   H8        1.0  0.99400  0.24500  0.65600  1.0000
  O   O1        1.0  0.48500  0.75300  0.04020  1.0000
  O   O2        1.0  0.98500  0.74700  0.04020  1.0000
  O   O3        1.0  0.71700  0.50300  0.22600  1.0000
  O   O4        1.0  0.21700  0.99700  0.22600  1.0000
  O   O5        1.0  0.21500  0.44600  0.26900  1.0000
  O   O6        1.0  0.71500  0.05410  0.26900  1.0000
  O   O7        1.0  0.46900  0.25500  0.44500  1.0000
  O   O8        1.0  0.96900  0.24500  0.44500  1.0000
  O   O9        1.0  0.53100  0.74500  0.55500  1.0000
  O   O10       1.0  0.03070  0.75500  0.55500  1.0000
  O   O11       1.0  0.28500  0.94600  0.73100  1.0000
  O   O12       1.0  0.78500  0.55400  0.73100  1.0000
  O   O13       1.0  0.78300  0.00322  0.77400  1.0000
  O   O14       1.0  0.28300  0.49700  0.77400  1.0000
  O   O15       1.0  0.01530  0.25300  0.96000  1.0000
  O   O16       1.0  0.51500  0.24700  0.96000  1.0000
  Tb  Tb1       1.0  0.34100  0.21800  0.05220  1.0000
  Tb  Tb2       1.0  0.84100  0.28200  0.05220  1.0000
  Tb  Tb3       1.0  0.15900  0.71800  0.94800  1.0000
  Tb  Tb4       1.0  0.65900  0.78200  0.94800  1.0000
