data_image0
_chemical_formula_structural       Al4C12Cl8H36O4Si4
_chemical_formula_sum              "Al4 C12 Cl8 H36 O4 Si4"
_cell_length_a       6.70414
_cell_length_b       9.1516
_cell_length_c       14.9041
_cell_angle_alpha    90
_cell_angle_beta     101.605
_cell_angle_gamma    90

_space_group_name_H-M_alt    "P 1"
_space_group_IT_number       1

loop_
  _space_group_symop_operation_xyz
  'x, y, z'

loop_
  _atom_site_type_symbol
  _atom_site_label
  _atom_site_symmetry_multiplicity
  _atom_site_fract_x
  _atom_site_fract_y
  _atom_site_fract_z
  _atom_site_occupancy
  Al  Al1       1.0  0.10700  0.07190  0.07270  1.0000
  Al  Al2       1.0  0.39300  0.57200  0.42700  1.0000
  Al  Al3       1.0  0.60700  0.42800  0.57300  1.0000
  Al  Al4       1.0  0.89300  0.92800  0.92700  1.0000
  C   C1        1.0  0.68400  0.66900  0.06410  1.0000
  C   C2        1.0  0.15000  0.64000  0.12600  1.0000
  C   C3        1.0  0.91600  0.84900  0.23300  1.0000
  C   C4        1.0  0.58400  0.34900  0.26700  1.0000
  C   C5        1.0  0.35000  0.14000  0.37400  1.0000
  C   C6        1.0  0.81600  0.16900  0.43600  1.0000
  C   C7        1.0  0.18400  0.83100  0.56400  1.0000
  C   C8        1.0  0.65000  0.86000  0.62600  1.0000
  C   C9        1.0  0.41600  0.65100  0.73300  1.0000
  C   C10       1.0  0.08400  0.15100  0.76700  1.0000
  C   C11       1.0  0.85000  0.36000  0.87400  1.0000
  C   C12       1.0  0.31600  0.33100  0.93600  1.0000
  Cl  Cl1       1.0  0.41700  0.02420  0.12500  1.0000
  Cl  Cl2       1.0  0.98300  0.24000  0.14200  1.0000
  Cl  Cl3       1.0  0.51700  0.74000  0.35800  1.0000
  Cl  Cl4       1.0  0.08300  0.52400  0.37500  1.0000
  Cl  Cl5       1.0  0.91700  0.47600  0.62500  1.0000
  Cl  Cl6       1.0  0.48300  0.26000  0.64200  1.0000
  Cl  Cl7       1.0  0.01690  0.76000  0.85800  1.0000
  Cl  Cl8       1.0  0.58300  0.97600  0.87500  1.0000
  H   H1        1.0  0.30800  0.36500  0.00584  1.0000
  H   H2        1.0  0.16500  0.60800  0.05640  1.0000
  H   H3        1.0  0.55300  0.74300  0.05950  1.0000
  H   H4        1.0  0.65700  0.57100  0.10200  1.0000
  H   H5        1.0  0.29100  0.69400  0.16000  1.0000
  H   H6        1.0  0.13300  0.53900  0.16400  1.0000
  H   H7        1.0  0.61500  0.26800  0.21700  1.0000
  H   H8        1.0  0.79600  0.93200  0.22500  1.0000
  H   H9        1.0  0.43800  0.40100  0.23700  1.0000
  H   H10       1.0  0.06240  0.90100  0.26300  1.0000
  H   H11       1.0  0.70400  0.43200  0.27500  1.0000
  H   H12       1.0  0.88500  0.76800  0.28300  1.0000
  H   H13       1.0  0.36700  0.03920  0.33600  1.0000
  H   H14       1.0  0.20900  0.19400  0.34000  1.0000
  H   H15       1.0  0.84300  0.07060  0.39800  1.0000
  H   H16       1.0  0.94700  0.24300  0.44000  1.0000
  H   H17       1.0  0.33500  0.10800  0.44400  1.0000
  H   H18       1.0  0.19200  0.86500  0.49400  1.0000
  H   H19       1.0  0.80800  0.13500  0.50600  1.0000
  H   H20       1.0  0.66500  0.89200  0.55600  1.0000
  H   H21       1.0  0.05260  0.75700  0.56000  1.0000
  H   H22       1.0  0.15700  0.92900  0.60200  1.0000
  H   H23       1.0  0.79100  0.80600  0.66000  1.0000
  H   H24       1.0  0.63300  0.96100  0.66400  1.0000
  H   H25       1.0  0.11500  0.23200  0.71700  1.0000
  H   H26       1.0  0.29600  0.56800  0.72500  1.0000
  H   H27       1.0  0.93800  0.09920  0.73700  1.0000
  H   H28       1.0  0.56200  0.59900  0.76300  1.0000
  H   H29       1.0  0.20400  0.06770  0.77500  1.0000
  H   H30       1.0  0.38500  0.73200  0.78300  1.0000
  H   H31       1.0  0.86700  0.46100  0.83600  1.0000
  H   H32       1.0  0.70900  0.30600  0.84000  1.0000
  H   H33       1.0  0.34300  0.42900  0.89800  1.0000
  H   H34       1.0  0.44700  0.25700  0.94000  1.0000
  H   H35       1.0  0.83500  0.39200  0.94400  1.0000
  H   H36       1.0  0.69200  0.63500  0.99400  1.0000
  O   O1        1.0  0.95600  0.90500  0.05100  1.0000
  O   O2        1.0  0.54400  0.40500  0.44900  1.0000
  O   O3        1.0  0.45600  0.59500  0.55100  1.0000
  O   O4        1.0  0.04350  0.09470  0.94900  1.0000
  Si  Si1       1.0  0.92500  0.76000  0.12200  1.0000
  Si  Si2       1.0  0.57500  0.26000  0.37800  1.0000
  Si  Si3       1.0  0.42500  0.74000  0.62200  1.0000
  Si  Si4       1.0  0.07510  0.24000  0.87800  1.0000
