data_image0
_chemical_formula_structural       Br24C16La24
_chemical_formula_sum              "Br24 C16 La24"
_cell_length_a       10.4196
_cell_length_b       10.4196
_cell_length_c       17.2585
_cell_angle_alpha    90
_cell_angle_beta     90
_cell_angle_gamma    112.112

_space_group_name_H-M_alt    "P 1"
_space_group_IT_number       1

loop_
  _space_group_symop_operation_xyz
  'x, y, z'

loop_
  _atom_site_type_symbol
  _atom_site_label
  _atom_site_symmetry_multiplicity
  _atom_site_fract_x
  _atom_site_fract_y
  _atom_site_fract_z
  _atom_site_occupancy
  Br  Br1       1.0  0.14300  0.38300  0.00284  1.0000
  Br  Br2       1.0  0.50600  0.49300  0.11600  1.0000
  Br  Br3       1.0  0.75500  0.26800  0.13000  1.0000
  Br  Br4       1.0  0.02560  0.01400  0.13200  1.0000
  Br  Br5       1.0  0.86400  0.63000  0.24100  1.0000
  Br  Br6       1.0  0.10200  0.36700  0.24200  1.0000
  Br  Br7       1.0  0.63300  0.89800  0.25800  1.0000
  Br  Br8       1.0  0.37000  0.13600  0.25900  1.0000
  Br  Br9       1.0  0.98600  0.97400  0.36800  1.0000
  Br  Br10      1.0  0.73200  0.24500  0.37000  1.0000
  Br  Br11      1.0  0.50700  0.49400  0.38400  1.0000
  Br  Br12      1.0  0.61700  0.85700  0.49700  1.0000
  Br  Br13      1.0  0.85700  0.61700  0.50300  1.0000
  Br  Br14      1.0  0.49400  0.50700  0.61600  1.0000
  Br  Br15      1.0  0.24500  0.73200  0.63000  1.0000
  Br  Br16      1.0  0.97400  0.98600  0.63200  1.0000
  Br  Br17      1.0  0.13600  0.37000  0.74100  1.0000
  Br  Br18      1.0  0.89800  0.63300  0.74200  1.0000
  Br  Br19      1.0  0.36700  0.10200  0.75800  1.0000
  Br  Br20      1.0  0.63000  0.86400  0.75900  1.0000
  Br  Br21      1.0  0.01400  0.02560  0.86800  1.0000
  Br  Br22      1.0  0.26800  0.75500  0.87000  1.0000
  Br  Br23      1.0  0.49300  0.50600  0.88400  1.0000
  Br  Br24      1.0  0.38300  0.14300  0.99700  1.0000
  C   C1        1.0  0.85900  0.66300  0.02390  1.0000
  C   C2        1.0  0.60000  0.91400  0.03180  1.0000
  C   C3        1.0  0.22700  0.78400  0.09450  1.0000
  C   C4        1.0  0.28700  0.72700  0.15000  1.0000
  C   C5        1.0  0.27300  0.71300  0.35000  1.0000
  C   C6        1.0  0.21600  0.77300  0.40500  1.0000
  C   C7        1.0  0.08630  0.40000  0.46800  1.0000
  C   C8        1.0  0.33700  0.14100  0.47600  1.0000
  C   C9        1.0  0.14100  0.33700  0.52400  1.0000
  C   C10       1.0  0.40000  0.08630  0.53200  1.0000
  C   C11       1.0  0.77300  0.21600  0.59500  1.0000
  C   C12       1.0  0.71300  0.27300  0.65000  1.0000
  C   C13       1.0  0.72700  0.28700  0.85000  1.0000
  C   C14       1.0  0.78400  0.22700  0.90500  1.0000
  C   C15       1.0  0.91400  0.60000  0.96800  1.0000
  C   C16       1.0  0.66300  0.85900  0.97600  1.0000
  La  La1       1.0  0.85900  0.11500  0.00283  1.0000
  La  La2       1.0  0.39100  0.67700  0.01660  1.0000
  La  La3       1.0  0.01630  0.55000  0.10400  1.0000
  La  La4       1.0  0.74800  0.77500  0.10500  1.0000
  La  La5       1.0  0.47900  0.98800  0.12500  1.0000
  La  La6       1.0  0.37600  0.62400  0.25000  1.0000
  La  La7       1.0  0.16400  0.83600  0.25000  1.0000
  La  La8       1.0  0.01200  0.52100  0.37500  1.0000
  La  La9       1.0  0.22500  0.25200  0.39500  1.0000
  La  La10      1.0  0.45000  0.98400  0.39600  1.0000
  La  La11      1.0  0.32300  0.60900  0.48300  1.0000
  La  La12      1.0  0.88500  0.14100  0.49700  1.0000
  La  La13      1.0  0.14100  0.88500  0.50300  1.0000
  La  La14      1.0  0.60900  0.32300  0.51700  1.0000
  La  La15      1.0  0.98400  0.45000  0.60400  1.0000
  La  La16      1.0  0.25200  0.22500  0.60500  1.0000
  La  La17      1.0  0.52100  0.01200  0.62500  1.0000
  La  La18      1.0  0.83600  0.16400  0.75000  1.0000
  La  La19      1.0  0.62400  0.37600  0.75000  1.0000
  La  La20      1.0  0.98800  0.47900  0.87500  1.0000
  La  La21      1.0  0.77500  0.74800  0.89500  1.0000
  La  La22      1.0  0.55000  0.01630  0.89600  1.0000
  La  La23      1.0  0.67700  0.39100  0.98300  1.0000
  La  La24      1.0  0.11500  0.85900  0.99700  1.0000
