data_image0
_chemical_formula_structural       Al2H28N2O28Se2
_chemical_formula_sum              "Al2 H28 N2 O28 Se2"
_cell_length_a       5.87181
_cell_length_b       7.67827
_cell_length_c       11.9696
_cell_angle_alpha    91.0992
_cell_angle_beta     102.589
_cell_angle_gamma    96.1524

_space_group_name_H-M_alt    "P 1"
_space_group_IT_number       1

loop_
  _space_group_symop_operation_xyz
  'x, y, z'

loop_
  _atom_site_type_symbol
  _atom_site_label
  _atom_site_symmetry_multiplicity
  _atom_site_fract_x
  _atom_site_fract_y
  _atom_site_fract_z
  _atom_site_occupancy
  Al  Al1       1.0  0.59100  0.25200  0.21700  1.0000
  Al  Al2       1.0  0.40900  0.74800  0.78300  1.0000
  H   H1        1.0  0.34600  0.19000  0.01650  1.0000
  H   H2        1.0  0.84300  0.26300  0.06900  1.0000
  H   H3        1.0  0.36300  0.00038  0.07690  1.0000
  H   H4        1.0  0.59700  0.55400  0.12600  1.0000
  H   H5        1.0  0.36500  0.51600  0.18100  1.0000
  H   H6        1.0  0.97600  0.39100  0.18200  1.0000
  H   H7        1.0  0.21600  0.10500  0.25500  1.0000
  H   H8        1.0  0.81600  0.98700  0.25700  1.0000
  H   H9        1.0  0.29900  0.27000  0.35000  1.0000
  H   H10       1.0  0.67000  0.99900  0.35500  1.0000
  H   H11       1.0  0.71800  0.50300  0.35700  1.0000
  H   H12       1.0  0.17400  0.65700  0.38300  1.0000
  H   H13       1.0  0.19300  0.85400  0.42500  1.0000
  H   H14       1.0  0.78500  0.33000  0.42900  1.0000
  H   H15       1.0  0.21500  0.67000  0.57100  1.0000
  H   H16       1.0  0.80700  0.14600  0.57500  1.0000
  H   H17       1.0  0.82600  0.34300  0.61700  1.0000
  H   H18       1.0  0.28200  0.49700  0.64300  1.0000
  H   H19       1.0  0.33000  0.00123  0.64500  1.0000
  H   H20       1.0  0.70100  0.73000  0.65000  1.0000
  H   H21       1.0  0.18400  0.01310  0.74300  1.0000
  H   H22       1.0  0.78400  0.89500  0.74500  1.0000
  H   H23       1.0  0.02360  0.60900  0.81800  1.0000
  H   H24       1.0  0.63500  0.48400  0.81900  1.0000
  H   H25       1.0  0.40300  0.44600  0.87400  1.0000
  H   H26       1.0  0.63700  0.00000  0.92300  1.0000
  H   H27       1.0  0.15700  0.73700  0.93100  1.0000
  H   H28       1.0  0.65400  0.81000  0.98400  1.0000
  N   N1        1.0  0.69300  0.75100  0.45900  1.0000
  N   N2        1.0  0.30700  0.24900  0.54100  1.0000
  O   O1        1.0  0.22300  0.80400  0.06320  1.0000
  O   O2        1.0  0.77500  0.69100  0.07970  1.0000
  O   O3        1.0  0.43600  0.12500  0.08040  1.0000
  O   O4        1.0  0.48700  0.46100  0.15100  1.0000
  O   O5        1.0  0.85900  0.28700  0.15300  1.0000
  O   O6        1.0  0.14300  0.58000  0.22900  1.0000
  O   O7        1.0  0.05760  0.92100  0.24400  1.0000
  O   O8        1.0  0.31600  0.22000  0.27300  1.0000
  O   O9        1.0  0.68000  0.03950  0.27700  1.0000
  O   O10       1.0  0.75900  0.38000  0.34900  1.0000
  O   O11       1.0  0.65200  0.69700  0.35600  1.0000
  O   O12       1.0  0.18400  0.73400  0.45000  1.0000
  O   O13       1.0  0.27900  0.35600  0.46200  1.0000
  O   O14       1.0  0.70300  0.91400  0.48200  1.0000
  O   O15       1.0  0.29700  0.08570  0.51800  1.0000
  O   O16       1.0  0.72100  0.64400  0.53800  1.0000
  O   O17       1.0  0.81600  0.26600  0.55000  1.0000
  O   O18       1.0  0.34800  0.30300  0.64400  1.0000
  O   O19       1.0  0.24100  0.62000  0.65100  1.0000
  O   O20       1.0  0.32000  0.96000  0.72300  1.0000
  O   O21       1.0  0.68400  0.78000  0.72700  1.0000
  O   O22       1.0  0.94200  0.07930  0.75600  1.0000
  O   O23       1.0  0.85700  0.42000  0.77100  1.0000
  O   O24       1.0  0.14100  0.71300  0.84700  1.0000
  O   O25       1.0  0.51300  0.53900  0.84900  1.0000
  O   O26       1.0  0.56400  0.87500  0.92000  1.0000
  O   O27       1.0  0.22500  0.30900  0.92000  1.0000
  O   O28       1.0  0.77700  0.19600  0.93700  1.0000
  Se  Se1       1.0  0.04890  0.75100  0.15300  1.0000
  Se  Se2       1.0  0.95100  0.24900  0.84700  1.0000
