data_image0
_chemical_formula_structural       Ge2H4Ho2O8
_chemical_formula_sum              "Ge2 H4 Ho2 O8"
_cell_length_a       6.80671
_cell_length_b       6.18343
_cell_length_c       4.94961
_cell_angle_alpha    90
_cell_angle_beta     121.494
_cell_angle_gamma    90

_space_group_name_H-M_alt    "P 1"
_space_group_IT_number       1

loop_
  _space_group_symop_operation_xyz
  'x, y, z'

loop_
  _atom_site_type_symbol
  _atom_site_label
  _atom_site_symmetry_multiplicity
  _atom_site_fract_x
  _atom_site_fract_y
  _atom_site_fract_z
  _atom_site_occupancy
  Ge  Ge1       1.0  0.70800  0.25000  0.40700  1.0000
  Ge  Ge2       1.0  0.29200  0.75000  0.59300  1.0000
  H   H1        1.0  0.51900  0.75000  0.18400  1.0000
  H   H2        1.0  0.00000  0.00000  0.50000  1.0000
  H   H3        1.0  0.00000  0.50000  0.50000  1.0000
  H   H4        1.0  0.48100  0.25000  0.81600  1.0000
  Ho  Ho1       1.0  0.17400  0.25000  0.12400  1.0000
  Ho  Ho2       1.0  0.82600  0.75000  0.87600  1.0000
  O   O1        1.0  0.56700  0.75000  0.01600  1.0000
  O   O2        1.0  0.06490  0.52500  0.31700  1.0000
  O   O3        1.0  0.06490  0.97500  0.31700  1.0000
  O   O4        1.0  0.47800  0.75000  0.44300  1.0000
  O   O5        1.0  0.52200  0.25000  0.55700  1.0000
  O   O6        1.0  0.93500  0.02460  0.68300  1.0000
  O   O7        1.0  0.93500  0.47500  0.68300  1.0000
  O   O8        1.0  0.43300  0.25000  0.98400  1.0000
