data_image0
_chemical_formula_structural       Ge8K16O32Zn8
_chemical_formula_sum              "Ge8 K16 O32 Zn8"
_cell_length_a       11.0441
_cell_length_b       5.50383
_cell_length_c       15.8833
_cell_angle_alpha    90
_cell_angle_beta     90
_cell_angle_gamma    90

_space_group_name_H-M_alt    "P 1"
_space_group_IT_number       1

loop_
  _space_group_symop_operation_xyz
  'x, y, z'

loop_
  _atom_site_type_symbol
  _atom_site_label
  _atom_site_symmetry_multiplicity
  _atom_site_fract_x
  _atom_site_fract_y
  _atom_site_fract_z
  _atom_site_occupancy
  Ge  Ge1       1.0  0.73600  0.46200  0.06500  1.0000
  Ge  Ge2       1.0  0.23600  0.53800  0.06500  1.0000
  Ge  Ge3       1.0  0.49100  0.01410  0.31100  1.0000
  Ge  Ge4       1.0  0.99100  0.98600  0.31100  1.0000
  Ge  Ge5       1.0  0.76400  0.46200  0.56500  1.0000
  Ge  Ge6       1.0  0.26400  0.53800  0.56500  1.0000
  Ge  Ge7       1.0  0.00855  0.01410  0.81100  1.0000
  Ge  Ge8       1.0  0.50900  0.98600  0.81100  1.0000
  K   K1        1.0  0.47900  0.00427  0.06140  1.0000
  K   K2        1.0  0.97900  0.99600  0.06140  1.0000
  K   K3        1.0  0.23700  0.05690  0.18100  1.0000
  K   K4        1.0  0.73700  0.94300  0.18100  1.0000
  K   K5        1.0  0.73200  0.44300  0.31600  1.0000
  K   K6        1.0  0.23200  0.55700  0.31600  1.0000
  K   K7        1.0  0.98000  0.49300  0.43900  1.0000
  K   K8        1.0  0.48000  0.50700  0.43900  1.0000
  K   K9        1.0  0.02080  0.00427  0.56100  1.0000
  K   K10       1.0  0.52100  0.99600  0.56100  1.0000
  K   K11       1.0  0.26300  0.05690  0.68100  1.0000
  K   K12       1.0  0.76300  0.94300  0.68100  1.0000
  K   K13       1.0  0.76800  0.44300  0.81600  1.0000
  K   K14       1.0  0.26800  0.55700  0.81600  1.0000
  K   K15       1.0  0.52000  0.49300  0.93900  1.0000
  K   K16       1.0  0.01960  0.50700  0.93900  1.0000
  O   O1        1.0  0.69300  0.18000  0.01980  1.0000
  O   O2        1.0  0.19300  0.82000  0.01980  1.0000
  O   O3        1.0  0.09930  0.39100  0.09600  1.0000
  O   O4        1.0  0.59900  0.60900  0.09600  1.0000
  O   O5        1.0  0.82400  0.40900  0.15600  1.0000
  O   O6        1.0  0.32400  0.59100  0.15600  1.0000
  O   O7        1.0  0.53000  0.17000  0.21600  1.0000
  O   O8        1.0  0.03000  0.83000  0.21600  1.0000
  O   O9        1.0  0.01580  0.30100  0.29300  1.0000
  O   O10       1.0  0.51600  0.69900  0.29300  1.0000
  O   O11       1.0  0.33900  0.09140  0.33400  1.0000
  O   O12       1.0  0.83900  0.90900  0.33400  1.0000
  O   O13       1.0  0.58400  0.10200  0.39700  1.0000
  O   O14       1.0  0.08350  0.89800  0.39700  1.0000
  O   O15       1.0  0.19100  0.34800  0.49100  1.0000
  O   O16       1.0  0.69100  0.65200  0.49100  1.0000
  O   O17       1.0  0.80700  0.18000  0.52000  1.0000
  O   O18       1.0  0.30700  0.82000  0.52000  1.0000
  O   O19       1.0  0.40100  0.39100  0.59600  1.0000
  O   O20       1.0  0.90100  0.60900  0.59600  1.0000
  O   O21       1.0  0.67600  0.40900  0.65600  1.0000
  O   O22       1.0  0.17600  0.59100  0.65600  1.0000
  O   O23       1.0  0.97000  0.17000  0.71600  1.0000
  O   O24       1.0  0.47000  0.83000  0.71600  1.0000
  O   O25       1.0  0.48400  0.30100  0.79300  1.0000
  O   O26       1.0  0.98400  0.69900  0.79300  1.0000
  O   O27       1.0  0.16100  0.09140  0.83400  1.0000
  O   O28       1.0  0.66100  0.90900  0.83400  1.0000
  O   O29       1.0  0.91600  0.10200  0.89700  1.0000
  O   O30       1.0  0.41600  0.89800  0.89700  1.0000
  O   O31       1.0  0.30900  0.34800  0.99100  1.0000
  O   O32       1.0  0.80900  0.65200  0.99100  1.0000
  Zn  Zn1       1.0  0.99200  0.49000  0.18900  1.0000
  Zn  Zn2       1.0  0.49200  0.51000  0.18900  1.0000
  Zn  Zn3       1.0  0.24000  0.04090  0.43500  1.0000
  Zn  Zn4       1.0  0.74000  0.95900  0.43500  1.0000
  Zn  Zn5       1.0  0.50800  0.49000  0.68900  1.0000
  Zn  Zn6       1.0  0.00837  0.51000  0.68900  1.0000
  Zn  Zn7       1.0  0.26000  0.04090  0.93500  1.0000
  Zn  Zn8       1.0  0.76000  0.95900  0.93500  1.0000
