data_image0
_chemical_formula_structural       As8Cs6H4O42V8
_chemical_formula_sum              "As8 Cs6 H4 O42 V8"
_cell_length_a       9.46561
_cell_length_b       9.46561
_cell_length_c       12.7745
_cell_angle_alpha    99.873
_cell_angle_beta     99.873
_cell_angle_gamma    61.3078

_space_group_name_H-M_alt    "P 1"
_space_group_IT_number       1

loop_
  _space_group_symop_operation_xyz
  'x, y, z'

loop_
  _atom_site_type_symbol
  _atom_site_label
  _atom_site_symmetry_multiplicity
  _atom_site_fract_x
  _atom_site_fract_y
  _atom_site_fract_z
  _atom_site_occupancy
  As  As1       1.0  0.68800  0.23900  0.01510  1.0000
  As  As2       1.0  0.96800  0.70700  0.02640  1.0000
  As  As3       1.0  0.29300  0.03190  0.47400  1.0000
  As  As4       1.0  0.76100  0.31200  0.48500  1.0000
  As  As5       1.0  0.23900  0.68800  0.51500  1.0000
  As  As6       1.0  0.70700  0.96800  0.52600  1.0000
  As  As7       1.0  0.03190  0.29300  0.97400  1.0000
  As  As8       1.0  0.31200  0.76100  0.98500  1.0000
  Cs  Cs1       1.0  0.49000  0.03790  0.17800  1.0000
  Cs  Cs2       1.0  0.45400  0.54600  0.25000  1.0000
  Cs  Cs3       1.0  0.96200  0.51000  0.32200  1.0000
  Cs  Cs4       1.0  0.03790  0.49000  0.67800  1.0000
  Cs  Cs5       1.0  0.54600  0.45400  0.75000  1.0000
  Cs  Cs6       1.0  0.51000  0.96200  0.82200  1.0000
  H   H1        1.0  0.06220  0.76700  0.19300  1.0000
  H   H2        1.0  0.23300  0.93800  0.30700  1.0000
  H   H3        1.0  0.76700  0.06220  0.69300  1.0000
  H   H4        1.0  0.93800  0.23300  0.80700  1.0000
  O   O1        1.0  0.98700  0.87500  0.01160  1.0000
  O   O2        1.0  0.76600  0.76000  0.01440  1.0000
  O   O3        1.0  0.33500  0.58200  0.01560  1.0000
  O   O4        1.0  0.50400  0.26200  0.03840  1.0000
  O   O5        1.0  0.93500  0.45200  0.06520  1.0000
  O   O6        1.0  0.26600  0.88700  0.10200  1.0000
  O   O7        1.0  0.80900  0.17300  0.13100  1.0000
  O   O8        1.0  0.06620  0.66300  0.15500  1.0000
  O   O9        1.0  0.65400  0.65600  0.17200  1.0000
  O   O10       1.0  0.10500  0.18500  0.20000  1.0000
  O   O11       1.0  0.05170  0.94800  0.25000  1.0000
  O   O12       1.0  0.81500  0.89500  0.30000  1.0000
  O   O13       1.0  0.34400  0.34600  0.32800  1.0000
  O   O14       1.0  0.33700  0.93400  0.34500  1.0000
  O   O15       1.0  0.82700  0.19100  0.36900  1.0000
  O   O16       1.0  0.11300  0.73400  0.39800  1.0000
  O   O17       1.0  0.54800  0.06500  0.43500  1.0000
  O   O18       1.0  0.73800  0.49600  0.46200  1.0000
  O   O19       1.0  0.41800  0.66500  0.48400  1.0000
  O   O20       1.0  0.24000  0.23400  0.48600  1.0000
  O   O21       1.0  0.12500  0.01310  0.48800  1.0000
  O   O22       1.0  0.87500  0.98700  0.51200  1.0000
  O   O23       1.0  0.76000  0.76600  0.51400  1.0000
  O   O24       1.0  0.58200  0.33500  0.51600  1.0000
  O   O25       1.0  0.26200  0.50400  0.53800  1.0000
  O   O26       1.0  0.45200  0.93500  0.56500  1.0000
  O   O27       1.0  0.88700  0.26600  0.60200  1.0000
  O   O28       1.0  0.17300  0.80900  0.63100  1.0000
  O   O29       1.0  0.66300  0.06620  0.65500  1.0000
  O   O30       1.0  0.65600  0.65400  0.67200  1.0000
  O   O31       1.0  0.18500  0.10500  0.70000  1.0000
  O   O32       1.0  0.94800  0.05170  0.75000  1.0000
  O   O33       1.0  0.89500  0.81500  0.80000  1.0000
  O   O34       1.0  0.34600  0.34400  0.82800  1.0000
  O   O35       1.0  0.93400  0.33700  0.84500  1.0000
  O   O36       1.0  0.19100  0.82700  0.86900  1.0000
  O   O37       1.0  0.73400  0.11300  0.89800  1.0000
  O   O38       1.0  0.06500  0.54800  0.93500  1.0000
  O   O39       1.0  0.49600  0.73800  0.96200  1.0000
  O   O40       1.0  0.66500  0.41800  0.98400  1.0000
  O   O41       1.0  0.23400  0.24000  0.98600  1.0000
  O   O42       1.0  0.01310  0.12500  0.98800  1.0000
  V   V1        1.0  0.69900  0.60400  0.04800  1.0000
  V   V2        1.0  0.04770  0.05270  0.13700  1.0000
  V   V3        1.0  0.94700  0.95200  0.36300  1.0000
  V   V4        1.0  0.39600  0.30100  0.45200  1.0000
  V   V5        1.0  0.60400  0.69900  0.54800  1.0000
  V   V6        1.0  0.05270  0.04770  0.63700  1.0000
  V   V7        1.0  0.95200  0.94700  0.86300  1.0000
  V   V8        1.0  0.30100  0.39600  0.95200  1.0000
