data_image0
_chemical_formula_structural       Na4O44P12U4
_chemical_formula_sum              "Na4 O44 P12 U4"
_cell_length_a       7.0634
_cell_length_b       13.4169
_cell_length_c       9.47901
_cell_angle_alpha    90
_cell_angle_beta     106.074
_cell_angle_gamma    90

_space_group_name_H-M_alt    "P 1"
_space_group_IT_number       1

loop_
  _space_group_symop_operation_xyz
  'x, y, z'

loop_
  _atom_site_type_symbol
  _atom_site_label
  _atom_site_symmetry_multiplicity
  _atom_site_fract_x
  _atom_site_fract_y
  _atom_site_fract_z
  _atom_site_occupancy
  Na  Na1       1.0  0.25000  0.46900  0.07120  1.0000
  Na  Na2       1.0  0.75000  0.96900  0.42900  1.0000
  Na  Na3       1.0  0.25000  0.03120  0.57100  1.0000
  Na  Na4       1.0  0.75000  0.53100  0.92900  1.0000
  O   O1        1.0  0.73400  0.07480  0.00829  1.0000
  O   O2        1.0  0.58200  0.63300  0.05160  1.0000
  O   O3        1.0  0.34200  0.16600  0.06420  1.0000
  O   O4        1.0  0.93700  0.41400  0.07710  1.0000
  O   O5        1.0  0.82400  0.24200  0.12200  1.0000
  O   O6        1.0  0.09360  0.86700  0.16900  1.0000
  O   O7        1.0  0.42200  0.79300  0.18100  1.0000
  O   O8        1.0  0.05040  0.09320  0.21300  1.0000
  O   O9        1.0  0.28600  0.60100  0.23600  1.0000
  O   O10       1.0  0.17800  0.29500  0.24600  1.0000
  O   O11       1.0  0.59300  0.47400  0.24700  1.0000
  O   O12       1.0  0.40700  0.97400  0.25300  1.0000
  O   O13       1.0  0.82200  0.79500  0.25400  1.0000
  O   O14       1.0  0.71400  0.10100  0.26400  1.0000
  O   O15       1.0  0.95000  0.59300  0.28700  1.0000
  O   O16       1.0  0.57800  0.29300  0.31900  1.0000
  O   O17       1.0  0.90600  0.36700  0.33100  1.0000
  O   O18       1.0  0.17600  0.74200  0.37800  1.0000
  O   O19       1.0  0.06290  0.91400  0.42300  1.0000
  O   O20       1.0  0.65800  0.66600  0.43600  1.0000
  O   O21       1.0  0.41800  0.13300  0.44800  1.0000
  O   O22       1.0  0.26600  0.57500  0.49200  1.0000
  O   O23       1.0  0.73400  0.42500  0.50800  1.0000
  O   O24       1.0  0.58200  0.86700  0.55200  1.0000
  O   O25       1.0  0.34200  0.33400  0.56400  1.0000
  O   O26       1.0  0.93700  0.08590  0.57700  1.0000
  O   O27       1.0  0.82400  0.25800  0.62200  1.0000
  O   O28       1.0  0.09360  0.63300  0.66900  1.0000
  O   O29       1.0  0.42200  0.70700  0.68100  1.0000
  O   O30       1.0  0.05040  0.40700  0.71300  1.0000
  O   O31       1.0  0.28600  0.89900  0.73600  1.0000
  O   O32       1.0  0.17800  0.20500  0.74600  1.0000
  O   O33       1.0  0.59300  0.02610  0.74700  1.0000
  O   O34       1.0  0.40700  0.52600  0.75300  1.0000
  O   O35       1.0  0.82200  0.70500  0.75400  1.0000
  O   O36       1.0  0.71400  0.39900  0.76400  1.0000
  O   O37       1.0  0.95000  0.90700  0.78700  1.0000
  O   O38       1.0  0.57800  0.20700  0.81900  1.0000
  O   O39       1.0  0.90600  0.13300  0.83100  1.0000
  O   O40       1.0  0.17600  0.75800  0.87800  1.0000
  O   O41       1.0  0.06290  0.58600  0.92300  1.0000
  O   O42       1.0  0.65800  0.83400  0.93600  1.0000
  O   O43       1.0  0.41800  0.36700  0.94800  1.0000
  O   O44       1.0  0.26600  0.92500  0.99200  1.0000
  P   P1        1.0  0.31200  0.88800  0.15800  1.0000
  P   P2        1.0  0.84000  0.12500  0.16400  1.0000
  P   P3        1.0  0.97200  0.33300  0.18800  1.0000
  P   P4        1.0  0.02790  0.83300  0.31200  1.0000
  P   P5        1.0  0.16000  0.62500  0.33600  1.0000
  P   P6        1.0  0.68800  0.38800  0.34200  1.0000
  P   P7        1.0  0.31200  0.61200  0.65800  1.0000
  P   P8        1.0  0.84000  0.37500  0.66400  1.0000
  P   P9        1.0  0.97200  0.16700  0.68800  1.0000
  P   P10       1.0  0.02790  0.66700  0.81200  1.0000
  P   P11       1.0  0.16000  0.87500  0.83600  1.0000
  P   P12       1.0  0.68800  0.11200  0.84200  1.0000
  U   U1        1.0  0.62100  0.65200  0.24400  1.0000
  U   U2        1.0  0.37900  0.15200  0.25600  1.0000
  U   U3        1.0  0.62100  0.84800  0.74400  1.0000
  U   U4        1.0  0.37900  0.34800  0.75600  1.0000
