data_image0
_chemical_formula_structural       Br24Hg28Sb16
_chemical_formula_sum              "Br24 Hg28 Sb16"
_cell_length_a       13.1107
_cell_length_b       13.1107
_cell_length_c       13.1107
_cell_angle_alpha    90
_cell_angle_beta     90
_cell_angle_gamma    90

_space_group_name_H-M_alt    "P 1"
_space_group_IT_number       1

loop_
  _space_group_symop_operation_xyz
  'x, y, z'

loop_
  _atom_site_type_symbol
  _atom_site_label
  _atom_site_symmetry_multiplicity
  _atom_site_fract_x
  _atom_site_fract_y
  _atom_site_fract_z
  _atom_site_occupancy
  Br  Br1       1.0  0.54700  0.29000  0.04590  1.0000
  Br  Br2       1.0  0.95300  0.79000  0.04590  1.0000
  Br  Br3       1.0  0.29000  0.45400  0.04690  1.0000
  Br  Br4       1.0  0.21000  0.95400  0.04690  1.0000
  Br  Br5       1.0  0.95400  0.04690  0.21000  1.0000
  Br  Br6       1.0  0.54600  0.54700  0.21000  1.0000
  Br  Br7       1.0  0.45400  0.04690  0.29000  1.0000
  Br  Br8       1.0  0.04590  0.54700  0.29000  1.0000
  Br  Br9       1.0  0.79000  0.45400  0.45300  1.0000
  Br  Br10      1.0  0.71000  0.95400  0.45300  1.0000
  Br  Br11      1.0  0.04690  0.29000  0.45400  1.0000
  Br  Br12      1.0  0.45300  0.79000  0.45400  1.0000
  Br  Br13      1.0  0.54700  0.21000  0.54600  1.0000
  Br  Br14      1.0  0.95300  0.71000  0.54600  1.0000
  Br  Br15      1.0  0.29000  0.04590  0.54700  1.0000
  Br  Br16      1.0  0.21000  0.54600  0.54700  1.0000
  Br  Br17      1.0  0.95400  0.45300  0.71000  1.0000
  Br  Br18      1.0  0.54600  0.95300  0.71000  1.0000
  Br  Br19      1.0  0.45400  0.45300  0.79000  1.0000
  Br  Br20      1.0  0.04590  0.95300  0.79000  1.0000
  Br  Br21      1.0  0.79000  0.04590  0.95300  1.0000
  Br  Br22      1.0  0.71000  0.54600  0.95300  1.0000
  Br  Br23      1.0  0.04690  0.21000  0.95400  1.0000
  Br  Br24      1.0  0.45300  0.71000  0.95400  1.0000
  Hg  Hg1       1.0  0.00000  0.00000  0.00000  1.0000
  Hg  Hg2       1.0  0.50000  0.50000  0.00000  1.0000
  Hg  Hg3       1.0  0.32400  0.22000  0.04610  1.0000
  Hg  Hg4       1.0  0.17600  0.72000  0.04610  1.0000
  Hg  Hg5       1.0  0.72000  0.04610  0.17600  1.0000
  Hg  Hg6       1.0  0.78000  0.54600  0.17600  1.0000
  Hg  Hg7       1.0  0.04610  0.32400  0.22000  1.0000
  Hg  Hg8       1.0  0.45400  0.82400  0.22000  1.0000
  Hg  Hg9       1.0  0.54600  0.32400  0.28000  1.0000
  Hg  Hg10      1.0  0.95400  0.82400  0.28000  1.0000
  Hg  Hg11      1.0  0.22000  0.04610  0.32400  1.0000
  Hg  Hg12      1.0  0.28000  0.54600  0.32400  1.0000
  Hg  Hg13      1.0  0.82400  0.22000  0.45400  1.0000
  Hg  Hg14      1.0  0.67600  0.72000  0.45400  1.0000
  Hg  Hg15      1.0  0.50000  0.00000  0.50000  1.0000
  Hg  Hg16      1.0  0.00000  0.50000  0.50000  1.0000
  Hg  Hg17      1.0  0.32400  0.28000  0.54600  1.0000
  Hg  Hg18      1.0  0.17600  0.78000  0.54600  1.0000
  Hg  Hg19      1.0  0.72000  0.45400  0.67600  1.0000
  Hg  Hg20      1.0  0.78000  0.95400  0.67600  1.0000
  Hg  Hg21      1.0  0.04610  0.17600  0.72000  1.0000
  Hg  Hg22      1.0  0.45400  0.67600  0.72000  1.0000
  Hg  Hg23      1.0  0.54600  0.17600  0.78000  1.0000
  Hg  Hg24      1.0  0.95400  0.67600  0.78000  1.0000
  Hg  Hg25      1.0  0.22000  0.45400  0.82400  1.0000
  Hg  Hg26      1.0  0.28000  0.95400  0.82400  1.0000
  Hg  Hg27      1.0  0.82400  0.28000  0.95400  1.0000
  Hg  Hg28      1.0  0.67600  0.78000  0.95400  1.0000
  Sb  Sb1       1.0  0.85500  0.35500  0.14500  1.0000
  Sb  Sb2       1.0  0.64500  0.85500  0.14500  1.0000
  Sb  Sb3       1.0  0.23100  0.23100  0.23100  1.0000
  Sb  Sb4       1.0  0.26900  0.73100  0.23100  1.0000
  Sb  Sb5       1.0  0.73100  0.23100  0.26900  1.0000
  Sb  Sb6       1.0  0.76900  0.73100  0.26900  1.0000
  Sb  Sb7       1.0  0.35500  0.35500  0.35500  1.0000
  Sb  Sb8       1.0  0.14500  0.85500  0.35500  1.0000
  Sb  Sb9       1.0  0.85500  0.14500  0.64500  1.0000
  Sb  Sb10      1.0  0.64500  0.64500  0.64500  1.0000
  Sb  Sb11      1.0  0.23100  0.26900  0.73100  1.0000
  Sb  Sb12      1.0  0.26900  0.76900  0.73100  1.0000
  Sb  Sb13      1.0  0.73100  0.26900  0.76900  1.0000
  Sb  Sb14      1.0  0.76900  0.76900  0.76900  1.0000
  Sb  Sb15      1.0  0.35500  0.14500  0.85500  1.0000
  Sb  Sb16      1.0  0.14500  0.64500  0.85500  1.0000
