data_image0
_chemical_formula_structural       K4O40P8Rb4Sn8
_chemical_formula_sum              "K4 O40 P8 Rb4 Sn8"
_cell_length_a       13.2378
_cell_length_b       10.7443
_cell_length_c       6.54683
_cell_angle_alpha    90
_cell_angle_beta     90
_cell_angle_gamma    90

_space_group_name_H-M_alt    "P 1"
_space_group_IT_number       1

loop_
  _space_group_symop_operation_xyz
  'x, y, z'

loop_
  _atom_site_type_symbol
  _atom_site_label
  _atom_site_symmetry_multiplicity
  _atom_site_fract_x
  _atom_site_fract_y
  _atom_site_fract_z
  _atom_site_occupancy
  K   K1        1.0  0.62300  0.80400  0.22800  1.0000
  K   K2        1.0  0.12300  0.80400  0.27200  1.0000
  K   K3        1.0  0.87700  0.30400  0.72800  1.0000
  K   K4        1.0  0.37700  0.30400  0.77200  1.0000
  O   O1        1.0  0.77800  0.14700  0.01630  1.0000
  O   O2        1.0  0.01520  0.36600  0.01710  1.0000
  O   O3        1.0  0.25600  0.12400  0.02280  1.0000
  O   O4        1.0  0.24000  0.38200  0.02390  1.0000
  O   O5        1.0  0.99200  0.13700  0.02500  1.0000
  O   O6        1.0  0.75400  0.40100  0.03370  1.0000
  O   O7        1.0  0.39500  0.98000  0.17600  1.0000
  O   O8        1.0  0.60700  0.52800  0.19100  1.0000
  O   O9        1.0  0.41300  0.27700  0.19400  1.0000
  O   O10       1.0  0.59700  0.23500  0.19600  1.0000
  O   O11       1.0  0.09700  0.23500  0.30400  1.0000
  O   O12       1.0  0.91300  0.27700  0.30600  1.0000
  O   O13       1.0  0.10700  0.52800  0.30900  1.0000
  O   O14       1.0  0.89500  0.98000  0.32400  1.0000
  O   O15       1.0  0.25400  0.40100  0.46600  1.0000
  O   O16       1.0  0.49200  0.13700  0.47500  1.0000
  O   O17       1.0  0.74000  0.38200  0.47600  1.0000
  O   O18       1.0  0.75600  0.12400  0.47700  1.0000
  O   O19       1.0  0.51500  0.36600  0.48300  1.0000
  O   O20       1.0  0.27800  0.14700  0.48400  1.0000
  O   O21       1.0  0.72200  0.64700  0.51600  1.0000
  O   O22       1.0  0.48500  0.86600  0.51700  1.0000
  O   O23       1.0  0.24400  0.62400  0.52300  1.0000
  O   O24       1.0  0.26000  0.88200  0.52400  1.0000
  O   O25       1.0  0.50800  0.63700  0.52500  1.0000
  O   O26       1.0  0.74600  0.90100  0.53400  1.0000
  O   O27       1.0  0.10500  0.48000  0.67600  1.0000
  O   O28       1.0  0.89300  0.02820  0.69100  1.0000
  O   O29       1.0  0.08710  0.77700  0.69400  1.0000
  O   O30       1.0  0.90300  0.73500  0.69600  1.0000
  O   O31       1.0  0.40300  0.73500  0.80400  1.0000
  O   O32       1.0  0.58700  0.77700  0.80600  1.0000
  O   O33       1.0  0.39300  0.02820  0.80900  1.0000
  O   O34       1.0  0.60500  0.48000  0.82400  1.0000
  O   O35       1.0  0.24600  0.90100  0.96600  1.0000
  O   O36       1.0  0.00848  0.63700  0.97500  1.0000
  O   O37       1.0  0.76000  0.88200  0.97600  1.0000
  O   O38       1.0  0.74400  0.62400  0.97700  1.0000
  O   O39       1.0  0.98500  0.86600  0.98300  1.0000
  O   O40       1.0  0.22200  0.64700  0.98400  1.0000
  P   P1        1.0  0.67700  0.50700  0.00476  1.0000
  P   P2        1.0  0.00451  0.25300  0.16400  1.0000
  P   P3        1.0  0.50500  0.25300  0.33600  1.0000
  P   P4        1.0  0.17700  0.50700  0.49500  1.0000
  P   P5        1.0  0.82300  0.00741  0.50500  1.0000
  P   P6        1.0  0.49500  0.75300  0.66400  1.0000
  P   P7        1.0  0.99500  0.75300  0.83600  1.0000
  P   P8        1.0  0.32300  0.00741  0.99500  1.0000
  Rb  Rb1       1.0  0.39400  0.57100  0.17800  1.0000
  Rb  Rb2       1.0  0.89400  0.57100  0.32200  1.0000
  Rb  Rb3       1.0  0.10600  0.07060  0.67800  1.0000
  Rb  Rb4       1.0  0.60600  0.07060  0.82200  1.0000
  Sn  Sn1       1.0  0.87400  0.00318  0.01040  1.0000
  Sn  Sn2       1.0  0.25300  0.25900  0.24900  1.0000
  Sn  Sn3       1.0  0.75300  0.25900  0.25100  1.0000
  Sn  Sn4       1.0  0.37400  0.00318  0.49000  1.0000
  Sn  Sn5       1.0  0.62600  0.50300  0.51000  1.0000
  Sn  Sn6       1.0  0.24700  0.75900  0.74900  1.0000
  Sn  Sn7       1.0  0.74700  0.75900  0.75100  1.0000
  Sn  Sn8       1.0  0.12600  0.50300  0.99000  1.0000
