data_image0
_chemical_formula_structural       Ca4H2Li2Mn4O30Si10
_chemical_formula_sum              "Ca4 H2 Li2 Mn4 O30 Si10"
_cell_length_a       7.62492
_cell_length_b       11.6751
_cell_length_c       6.76108
_cell_angle_alpha    92.1159
_cell_angle_beta     94.1353
_cell_angle_gamma    105.821

_space_group_name_H-M_alt    "P 1"
_space_group_IT_number       1

loop_
  _space_group_symop_operation_xyz
  'x, y, z'

loop_
  _atom_site_type_symbol
  _atom_site_label
  _atom_site_symmetry_multiplicity
  _atom_site_fract_x
  _atom_site_fract_y
  _atom_site_fract_z
  _atom_site_occupancy
  Ca  Ca1       1.0  0.80800  0.94000  0.14000  1.0000
  Ca  Ca2       1.0  0.23300  0.52300  0.28900  1.0000
  Ca  Ca3       1.0  0.76700  0.47700  0.71100  1.0000
  Ca  Ca4       1.0  0.19200  0.05980  0.86000  1.0000
  H   H1        1.0  0.91700  0.11400  0.48100  1.0000
  H   H2        1.0  0.08340  0.88600  0.51900  1.0000
  Li  Li1       1.0  0.64800  0.11900  0.33100  1.0000
  Li  Li2       1.0  0.35200  0.88100  0.66900  1.0000
  Mn  Mn1       1.0  0.59500  0.64500  0.05890  1.0000
  Mn  Mn2       1.0  0.04430  0.23600  0.17800  1.0000
  Mn  Mn3       1.0  0.95600  0.76400  0.82200  1.0000
  Mn  Mn4       1.0  0.40500  0.35500  0.94100  1.0000
  O   O1        1.0  0.67700  0.47500  0.03240  1.0000
  O   O2        1.0  0.52600  0.80900  0.06170  1.0000
  O   O3        1.0  0.77000  0.13000  0.08980  1.0000
  O   O4        1.0  0.87700  0.75800  0.12600  1.0000
  O   O5        1.0  0.96600  0.39100  0.15200  1.0000
  O   O6        1.0  0.12100  0.06380  0.18900  1.0000
  O   O7        1.0  0.21300  0.74200  0.24200  1.0000
  O   O8        1.0  0.40800  0.97300  0.24800  1.0000
  O   O9        1.0  0.32500  0.34800  0.25200  1.0000
  O   O10       1.0  0.92900  0.57600  0.34400  1.0000
  O   O11       1.0  0.54400  0.62000  0.35900  1.0000
  O   O12       1.0  0.68500  0.37300  0.38000  1.0000
  O   O13       1.0  0.44000  0.17500  0.42100  1.0000
  O   O14       1.0  0.79200  0.01370  0.45300  1.0000
  O   O15       1.0  0.00443  0.20900  0.49000  1.0000
  O   O16       1.0  0.99600  0.79100  0.51000  1.0000
  O   O17       1.0  0.20800  0.98600  0.54700  1.0000
  O   O18       1.0  0.56000  0.82500  0.57900  1.0000
  O   O19       1.0  0.31500  0.62700  0.62000  1.0000
  O   O20       1.0  0.45600  0.38000  0.64100  1.0000
  O   O21       1.0  0.07050  0.42400  0.65600  1.0000
  O   O22       1.0  0.67500  0.65200  0.74800  1.0000
  O   O23       1.0  0.59200  0.02730  0.75200  1.0000
  O   O24       1.0  0.78700  0.25800  0.75800  1.0000
  O   O25       1.0  0.87900  0.93600  0.81100  1.0000
  O   O26       1.0  0.03410  0.60900  0.84800  1.0000
  O   O27       1.0  0.12300  0.24200  0.87400  1.0000
  O   O28       1.0  0.23000  0.87000  0.91000  1.0000
  O   O29       1.0  0.47400  0.19100  0.93800  1.0000
  O   O30       1.0  0.32300  0.52500  0.96800  1.0000
  Si  Si1       1.0  0.34500  0.84500  0.10700  1.0000
  Si  Si2       1.0  0.80900  0.44900  0.21300  1.0000
  Si  Si3       1.0  0.99800  0.71800  0.30100  1.0000
  Si  Si4       1.0  0.28100  0.05070  0.34900  1.0000
  Si  Si5       1.0  0.46400  0.32100  0.42500  1.0000
  Si  Si6       1.0  0.53600  0.67900  0.57500  1.0000
  Si  Si7       1.0  0.71900  0.94900  0.65100  1.0000
  Si  Si8       1.0  0.00181  0.28200  0.69900  1.0000
  Si  Si9       1.0  0.19100  0.55100  0.78700  1.0000
  Si  Si10      1.0  0.65500  0.15500  0.89300  1.0000
