data_image0
_chemical_formula_structural       K8O40Sb8Si8
_chemical_formula_sum              "K8 O40 Sb8 Si8"
_cell_length_a       12.9967
_cell_length_b       6.46355
_cell_length_c       10.653
_cell_angle_alpha    90
_cell_angle_beta     90
_cell_angle_gamma    90

_space_group_name_H-M_alt    "P 1"
_space_group_IT_number       1

loop_
  _space_group_symop_operation_xyz
  'x, y, z'

loop_
  _atom_site_type_symbol
  _atom_site_label
  _atom_site_symmetry_multiplicity
  _atom_site_fract_x
  _atom_site_fract_y
  _atom_site_fract_z
  _atom_site_occupancy
  K   K1        1.0  0.10700  0.69200  0.06370  1.0000
  K   K2        1.0  0.60700  0.80800  0.06370  1.0000
  K   K3        1.0  0.88400  0.72500  0.30900  1.0000
  K   K4        1.0  0.38400  0.77500  0.30900  1.0000
  K   K5        1.0  0.39300  0.19200  0.56400  1.0000
  K   K6        1.0  0.89300  0.30800  0.56400  1.0000
  K   K7        1.0  0.61600  0.22500  0.80900  1.0000
  K   K8        1.0  0.11600  0.27500  0.80900  1.0000
  O   O1        1.0  0.89200  0.69400  0.03380  1.0000
  O   O2        1.0  0.39200  0.80600  0.03380  1.0000
  O   O3        1.0  0.23700  0.04230  0.11700  1.0000
  O   O4        1.0  0.73700  0.45800  0.11700  1.0000
  O   O5        1.0  0.77500  0.01720  0.13200  1.0000
  O   O6        1.0  0.27500  0.48300  0.13200  1.0000
  O   O7        1.0  0.99100  0.01400  0.13300  1.0000
  O   O8        1.0  0.49100  0.48600  0.13300  1.0000
  O   O9        1.0  0.59900  0.17000  0.23300  1.0000
  O   O10       1.0  0.09880  0.33000  0.23300  1.0000
  O   O11       1.0  0.39800  0.17800  0.26500  1.0000
  O   O12       1.0  0.89800  0.32200  0.26500  1.0000
  O   O13       1.0  0.22800  0.02850  0.37500  1.0000
  O   O14       1.0  0.72800  0.47200  0.37500  1.0000
  O   O15       1.0  0.00669  0.03300  0.37700  1.0000
  O   O16       1.0  0.50700  0.46700  0.37700  1.0000
  O   O17       1.0  0.76200  0.04210  0.38700  1.0000
  O   O18       1.0  0.26200  0.45800  0.38700  1.0000
  O   O19       1.0  0.10500  0.69700  0.47200  1.0000
  O   O20       1.0  0.60500  0.80300  0.47200  1.0000
  O   O21       1.0  0.60800  0.19400  0.53400  1.0000
  O   O22       1.0  0.10800  0.30600  0.53400  1.0000
  O   O23       1.0  0.26300  0.54200  0.61700  1.0000
  O   O24       1.0  0.76300  0.95800  0.61700  1.0000
  O   O25       1.0  0.72500  0.51700  0.63200  1.0000
  O   O26       1.0  0.22500  0.98300  0.63200  1.0000
  O   O27       1.0  0.50900  0.51400  0.63300  1.0000
  O   O28       1.0  0.00929  0.98600  0.63300  1.0000
  O   O29       1.0  0.90100  0.67000  0.73300  1.0000
  O   O30       1.0  0.40100  0.83000  0.73300  1.0000
  O   O31       1.0  0.10200  0.67800  0.76500  1.0000
  O   O32       1.0  0.60200  0.82200  0.76500  1.0000
  O   O33       1.0  0.27200  0.52800  0.87500  1.0000
  O   O34       1.0  0.77200  0.97200  0.87500  1.0000
  O   O35       1.0  0.49300  0.53300  0.87700  1.0000
  O   O36       1.0  0.99300  0.96700  0.87700  1.0000
  O   O37       1.0  0.73800  0.54200  0.88700  1.0000
  O   O38       1.0  0.23800  0.95800  0.88700  1.0000
  O   O39       1.0  0.39500  0.19700  0.97200  1.0000
  O   O40       1.0  0.89500  0.30300  0.97200  1.0000
  Sb  Sb1       1.0  0.88300  0.00021  0.00111  1.0000
  Sb  Sb2       1.0  0.38300  0.50000  0.00111  1.0000
  Sb  Sb3       1.0  0.74700  0.24700  0.25000  1.0000
  Sb  Sb4       1.0  0.24700  0.25300  0.25000  1.0000
  Sb  Sb5       1.0  0.61700  0.50000  0.50100  1.0000
  Sb  Sb6       1.0  0.11700  0.00000  0.50100  1.0000
  Sb  Sb7       1.0  0.75300  0.74700  0.75000  1.0000
  Sb  Sb8       1.0  0.25300  0.75300  0.75000  1.0000
  Si  Si1       1.0  0.31800  0.00351  0.00163  1.0000
  Si  Si2       1.0  0.81800  0.49600  0.00163  1.0000
  Si  Si3       1.0  0.00000  0.17700  0.25000  1.0000
  Si  Si4       1.0  0.50000  0.32300  0.25000  1.0000
  Si  Si5       1.0  0.18200  0.50400  0.50200  1.0000
  Si  Si6       1.0  0.68200  0.99600  0.50200  1.0000
  Si  Si7       1.0  0.50000  0.67700  0.75000  1.0000
  Si  Si8       1.0  0.00000  0.82300  0.75000  1.0000
