data_image0
_chemical_formula_structural       B12H48Na4Zn4
_chemical_formula_sum              "B12 H48 Na4 Zn4"
_cell_length_a       8.41492
_cell_length_b       4.17918
_cell_length_c       18.0437
_cell_angle_alpha    90
_cell_angle_beta     96.3559
_cell_angle_gamma    90

_space_group_name_H-M_alt    "P 1"
_space_group_IT_number       1

loop_
  _space_group_symop_operation_xyz
  'x, y, z'

loop_
  _atom_site_type_symbol
  _atom_site_label
  _atom_site_symmetry_multiplicity
  _atom_site_fract_x
  _atom_site_fract_y
  _atom_site_fract_z
  _atom_site_occupancy
  B   B1        1.0  0.27800  0.54500  0.01360  1.0000
  B   B2        1.0  0.00367  0.23900  0.15100  1.0000
  B   B3        1.0  0.59000  0.62300  0.17900  1.0000
  B   B4        1.0  0.41000  0.12300  0.32100  1.0000
  B   B5        1.0  0.99600  0.73900  0.34900  1.0000
  B   B6        1.0  0.72200  0.04450  0.48600  1.0000
  B   B7        1.0  0.27800  0.95500  0.51400  1.0000
  B   B8        1.0  0.00367  0.26100  0.65100  1.0000
  B   B9        1.0  0.59000  0.87700  0.67900  1.0000
  B   B10       1.0  0.41000  0.37700  0.82100  1.0000
  B   B11       1.0  0.99600  0.76100  0.84900  1.0000
  B   B12       1.0  0.72200  0.45500  0.98600  1.0000
  H   H1        1.0  0.82500  0.63700  0.01960  1.0000
  H   H2        1.0  0.66800  0.24500  0.02630  1.0000
  H   H3        1.0  0.39100  0.38200  0.03680  1.0000
  H   H4        1.0  0.20700  0.68400  0.05890  1.0000
  H   H5        1.0  0.05810  0.14400  0.09530  1.0000
  H   H6        1.0  0.65200  0.78900  0.13200  1.0000
  H   H7        1.0  0.98600  0.53800  0.14700  1.0000
  H   H8        1.0  0.87700  0.09030  0.15600  1.0000
  H   H9        1.0  0.44700  0.65700  0.16500  1.0000
  H   H10       1.0  0.61700  0.33100  0.17400  1.0000
  H   H11       1.0  0.08210  0.19700  0.21000  1.0000
  H   H12       1.0  0.64400  0.72100  0.23900  1.0000
  H   H13       1.0  0.35600  0.22100  0.26100  1.0000
  H   H14       1.0  0.91800  0.69700  0.29000  1.0000
  H   H15       1.0  0.38300  0.83100  0.32600  1.0000
  H   H16       1.0  0.55300  0.15700  0.33500  1.0000
  H   H17       1.0  0.12300  0.59000  0.34400  1.0000
  H   H18       1.0  0.01430  0.03780  0.35300  1.0000
  H   H19       1.0  0.34800  0.28900  0.36800  1.0000
  H   H20       1.0  0.94200  0.64400  0.40500  1.0000
  H   H21       1.0  0.79300  0.18400  0.44100  1.0000
  H   H22       1.0  0.60900  0.88200  0.46300  1.0000
  H   H23       1.0  0.33200  0.74500  0.47400  1.0000
  H   H24       1.0  0.17500  0.13700  0.48000  1.0000
  H   H25       1.0  0.82500  0.86300  0.52000  1.0000
  H   H26       1.0  0.66800  0.25500  0.52600  1.0000
  H   H27       1.0  0.39100  0.11800  0.53700  1.0000
  H   H28       1.0  0.20700  0.81600  0.55900  1.0000
  H   H29       1.0  0.05810  0.35600  0.59500  1.0000
  H   H30       1.0  0.65200  0.71100  0.63200  1.0000
  H   H31       1.0  0.98600  0.96200  0.64700  1.0000
  H   H32       1.0  0.87700  0.41000  0.65600  1.0000
  H   H33       1.0  0.44700  0.84300  0.66500  1.0000
  H   H34       1.0  0.61700  0.16900  0.67400  1.0000
  H   H35       1.0  0.08210  0.30300  0.71000  1.0000
  H   H36       1.0  0.64400  0.77900  0.73900  1.0000
  H   H37       1.0  0.35600  0.27900  0.76100  1.0000
  H   H38       1.0  0.91800  0.80300  0.79000  1.0000
  H   H39       1.0  0.38300  0.66900  0.82600  1.0000
  H   H40       1.0  0.55300  0.34300  0.83500  1.0000
  H   H41       1.0  0.12300  0.91000  0.84400  1.0000
  H   H42       1.0  0.01430  0.46200  0.85300  1.0000
  H   H43       1.0  0.34800  0.21100  0.86800  1.0000
  H   H44       1.0  0.94200  0.85600  0.90500  1.0000
  H   H45       1.0  0.79300  0.31600  0.94100  1.0000
  H   H46       1.0  0.60900  0.61800  0.96300  1.0000
  H   H47       1.0  0.33200  0.75500  0.97400  1.0000
  H   H48       1.0  0.17500  0.36300  0.98000  1.0000
  Na  Na1       1.0  0.31900  0.12900  0.13700  1.0000
  Na  Na2       1.0  0.68100  0.62900  0.36300  1.0000
  Na  Na3       1.0  0.31900  0.37100  0.63700  1.0000
  Na  Na4       1.0  0.68100  0.87100  0.86300  1.0000
  Zn  Zn1       1.0  0.77700  0.45000  0.10800  1.0000
  Zn  Zn2       1.0  0.22300  0.95000  0.39200  1.0000
  Zn  Zn3       1.0  0.77700  0.04970  0.60800  1.0000
  Zn  Zn4       1.0  0.22300  0.55000  0.89200  1.0000
