data_image0
_chemical_formula_structural       C48N24
_chemical_formula_sum              "C48 N24"
_cell_length_a       10.3593
_cell_length_b       10.3593
_cell_length_c       10.3593
_cell_angle_alpha    90
_cell_angle_beta     90
_cell_angle_gamma    90

_space_group_name_H-M_alt    "P 1"
_space_group_IT_number       1

loop_
  _space_group_symop_operation_xyz
  'x, y, z'

loop_
  _atom_site_type_symbol
  _atom_site_label
  _atom_site_symmetry_multiplicity
  _atom_site_fract_x
  _atom_site_fract_y
  _atom_site_fract_z
  _atom_site_occupancy
  C   C1        1.0  0.19300  0.80900  0.00261  1.0000
  C   C2        1.0  0.30700  0.19100  0.50300  1.0000
  C   C3        1.0  0.69300  0.69100  0.99700  1.0000
  C   C4        1.0  0.80700  0.30900  0.49700  1.0000
  C   C5        1.0  0.00261  0.19300  0.80900  1.0000
  C   C6        1.0  0.80900  0.00261  0.19300  1.0000
  C   C7        1.0  0.49700  0.80700  0.30900  1.0000
  C   C8        1.0  0.19100  0.50300  0.30700  1.0000
  C   C9        1.0  0.50300  0.30700  0.19100  1.0000
  C   C10       1.0  0.69100  0.99700  0.69300  1.0000
  C   C11       1.0  0.99700  0.69300  0.69100  1.0000
  C   C12       1.0  0.30900  0.49700  0.80700  1.0000
  C   C13       1.0  0.80700  0.19100  0.99700  1.0000
  C   C14       1.0  0.69300  0.80900  0.49700  1.0000
  C   C15       1.0  0.30700  0.30900  0.00261  1.0000
  C   C16       1.0  0.19300  0.69100  0.50300  1.0000
  C   C17       1.0  0.99700  0.80700  0.19100  1.0000
  C   C18       1.0  0.19100  0.99700  0.80700  1.0000
  C   C19       1.0  0.50300  0.19300  0.69100  1.0000
  C   C20       1.0  0.80900  0.49700  0.69300  1.0000
  C   C21       1.0  0.49700  0.69300  0.80900  1.0000
  C   C22       1.0  0.30900  0.00261  0.30700  1.0000
  C   C23       1.0  0.00261  0.30700  0.30900  1.0000
  C   C24       1.0  0.69100  0.50300  0.19300  1.0000
  C   C25       1.0  0.09550  0.90400  0.00068  1.0000
  C   C26       1.0  0.40500  0.09570  0.50100  1.0000
  C   C27       1.0  0.59500  0.59600  0.99900  1.0000
  C   C28       1.0  0.90500  0.40400  0.49900  1.0000
  C   C29       1.0  0.00068  0.09550  0.90400  1.0000
  C   C30       1.0  0.90400  0.00068  0.09550  1.0000
  C   C31       1.0  0.49900  0.90500  0.40400  1.0000
  C   C32       1.0  0.09570  0.50100  0.40500  1.0000
  C   C33       1.0  0.50100  0.40500  0.09570  1.0000
  C   C34       1.0  0.59600  0.99900  0.59500  1.0000
  C   C35       1.0  0.99900  0.59500  0.59600  1.0000
  C   C36       1.0  0.40400  0.49900  0.90500  1.0000
  C   C37       1.0  0.90500  0.09570  0.99900  1.0000
  C   C38       1.0  0.59500  0.90400  0.49900  1.0000
  C   C39       1.0  0.40500  0.40400  0.00068  1.0000
  C   C40       1.0  0.09550  0.59600  0.50100  1.0000
  C   C41       1.0  0.99900  0.90500  0.09570  1.0000
  C   C42       1.0  0.09570  0.99900  0.90500  1.0000
  C   C43       1.0  0.50100  0.09550  0.59600  1.0000
  C   C44       1.0  0.90400  0.49900  0.59500  1.0000
  C   C45       1.0  0.49900  0.59500  0.90400  1.0000
  C   C46       1.0  0.40400  0.00068  0.40500  1.0000
  C   C47       1.0  0.00068  0.40500  0.40400  1.0000
  C   C48       1.0  0.59600  0.50100  0.09550  1.0000
  N   N1        1.0  0.27500  0.73200  0.00551  1.0000
  N   N2        1.0  0.22500  0.26800  0.50600  1.0000
  N   N3        1.0  0.77500  0.76800  0.99400  1.0000
  N   N4        1.0  0.72500  0.23200  0.49400  1.0000
  N   N5        1.0  0.00551  0.27500  0.73200  1.0000
  N   N6        1.0  0.73200  0.00551  0.27500  1.0000
  N   N7        1.0  0.49400  0.72500  0.23200  1.0000
  N   N8        1.0  0.26800  0.50600  0.22500  1.0000
  N   N9        1.0  0.50600  0.22500  0.26800  1.0000
  N   N10       1.0  0.76800  0.99400  0.77500  1.0000
  N   N11       1.0  0.99400  0.77500  0.76800  1.0000
  N   N12       1.0  0.23200  0.49400  0.72500  1.0000
  N   N13       1.0  0.72500  0.26800  0.99400  1.0000
  N   N14       1.0  0.77500  0.73200  0.49400  1.0000
  N   N15       1.0  0.22500  0.23200  0.00551  1.0000
  N   N16       1.0  0.27500  0.76800  0.50600  1.0000
  N   N17       1.0  0.99400  0.72500  0.26800  1.0000
  N   N18       1.0  0.26800  0.99400  0.72500  1.0000
  N   N19       1.0  0.50600  0.27500  0.76800  1.0000
  N   N20       1.0  0.73200  0.49400  0.77500  1.0000
  N   N21       1.0  0.49400  0.77500  0.73200  1.0000
  N   N22       1.0  0.23200  0.00551  0.22500  1.0000
  N   N23       1.0  0.00551  0.22500  0.23200  1.0000
  N   N24       1.0  0.76800  0.50600  0.27500  1.0000
