data_image0
_chemical_formula_structural       H36I12N12Ni2
_chemical_formula_sum              "H36 I12 N12 Ni2"
_cell_length_a       8.63178
_cell_length_b       10.6748
_cell_length_c       10.6748
_cell_angle_alpha    90.8056
_cell_angle_beta     98.1361
_cell_angle_gamma    81.8639

_space_group_name_H-M_alt    "P 1"
_space_group_IT_number       1

loop_
  _space_group_symop_operation_xyz
  'x, y, z'

loop_
  _atom_site_type_symbol
  _atom_site_label
  _atom_site_symmetry_multiplicity
  _atom_site_fract_x
  _atom_site_fract_y
  _atom_site_fract_z
  _atom_site_occupancy
  H   H1        1.0  0.18300  0.27200  0.00790  1.0000
  H   H2        1.0  0.25400  0.62100  0.05860  1.0000
  H   H3        1.0  0.71200  0.47300  0.05920  1.0000
  H   H4        1.0  0.82600  0.33700  0.08620  1.0000
  H   H5        1.0  0.96700  0.73400  0.10500  1.0000
  H   H6        1.0  0.81600  0.66500  0.13000  1.0000
  H   H7        1.0  0.22500  0.44700  0.20500  1.0000
  H   H8        1.0  0.07910  0.36600  0.21800  1.0000
  H   H9        1.0  0.06470  0.51700  0.25800  1.0000
  H   H10       1.0  0.46700  0.89500  0.26600  1.0000
  H   H11       1.0  0.31700  0.00790  0.27200  1.0000
  H   H12       1.0  0.31600  0.87000  0.33500  1.0000
  H   H13       1.0  0.67400  0.08620  0.33700  1.0000
  H   H14       1.0  0.42100  0.21800  0.36600  1.0000
  H   H15       1.0  0.75400  0.94100  0.37900  1.0000
  H   H16       1.0  0.27500  0.20500  0.44700  1.0000
  H   H17       1.0  0.78800  0.05920  0.47300  1.0000
  H   H18       1.0  0.56500  0.74200  0.48300  1.0000
  H   H19       1.0  0.43500  0.25800  0.51700  1.0000
  H   H20       1.0  0.21200  0.94100  0.52700  1.0000
  H   H21       1.0  0.72500  0.79500  0.55300  1.0000
  H   H22       1.0  0.24600  0.05860  0.62100  1.0000
  H   H23       1.0  0.57900  0.78200  0.63400  1.0000
  H   H24       1.0  0.32600  0.91400  0.66300  1.0000
  H   H25       1.0  0.68400  0.13000  0.66500  1.0000
  H   H26       1.0  0.68300  0.99200  0.72800  1.0000
  H   H27       1.0  0.53300  0.10500  0.73400  1.0000
  H   H28       1.0  0.93500  0.48300  0.74200  1.0000
  H   H29       1.0  0.92100  0.63400  0.78200  1.0000
  H   H30       1.0  0.77500  0.55300  0.79500  1.0000
  H   H31       1.0  0.18400  0.33500  0.87000  1.0000
  H   H32       1.0  0.03320  0.26600  0.89500  1.0000
  H   H33       1.0  0.17400  0.66300  0.91400  1.0000
  H   H34       1.0  0.28800  0.52700  0.94100  1.0000
  H   H35       1.0  0.74600  0.37900  0.94100  1.0000
  H   H36       1.0  0.81700  0.72800  0.99200  1.0000
  I   I1        1.0  0.00000  0.00000  0.00000  1.0000
  I   I2        1.0  0.50000  0.00000  0.00000  1.0000
  I   I3        1.0  0.49900  0.24300  0.13200  1.0000
  I   I4        1.0  0.00144  0.13200  0.24300  1.0000
  I   I5        1.0  0.54700  0.60600  0.24700  1.0000
  I   I6        1.0  0.04670  0.75300  0.39400  1.0000
  I   I7        1.0  0.75000  0.43100  0.43100  1.0000
  I   I8        1.0  0.25000  0.56900  0.56900  1.0000
  I   I9        1.0  0.95300  0.24700  0.60600  1.0000
  I   I10       1.0  0.45300  0.39400  0.75300  1.0000
  I   I11       1.0  0.99900  0.86800  0.75700  1.0000
  I   I12       1.0  0.50100  0.75700  0.86800  1.0000
  N   N1        1.0  0.80000  0.41300  0.02430  1.0000
  N   N2        1.0  0.88900  0.67700  0.06410  1.0000
  N   N3        1.0  0.10300  0.45300  0.19200  1.0000
  N   N4        1.0  0.38900  0.93600  0.32300  1.0000
  N   N5        1.0  0.70000  0.02430  0.41300  1.0000
  N   N6        1.0  0.39700  0.19200  0.45300  1.0000
  N   N7        1.0  0.60300  0.80800  0.54700  1.0000
  N   N8        1.0  0.30000  0.97600  0.58700  1.0000
  N   N9        1.0  0.61100  0.06410  0.67700  1.0000
  N   N10       1.0  0.89700  0.54700  0.80800  1.0000
  N   N11       1.0  0.11100  0.32300  0.93600  1.0000
  N   N12       1.0  0.20000  0.58700  0.97600  1.0000
  Ni  Ni1       1.0  0.00000  0.50000  0.00000  1.0000
  Ni  Ni2       1.0  0.50000  0.00000  0.50000  1.0000
