data_image0
_chemical_formula_structural       Al12H33Th24
_chemical_formula_sum              "Al12 H33 Th24"
_cell_length_a       7.65552
_cell_length_b       7.65552
_cell_length_c       18.9462
_cell_angle_alpha    90
_cell_angle_beta     90
_cell_angle_gamma    90

_space_group_name_H-M_alt    "P 1"
_space_group_IT_number       1

loop_
  _space_group_symop_operation_xyz
  'x, y, z'

loop_
  _atom_site_type_symbol
  _atom_site_label
  _atom_site_symmetry_multiplicity
  _atom_site_fract_x
  _atom_site_fract_y
  _atom_site_fract_z
  _atom_site_occupancy
  Al  Al1       1.0  0.50000  0.00000  0.00000  1.0000
  Al  Al2       1.0  0.00000  0.50000  0.00000  1.0000
  Al  Al3       1.0  0.50000  0.00000  0.16800  1.0000
  Al  Al4       1.0  0.00000  0.50000  0.16800  1.0000
  Al  Al5       1.0  0.50000  0.00000  0.33300  1.0000
  Al  Al6       1.0  0.00000  0.50000  0.33300  1.0000
  Al  Al7       1.0  0.50000  0.00000  0.50000  1.0000
  Al  Al8       1.0  0.00000  0.50000  0.50000  1.0000
  Al  Al9       1.0  0.50000  0.00000  0.66700  1.0000
  Al  Al10      1.0  0.00000  0.50000  0.66700  1.0000
  Al  Al11      1.0  0.50000  0.00000  0.83200  1.0000
  Al  Al12      1.0  0.00000  0.50000  0.83200  1.0000
  H   H1        1.0  0.50000  0.50000  0.00000  1.0000
  H   H2        1.0  0.87100  0.12900  0.03400  1.0000
  H   H3        1.0  0.12900  0.87100  0.03400  1.0000
  H   H4        1.0  0.37300  0.37300  0.12300  1.0000
  H   H5        1.0  0.62700  0.62700  0.12300  1.0000
  H   H6        1.0  0.86700  0.13300  0.13500  1.0000
  H   H7        1.0  0.13300  0.86700  0.13500  1.0000
  H   H8        1.0  0.12900  0.12900  0.20900  1.0000
  H   H9        1.0  0.87100  0.87100  0.20900  1.0000
  H   H10       1.0  0.62900  0.37100  0.29200  1.0000
  H   H11       1.0  0.37100  0.62900  0.29200  1.0000
  H   H12       1.0  0.36900  0.36900  0.36700  1.0000
  H   H13       1.0  0.63100  0.63100  0.36700  1.0000
  H   H14       1.0  0.87200  0.12800  0.37800  1.0000
  H   H15       1.0  0.12800  0.87200  0.37800  1.0000
  H   H16       1.0  0.37100  0.37100  0.46600  1.0000
  H   H17       1.0  0.62900  0.62900  0.46600  1.0000
  H   H18       1.0  0.62900  0.37100  0.53400  1.0000
  H   H19       1.0  0.37100  0.62900  0.53400  1.0000
  H   H20       1.0  0.12800  0.12800  0.62200  1.0000
  H   H21       1.0  0.87200  0.87200  0.62200  1.0000
  H   H22       1.0  0.63100  0.36900  0.63300  1.0000
  H   H23       1.0  0.36900  0.63100  0.63300  1.0000
  H   H24       1.0  0.37100  0.37100  0.70800  1.0000
  H   H25       1.0  0.62900  0.62900  0.70800  1.0000
  H   H26       1.0  0.87100  0.12900  0.79100  1.0000
  H   H27       1.0  0.12900  0.87100  0.79100  1.0000
  H   H28       1.0  0.13300  0.13300  0.86500  1.0000
  H   H29       1.0  0.86700  0.86700  0.86500  1.0000
  H   H30       1.0  0.62700  0.37300  0.87700  1.0000
  H   H31       1.0  0.37300  0.62700  0.87700  1.0000
  H   H32       1.0  0.12900  0.12900  0.96600  1.0000
  H   H33       1.0  0.87100  0.87100  0.96600  1.0000
  Th  Th1       1.0  0.66800  0.33200  0.08310  1.0000
  Th  Th2       1.0  0.33200  0.66800  0.08310  1.0000
  Th  Th3       1.0  0.16100  0.16100  0.08440  1.0000
  Th  Th4       1.0  0.83900  0.83900  0.08440  1.0000
  Th  Th5       1.0  0.33700  0.33700  0.24900  1.0000
  Th  Th6       1.0  0.66300  0.66300  0.24900  1.0000
  Th  Th7       1.0  0.83800  0.16200  0.25300  1.0000
  Th  Th8       1.0  0.16200  0.83800  0.25300  1.0000
  Th  Th9       1.0  0.66100  0.33900  0.41600  1.0000
  Th  Th10      1.0  0.33900  0.66100  0.41600  1.0000
  Th  Th11      1.0  0.16600  0.16600  0.41700  1.0000
  Th  Th12      1.0  0.83400  0.83400  0.41700  1.0000
  Th  Th13      1.0  0.83400  0.16600  0.58300  1.0000
  Th  Th14      1.0  0.16600  0.83400  0.58300  1.0000
  Th  Th15      1.0  0.33900  0.33900  0.58400  1.0000
  Th  Th16      1.0  0.66100  0.66100  0.58400  1.0000
  Th  Th17      1.0  0.16200  0.16200  0.74700  1.0000
  Th  Th18      1.0  0.83800  0.83800  0.74700  1.0000
  Th  Th19      1.0  0.66300  0.33700  0.75100  1.0000
  Th  Th20      1.0  0.33700  0.66300  0.75100  1.0000
  Th  Th21      1.0  0.83900  0.16100  0.91600  1.0000
  Th  Th22      1.0  0.16100  0.83900  0.91600  1.0000
  Th  Th23      1.0  0.33200  0.33200  0.91700  1.0000
  Th  Th24      1.0  0.66800  0.66800  0.91700  1.0000
