data_image0
_chemical_formula_structural       B2O40P10Sr12
_chemical_formula_sum              "B2 O40 P10 Sr12"
_cell_length_a       9.722
_cell_length_b       9.722
_cell_length_c       11.7089
_cell_angle_alpha    114.529
_cell_angle_beta     114.529
_cell_angle_gamma    90

_space_group_name_H-M_alt    "P 1"
_space_group_IT_number       1

loop_
  _space_group_symop_operation_xyz
  'x, y, z'

loop_
  _atom_site_type_symbol
  _atom_site_label
  _atom_site_symmetry_multiplicity
  _atom_site_fract_x
  _atom_site_fract_y
  _atom_site_fract_z
  _atom_site_occupancy
  B   B1        1.0  0.75000  0.25000  0.50000  1.0000
  B   B2        1.0  0.25000  0.75000  0.50000  1.0000
  O   O1        1.0  0.91300  0.01380  0.08820  1.0000
  O   O2        1.0  0.17600  0.07440  0.08820  1.0000
  O   O3        1.0  0.67600  0.51400  0.08820  1.0000
  O   O4        1.0  0.41300  0.57400  0.08820  1.0000
  O   O5        1.0  0.45600  0.33300  0.21000  1.0000
  O   O6        1.0  0.95600  0.37700  0.21000  1.0000
  O   O7        1.0  0.25400  0.83300  0.21000  1.0000
  O   O8        1.0  0.75400  0.87700  0.21000  1.0000
  O   O9        1.0  0.71300  0.25300  0.22700  1.0000
  O   O10       1.0  0.21300  0.47400  0.22700  1.0000
  O   O11       1.0  0.01410  0.75300  0.22700  1.0000
  O   O12       1.0  0.51400  0.97400  0.22700  1.0000
  O   O13       1.0  0.18200  0.02960  0.38700  1.0000
  O   O14       1.0  0.20500  0.35700  0.38700  1.0000
  O   O15       1.0  0.70500  0.53000  0.38700  1.0000
  O   O16       1.0  0.68200  0.85700  0.38700  1.0000
  O   O17       1.0  0.79000  0.11000  0.41900  1.0000
  O   O18       1.0  0.62900  0.30900  0.41900  1.0000
  O   O19       1.0  0.12900  0.61000  0.41900  1.0000
  O   O20       1.0  0.29000  0.80900  0.41900  1.0000
  O   O21       1.0  0.69100  0.21000  0.58100  1.0000
  O   O22       1.0  0.89000  0.37100  0.58100  1.0000
  O   O23       1.0  0.39000  0.71000  0.58100  1.0000
  O   O24       1.0  0.19100  0.87100  0.58100  1.0000
  O   O25       1.0  0.14300  0.29500  0.61300  1.0000
  O   O26       1.0  0.47000  0.31800  0.61300  1.0000
  O   O27       1.0  0.97000  0.79500  0.61300  1.0000
  O   O28       1.0  0.64300  0.81800  0.61300  1.0000
  O   O29       1.0  0.02610  0.28700  0.77300  1.0000
  O   O30       1.0  0.74700  0.48600  0.77300  1.0000
  O   O31       1.0  0.24700  0.78700  0.77300  1.0000
  O   O32       1.0  0.52600  0.98600  0.77300  1.0000
  O   O33       1.0  0.16700  0.04400  0.79000  1.0000
  O   O34       1.0  0.66700  0.24600  0.79000  1.0000
  O   O35       1.0  0.12300  0.54400  0.79000  1.0000
  O   O36       1.0  0.62300  0.74600  0.79000  1.0000
  O   O37       1.0  0.92600  0.08750  0.91200  1.0000
  O   O38       1.0  0.42600  0.32400  0.91200  1.0000
  O   O39       1.0  0.48600  0.58700  0.91200  1.0000
  O   O40       1.0  0.98600  0.82400  0.91200  1.0000
  P   P1        1.0  0.00000  0.00000  0.00000  1.0000
  P   P2        1.0  0.50000  0.50000  0.00000  1.0000
  P   P3        1.0  0.62800  0.35500  0.30100  1.0000
  P   P4        1.0  0.12800  0.44600  0.30100  1.0000
  P   P5        1.0  0.17300  0.85500  0.30100  1.0000
  P   P6        1.0  0.67300  0.94600  0.30100  1.0000
  P   P7        1.0  0.64500  0.32700  0.69900  1.0000
  P   P8        1.0  0.05400  0.37200  0.69900  1.0000
  P   P9        1.0  0.55400  0.82700  0.69900  1.0000
  P   P10       1.0  0.14500  0.87200  0.69900  1.0000
  Sr  Sr1       1.0  0.71800  0.21800  0.00000  1.0000
  Sr  Sr2       1.0  0.21800  0.28200  0.00000  1.0000
  Sr  Sr3       1.0  0.78200  0.71800  0.00000  1.0000
  Sr  Sr4       1.0  0.28200  0.78200  0.00000  1.0000
  Sr  Sr5       1.0  0.36400  0.15800  0.33100  1.0000
  Sr  Sr6       1.0  0.96600  0.17200  0.33100  1.0000
  Sr  Sr7       1.0  0.46600  0.65800  0.33100  1.0000
  Sr  Sr8       1.0  0.86400  0.67200  0.33100  1.0000
  Sr  Sr9       1.0  0.84200  0.03360  0.66900  1.0000
  Sr  Sr10      1.0  0.34200  0.13600  0.66900  1.0000
  Sr  Sr11      1.0  0.32800  0.53400  0.66900  1.0000
  Sr  Sr12      1.0  0.82800  0.63600  0.66900  1.0000
