data_image0
_chemical_formula_structural       B10Ga2H16K4O28
_chemical_formula_sum              "B10 Ga2 H16 K4 O28"
_cell_length_a       6.79994
_cell_length_b       6.79994
_cell_length_c       13.6045
_cell_angle_alpha    90
_cell_angle_beta     90
_cell_angle_gamma    89.884

_space_group_name_H-M_alt    "P 1"
_space_group_IT_number       1

loop_
  _space_group_symop_operation_xyz
  'x, y, z'

loop_
  _atom_site_type_symbol
  _atom_site_label
  _atom_site_symmetry_multiplicity
  _atom_site_fract_x
  _atom_site_fract_y
  _atom_site_fract_z
  _atom_site_occupancy
  B   B1        1.0  0.78800  0.24500  0.07350  1.0000
  B   B2        1.0  0.76200  0.58000  0.13400  1.0000
  B   B3        1.0  0.69900  0.30100  0.25000  1.0000
  B   B4        1.0  0.42000  0.23800  0.36600  1.0000
  B   B5        1.0  0.75500  0.21200  0.42600  1.0000
  B   B6        1.0  0.21200  0.75500  0.57400  1.0000
  B   B7        1.0  0.23800  0.42000  0.63400  1.0000
  B   B8        1.0  0.30100  0.69900  0.75000  1.0000
  B   B9        1.0  0.58000  0.76200  0.86600  1.0000
  B   B10       1.0  0.24500  0.78800  0.92600  1.0000
  Ga  Ga1       1.0  0.86300  0.86300  0.00000  1.0000
  Ga  Ga2       1.0  0.13700  0.13700  0.50000  1.0000
  H   H1        1.0  0.29700  0.39100  0.04830  1.0000
  H   H2        1.0  0.11700  0.43400  0.16500  1.0000
  H   H3        1.0  0.32800  0.41200  0.21000  1.0000
  H   H4        1.0  0.93300  0.94900  0.21100  1.0000
  H   H5        1.0  0.05070  0.06710  0.28900  1.0000
  H   H6        1.0  0.58800  0.67200  0.29000  1.0000
  H   H7        1.0  0.56600  0.88300  0.33500  1.0000
  H   H8        1.0  0.60900  0.70300  0.45200  1.0000
  H   H9        1.0  0.70300  0.60900  0.54800  1.0000
  H   H10       1.0  0.88300  0.56600  0.66500  1.0000
  H   H11       1.0  0.67200  0.58800  0.71000  1.0000
  H   H12       1.0  0.06710  0.05070  0.71100  1.0000
  H   H13       1.0  0.94900  0.93300  0.78900  1.0000
  H   H14       1.0  0.41200  0.32800  0.79000  1.0000
  H   H15       1.0  0.43400  0.11700  0.83500  1.0000
  H   H16       1.0  0.39100  0.29700  0.95200  1.0000
  K   K1        1.0  0.38300  0.94300  0.13800  1.0000
  K   K2        1.0  0.05690  0.61700  0.36200  1.0000
  K   K3        1.0  0.61700  0.05690  0.63800  1.0000
  K   K4        1.0  0.94300  0.38300  0.86200  1.0000
  O   O1        1.0  0.28400  0.28400  0.00000  1.0000
  O   O2        1.0  0.12800  0.81500  0.00507  1.0000
  O   O3        1.0  0.80300  0.44800  0.05760  1.0000
  O   O4        1.0  0.75800  0.77500  0.11700  1.0000
  O   O5        1.0  0.74700  0.17700  0.16600  1.0000
  O   O6        1.0  0.24200  0.50300  0.17100  1.0000
  O   O7        1.0  0.72900  0.51200  0.22700  1.0000
  O   O8        1.0  0.05480  0.94500  0.25000  1.0000
  O   O9        1.0  0.48800  0.27100  0.27300  1.0000
  O   O10       1.0  0.49700  0.75800  0.32900  1.0000
  O   O11       1.0  0.82300  0.25300  0.33400  1.0000
  O   O12       1.0  0.22500  0.24200  0.38300  1.0000
  O   O13       1.0  0.55200  0.19700  0.44200  1.0000
  O   O14       1.0  0.18500  0.87200  0.49500  1.0000
  O   O15       1.0  0.71600  0.71600  0.50000  1.0000
  O   O16       1.0  0.87200  0.18500  0.50500  1.0000
  O   O17       1.0  0.19700  0.55200  0.55800  1.0000
  O   O18       1.0  0.24200  0.22500  0.61700  1.0000
  O   O19       1.0  0.25300  0.82300  0.66600  1.0000
  O   O20       1.0  0.75800  0.49700  0.67100  1.0000
  O   O21       1.0  0.27100  0.48800  0.72700  1.0000
  O   O22       1.0  0.94500  0.05480  0.75000  1.0000
  O   O23       1.0  0.51200  0.72900  0.77300  1.0000
  O   O24       1.0  0.50300  0.24200  0.82900  1.0000
  O   O25       1.0  0.17700  0.74700  0.83400  1.0000
  O   O26       1.0  0.77500  0.75800  0.88300  1.0000
  O   O27       1.0  0.44800  0.80300  0.94200  1.0000
  O   O28       1.0  0.81500  0.12800  0.99500  1.0000
