data_image0
_chemical_formula_structural       B20Cd4La4O40
_chemical_formula_sum              "B20 Cd4 La4 O40"
_cell_length_a       8.73687
_cell_length_b       7.89757
_cell_length_c       9.61857
_cell_angle_alpha    90
_cell_angle_beta     91.6006
_cell_angle_gamma    90

_space_group_name_H-M_alt    "P 1"
_space_group_IT_number       1

loop_
  _space_group_symop_operation_xyz
  'x, y, z'

loop_
  _atom_site_type_symbol
  _atom_site_label
  _atom_site_symmetry_multiplicity
  _atom_site_fract_x
  _atom_site_fract_y
  _atom_site_fract_z
  _atom_site_occupancy
  B   B1        1.0  0.14800  0.39800  0.00176  1.0000
  B   B2        1.0  0.78200  0.03030  0.05600  1.0000
  B   B3        1.0  0.56700  0.82400  0.09170  1.0000
  B   B4        1.0  0.01820  0.82700  0.10100  1.0000
  B   B5        1.0  0.58200  0.07890  0.24300  1.0000
  B   B6        1.0  0.91800  0.57900  0.25700  1.0000
  B   B7        1.0  0.48200  0.32700  0.39900  1.0000
  B   B8        1.0  0.93300  0.32400  0.40800  1.0000
  B   B9        1.0  0.71800  0.53000  0.44400  1.0000
  B   B10       1.0  0.35200  0.89800  0.49800  1.0000
  B   B11       1.0  0.64800  0.10200  0.50200  1.0000
  B   B12       1.0  0.28200  0.47000  0.55600  1.0000
  B   B13       1.0  0.06700  0.67600  0.59200  1.0000
  B   B14       1.0  0.51800  0.67300  0.60100  1.0000
  B   B15       1.0  0.08200  0.42100  0.74300  1.0000
  B   B16       1.0  0.41800  0.92100  0.75700  1.0000
  B   B17       1.0  0.98200  0.17300  0.89900  1.0000
  B   B18       1.0  0.43300  0.17600  0.90800  1.0000
  B   B19       1.0  0.21800  0.97000  0.94400  1.0000
  B   B20       1.0  0.85200  0.60200  0.99800  1.0000
  Cd  Cd1       1.0  0.60800  0.41000  0.12500  1.0000
  Cd  Cd2       1.0  0.89200  0.91000  0.37500  1.0000
  Cd  Cd3       1.0  0.10800  0.09010  0.62500  1.0000
  Cd  Cd4       1.0  0.39200  0.59000  0.87500  1.0000
  La  La1       1.0  0.18900  0.17700  0.23400  1.0000
  La  La2       1.0  0.31100  0.67700  0.26600  1.0000
  La  La3       1.0  0.68900  0.32300  0.73400  1.0000
  La  La4       1.0  0.81100  0.82300  0.76600  1.0000
  O   O1        1.0  0.68700  0.87800  0.01420  1.0000
  O   O2        1.0  0.03990  0.27000  0.01880  1.0000
  O   O3        1.0  0.50000  0.66800  0.07850  1.0000
  O   O4        1.0  0.17500  0.89000  0.07850  1.0000
  O   O5        1.0  0.23600  0.44700  0.11200  1.0000
  O   O6        1.0  0.83400  0.53400  0.12700  1.0000
  O   O7        1.0  0.91900  0.97200  0.13800  1.0000
  O   O8        1.0  0.69000  0.14100  0.14100  1.0000
  O   O9        1.0  0.50400  0.92500  0.19300  1.0000
  O   O10       1.0  0.03040  0.71500  0.22800  1.0000
  O   O11       1.0  0.47000  0.21500  0.27200  1.0000
  O   O12       1.0  0.99600  0.42500  0.30700  1.0000
  O   O13       1.0  0.81000  0.64100  0.35900  1.0000
  O   O14       1.0  0.58100  0.47200  0.36200  1.0000
  O   O15       1.0  0.66600  0.03380  0.37300  1.0000
  O   O16       1.0  0.26400  0.94700  0.38800  1.0000
  O   O17       1.0  0.32500  0.39000  0.42100  1.0000
  O   O18       1.0  0.00045  0.16800  0.42100  1.0000
  O   O19       1.0  0.46000  0.77000  0.48100  1.0000
  O   O20       1.0  0.81300  0.37800  0.48600  1.0000
  O   O21       1.0  0.18700  0.62200  0.51400  1.0000
  O   O22       1.0  0.54000  0.23000  0.51900  1.0000
  O   O23       1.0  0.00000  0.83200  0.57900  1.0000
  O   O24       1.0  0.67500  0.61000  0.57900  1.0000
  O   O25       1.0  0.73600  0.05260  0.61200  1.0000
  O   O26       1.0  0.33400  0.96600  0.62700  1.0000
  O   O27       1.0  0.41900  0.52800  0.63800  1.0000
  O   O28       1.0  0.19000  0.35900  0.64100  1.0000
  O   O29       1.0  0.00448  0.57500  0.69300  1.0000
  O   O30       1.0  0.53000  0.78500  0.72800  1.0000
  O   O31       1.0  0.97000  0.28500  0.77200  1.0000
  O   O32       1.0  0.49600  0.07510  0.80700  1.0000
  O   O33       1.0  0.31000  0.85900  0.85900  1.0000
  O   O34       1.0  0.08090  0.02820  0.86200  1.0000
  O   O35       1.0  0.16600  0.46600  0.87300  1.0000
  O   O36       1.0  0.76400  0.55300  0.88800  1.0000
  O   O37       1.0  0.82500  0.11000  0.92100  1.0000
  O   O38       1.0  0.50000  0.33200  0.92100  1.0000
  O   O39       1.0  0.96000  0.73000  0.98100  1.0000
  O   O40       1.0  0.31300  0.12200  0.98600  1.0000
