data_image0
_chemical_formula_structural       Sb4Sn4Ti4
_chemical_formula_sum              "Sb4 Sn4 Ti4"
_cell_length_a       5.50081
_cell_length_b       5.60855
_cell_length_c       10.1354
_cell_angle_alpha    97.6474
_cell_angle_beta     105.746
_cell_angle_gamma    60.6335

_space_group_name_H-M_alt    "P 1"
_space_group_IT_number       1

loop_
  _space_group_symop_operation_xyz
  'x, y, z'

loop_
  _atom_site_type_symbol
  _atom_site_label
  _atom_site_symmetry_multiplicity
  _atom_site_fract_x
  _atom_site_fract_y
  _atom_site_fract_z
  _atom_site_occupancy
  Sb  Sb1       1.0  0.79700  0.75000  0.09470  1.0000
  Sb  Sb2       1.0  0.95300  0.75000  0.40500  1.0000
  Sb  Sb3       1.0  0.04730  0.25000  0.59500  1.0000
  Sb  Sb4       1.0  0.20300  0.25000  0.90500  1.0000
  Sn  Sn1       1.0  0.20700  0.08560  0.25000  1.0000
  Sn  Sn2       1.0  0.54300  0.41400  0.25000  1.0000
  Sn  Sn3       1.0  0.45700  0.58600  0.75000  1.0000
  Sn  Sn4       1.0  0.79300  0.91400  0.75000  1.0000
  Ti  Ti1       1.0  0.75100  0.25000  0.00278  1.0000
  Ti  Ti2       1.0  0.49900  0.25000  0.49700  1.0000
  Ti  Ti3       1.0  0.50100  0.75000  0.50300  1.0000
  Ti  Ti4       1.0  0.24900  0.75000  0.99700  1.0000
