data_image0
_chemical_formula_structural       Bi8F48Xe4
_chemical_formula_sum              "Bi8 F48 Xe4"
_cell_length_a       7.40101
_cell_length_b       8.97139
_cell_length_c       12.995
_cell_angle_alpha    90
_cell_angle_beta     90
_cell_angle_gamma    90

_space_group_name_H-M_alt    "P 1"
_space_group_IT_number       1

loop_
  _space_group_symop_operation_xyz
  'x, y, z'

loop_
  _atom_site_type_symbol
  _atom_site_label
  _atom_site_symmetry_multiplicity
  _atom_site_fract_x
  _atom_site_fract_y
  _atom_site_fract_z
  _atom_site_occupancy
  Bi  Bi1       1.0  0.90900  0.39700  0.08030  1.0000
  Bi  Bi2       1.0  0.41900  0.65500  0.23400  1.0000
  Bi  Bi3       1.0  0.58100  0.15500  0.26600  1.0000
  Bi  Bi4       1.0  0.09080  0.89700  0.42000  1.0000
  Bi  Bi5       1.0  0.59100  0.60300  0.58000  1.0000
  Bi  Bi6       1.0  0.08080  0.34500  0.73400  1.0000
  Bi  Bi7       1.0  0.91900  0.84500  0.76600  1.0000
  Bi  Bi8       1.0  0.40900  0.10300  0.92000  1.0000
  F   F1        1.0  0.40700  0.28800  0.00411  1.0000
  F   F2        1.0  0.22800  0.00612  0.01280  1.0000
  F   F3        1.0  0.50900  0.74900  0.01660  1.0000
  F   F4        1.0  0.13200  0.48400  0.01840  1.0000
  F   F5        1.0  0.44200  0.50000  0.12700  1.0000
  F   F6        1.0  0.66900  0.29200  0.14400  1.0000
  F   F7        1.0  0.23500  0.76700  0.15300  1.0000
  F   F8        1.0  0.42500  0.05450  0.16200  1.0000
  F   F9        1.0  0.85200  0.56200  0.18100  1.0000
  F   F10       1.0  0.05200  0.28900  0.18800  1.0000
  F   F11       1.0  0.61100  0.80700  0.21000  1.0000
  F   F12       1.0  0.82100  0.04260  0.21300  1.0000
  F   F13       1.0  0.17900  0.54300  0.28700  1.0000
  F   F14       1.0  0.38900  0.30700  0.29000  1.0000
  F   F15       1.0  0.94800  0.78900  0.31200  1.0000
  F   F16       1.0  0.14800  0.06250  0.31900  1.0000
  F   F17       1.0  0.57500  0.55500  0.33800  1.0000
  F   F18       1.0  0.76500  0.26700  0.34700  1.0000
  F   F19       1.0  0.33100  0.79200  0.35600  1.0000
  F   F20       1.0  0.55800  0.00000  0.37300  1.0000
  F   F21       1.0  0.86800  0.98400  0.48200  1.0000
  F   F22       1.0  0.49100  0.24900  0.48300  1.0000
  F   F23       1.0  0.77200  0.50600  0.48700  1.0000
  F   F24       1.0  0.59300  0.78800  0.49600  1.0000
  F   F25       1.0  0.09320  0.71200  0.50400  1.0000
  F   F26       1.0  0.27200  0.99400  0.51300  1.0000
  F   F27       1.0  0.99100  0.25100  0.51700  1.0000
  F   F28       1.0  0.36800  0.51600  0.51800  1.0000
  F   F29       1.0  0.05770  0.50000  0.62700  1.0000
  F   F30       1.0  0.83100  0.70800  0.64400  1.0000
  F   F31       1.0  0.26500  0.23300  0.65300  1.0000
  F   F32       1.0  0.07470  0.94500  0.66200  1.0000
  F   F33       1.0  0.64800  0.43800  0.68100  1.0000
  F   F34       1.0  0.44800  0.71100  0.68800  1.0000
  F   F35       1.0  0.88900  0.19300  0.71000  1.0000
  F   F36       1.0  0.67900  0.95700  0.71300  1.0000
  F   F37       1.0  0.32100  0.45700  0.78700  1.0000
  F   F38       1.0  0.11100  0.69300  0.79000  1.0000
  F   F39       1.0  0.55200  0.21100  0.81200  1.0000
  F   F40       1.0  0.35200  0.93800  0.81900  1.0000
  F   F41       1.0  0.92500  0.44500  0.83800  1.0000
  F   F42       1.0  0.73500  0.73300  0.84700  1.0000
  F   F43       1.0  0.16900  0.20800  0.85600  1.0000
  F   F44       1.0  0.94200  0.00037  0.87300  1.0000
  F   F45       1.0  0.63200  0.01600  0.98200  1.0000
  F   F46       1.0  0.00908  0.75100  0.98300  1.0000
  F   F47       1.0  0.72800  0.49400  0.98700  1.0000
  F   F48       1.0  0.90700  0.21200  0.99600  1.0000
  Xe  Xe1       1.0  0.91400  0.88700  0.09270  1.0000
  Xe  Xe2       1.0  0.08620  0.38700  0.40700  1.0000
  Xe  Xe3       1.0  0.58600  0.11300  0.59300  1.0000
  Xe  Xe4       1.0  0.41400  0.61300  0.90700  1.0000
