data_image0
_chemical_formula_structural       Ag8H16N8O24S8
_chemical_formula_sum              "Ag8 H16 N8 O24 S8"
_cell_length_a       7.68318
_cell_length_b       7.98507
_cell_length_c       11.6191
_cell_angle_alpha    90
_cell_angle_beta     90
_cell_angle_gamma    90

_space_group_name_H-M_alt    "P 1"
_space_group_IT_number       1

loop_
  _space_group_symop_operation_xyz
  'x, y, z'

loop_
  _atom_site_type_symbol
  _atom_site_label
  _atom_site_symmetry_multiplicity
  _atom_site_fract_x
  _atom_site_fract_y
  _atom_site_fract_z
  _atom_site_occupancy
  Ag  Ag1       1.0  0.11700  0.24800  0.10100  1.0000
  Ag  Ag2       1.0  0.61700  0.25200  0.10100  1.0000
  Ag  Ag3       1.0  0.11700  0.74800  0.39900  1.0000
  Ag  Ag4       1.0  0.61700  0.75200  0.39900  1.0000
  Ag  Ag5       1.0  0.38300  0.24800  0.60100  1.0000
  Ag  Ag6       1.0  0.88300  0.25200  0.60100  1.0000
  Ag  Ag7       1.0  0.38300  0.74800  0.89900  1.0000
  Ag  Ag8       1.0  0.88300  0.75200  0.89900  1.0000
  H   H1        1.0  0.78400  0.61700  0.11100  1.0000
  H   H2        1.0  0.28400  0.88300  0.11100  1.0000
  H   H3        1.0  0.00648  0.62500  0.11100  1.0000
  H   H4        1.0  0.50600  0.87500  0.11100  1.0000
  H   H5        1.0  0.00648  0.12500  0.38900  1.0000
  H   H6        1.0  0.50600  0.37500  0.38900  1.0000
  H   H7        1.0  0.78400  0.11700  0.38900  1.0000
  H   H8        1.0  0.28400  0.38300  0.38900  1.0000
  H   H9        1.0  0.71600  0.61700  0.61100  1.0000
  H   H10       1.0  0.21600  0.88300  0.61100  1.0000
  H   H11       1.0  0.49400  0.62500  0.61100  1.0000
  H   H12       1.0  0.99400  0.87500  0.61100  1.0000
  H   H13       1.0  0.49400  0.12500  0.88900  1.0000
  H   H14       1.0  0.99400  0.37500  0.88900  1.0000
  H   H15       1.0  0.71600  0.11700  0.88900  1.0000
  H   H16       1.0  0.21600  0.38300  0.88900  1.0000
  N   N1        1.0  0.89300  0.68800  0.09080  1.0000
  N   N2        1.0  0.39300  0.81200  0.09080  1.0000
  N   N3        1.0  0.89300  0.18800  0.40900  1.0000
  N   N4        1.0  0.39300  0.31200  0.40900  1.0000
  N   N5        1.0  0.60700  0.68800  0.59100  1.0000
  N   N6        1.0  0.10700  0.81200  0.59100  1.0000
  N   N7        1.0  0.60700  0.18800  0.90900  1.0000
  N   N8        1.0  0.10700  0.31200  0.90900  1.0000
  O   O1        1.0  0.23000  0.54600  0.11900  1.0000
  O   O2        1.0  0.73000  0.95400  0.11900  1.0000
  O   O3        1.0  0.55000  0.54900  0.13800  1.0000
  O   O4        1.0  0.04990  0.95100  0.13800  1.0000
  O   O5        1.0  0.36800  0.17000  0.21200  1.0000
  O   O6        1.0  0.86800  0.33000  0.21200  1.0000
  O   O7        1.0  0.36800  0.67000  0.28800  1.0000
  O   O8        1.0  0.86800  0.83000  0.28800  1.0000
  O   O9        1.0  0.55000  0.04920  0.36200  1.0000
  O   O10       1.0  0.04990  0.45100  0.36200  1.0000
  O   O11       1.0  0.23000  0.04640  0.38100  1.0000
  O   O12       1.0  0.73000  0.45400  0.38100  1.0000
  O   O13       1.0  0.27000  0.54600  0.61900  1.0000
  O   O14       1.0  0.77000  0.95400  0.61900  1.0000
  O   O15       1.0  0.95000  0.54900  0.63800  1.0000
  O   O16       1.0  0.45000  0.95100  0.63800  1.0000
  O   O17       1.0  0.13200  0.17000  0.71200  1.0000
  O   O18       1.0  0.63200  0.33000  0.71200  1.0000
  O   O19       1.0  0.13200  0.67000  0.78800  1.0000
  O   O20       1.0  0.63200  0.83000  0.78800  1.0000
  O   O21       1.0  0.95000  0.04920  0.86200  1.0000
  O   O22       1.0  0.45000  0.45100  0.86200  1.0000
  O   O23       1.0  0.27000  0.04640  0.88100  1.0000
  O   O24       1.0  0.77000  0.45400  0.88100  1.0000
  S   S1        1.0  0.38400  0.63100  0.16400  1.0000
  S   S2        1.0  0.88400  0.86900  0.16400  1.0000
  S   S3        1.0  0.38400  0.13100  0.33600  1.0000
  S   S4        1.0  0.88400  0.36900  0.33600  1.0000
  S   S5        1.0  0.11600  0.63100  0.66400  1.0000
  S   S6        1.0  0.61600  0.86900  0.66400  1.0000
  S   S7        1.0  0.11600  0.13100  0.83600  1.0000
  S   S8        1.0  0.61600  0.36900  0.83600  1.0000
