data_image0
_chemical_formula_structural       H20Na4O32P8
_chemical_formula_sum              "H20 Na4 O32 P8"
_cell_length_a       8.29826
_cell_length_b       7.69246
_cell_length_c       10.2023
_cell_angle_alpha    90
_cell_angle_beta     90.4899
_cell_angle_gamma    90

_space_group_name_H-M_alt    "P 1"
_space_group_IT_number       1

loop_
  _space_group_symop_operation_xyz
  'x, y, z'

loop_
  _atom_site_type_symbol
  _atom_site_label
  _atom_site_symmetry_multiplicity
  _atom_site_fract_x
  _atom_site_fract_y
  _atom_site_fract_z
  _atom_site_occupancy
  H   H1        1.0  0.93700  0.15500  0.01810  1.0000
  H   H2        1.0  0.45400  0.09140  0.10400  1.0000
  H   H3        1.0  0.30400  0.52600  0.14100  1.0000
  H   H4        1.0  0.97300  0.66800  0.15900  1.0000
  H   H5        1.0  0.67200  0.79200  0.19500  1.0000
  H   H6        1.0  0.32800  0.29200  0.30500  1.0000
  H   H7        1.0  0.02720  0.16800  0.34100  1.0000
  H   H8        1.0  0.69600  0.02620  0.35900  1.0000
  H   H9        1.0  0.54600  0.59100  0.39600  1.0000
  H   H10       1.0  0.06320  0.65500  0.48200  1.0000
  H   H11       1.0  0.93700  0.34500  0.51800  1.0000
  H   H12       1.0  0.45400  0.40900  0.60400  1.0000
  H   H13       1.0  0.30400  0.97400  0.64100  1.0000
  H   H14       1.0  0.97300  0.83200  0.65900  1.0000
  H   H15       1.0  0.67200  0.70800  0.69500  1.0000
  H   H16       1.0  0.32800  0.20800  0.80500  1.0000
  H   H17       1.0  0.02720  0.33200  0.84100  1.0000
  H   H18       1.0  0.69600  0.47400  0.85900  1.0000
  H   H19       1.0  0.54600  0.90900  0.89600  1.0000
  H   H20       1.0  0.06320  0.84500  0.98200  1.0000
  Na  Na1       1.0  0.71900  0.40800  0.16500  1.0000
  Na  Na2       1.0  0.28100  0.90800  0.33500  1.0000
  Na  Na3       1.0  0.71900  0.09240  0.66500  1.0000
  Na  Na4       1.0  0.28100  0.59200  0.83500  1.0000
  O   O1        1.0  0.34200  0.60000  0.05700  1.0000
  O   O2        1.0  0.49900  0.21500  0.08170  1.0000
  O   O3        1.0  0.88200  0.15600  0.10900  1.0000
  O   O4        1.0  0.98900  0.84400  0.11200  1.0000
  O   O5        1.0  0.39200  0.91700  0.13100  1.0000
  O   O6        1.0  0.61400  0.69100  0.14300  1.0000
  O   O7        1.0  0.96100  0.54200  0.19500  1.0000
  O   O8        1.0  0.24300  0.43200  0.24200  1.0000
  O   O9        1.0  0.75700  0.93200  0.25800  1.0000
  O   O10       1.0  0.03910  0.04150  0.30500  1.0000
  O   O11       1.0  0.38600  0.19100  0.35700  1.0000
  O   O12       1.0  0.60800  0.41700  0.36900  1.0000
  O   O13       1.0  0.01130  0.34400  0.38800  1.0000
  O   O14       1.0  0.11800  0.65600  0.39100  1.0000
  O   O15       1.0  0.50100  0.71500  0.41800  1.0000
  O   O16       1.0  0.65800  0.10000  0.44300  1.0000
  O   O17       1.0  0.34200  0.90000  0.55700  1.0000
  O   O18       1.0  0.49900  0.28500  0.58200  1.0000
  O   O19       1.0  0.88200  0.34400  0.60900  1.0000
  O   O20       1.0  0.98900  0.65600  0.61200  1.0000
  O   O21       1.0  0.39200  0.58300  0.63100  1.0000
  O   O22       1.0  0.61400  0.80900  0.64300  1.0000
  O   O23       1.0  0.96100  0.95800  0.69500  1.0000
  O   O24       1.0  0.24300  0.06810  0.74200  1.0000
  O   O25       1.0  0.75700  0.56800  0.75800  1.0000
  O   O26       1.0  0.03910  0.45800  0.80500  1.0000
  O   O27       1.0  0.38600  0.30900  0.85700  1.0000
  O   O28       1.0  0.60800  0.08280  0.86900  1.0000
  O   O29       1.0  0.01130  0.15600  0.88800  1.0000
  O   O30       1.0  0.11800  0.84400  0.89100  1.0000
  O   O31       1.0  0.50100  0.78500  0.91800  1.0000
  O   O32       1.0  0.65800  0.40000  0.94300  1.0000
  P   P1        1.0  0.46000  0.75600  0.06660  1.0000
  P   P2        1.0  0.91600  0.98900  0.19500  1.0000
  P   P3        1.0  0.08420  0.48900  0.30500  1.0000
  P   P4        1.0  0.54000  0.25600  0.43300  1.0000
  P   P5        1.0  0.46000  0.74400  0.56700  1.0000
  P   P6        1.0  0.91600  0.51100  0.69500  1.0000
  P   P7        1.0  0.08420  0.01080  0.80500  1.0000
  P   P8        1.0  0.54000  0.24400  0.93300  1.0000
