data_image0
_chemical_formula_structural       O40Pb4Si4Te4Zn16
_chemical_formula_sum              "O40 Pb4 Si4 Te4 Zn16"
_cell_length_a       6.53973
_cell_length_b       15.5967
_cell_length_c       8.28699
_cell_angle_alpha    90
_cell_angle_beta     90
_cell_angle_gamma    90

_space_group_name_H-M_alt    "P 1"
_space_group_IT_number       1

loop_
  _space_group_symop_operation_xyz
  'x, y, z'

loop_
  _atom_site_type_symbol
  _atom_site_label
  _atom_site_symmetry_multiplicity
  _atom_site_fract_x
  _atom_site_fract_y
  _atom_site_fract_z
  _atom_site_occupancy
  O   O1        1.0  0.29300  0.51700  0.00659  1.0000
  O   O2        1.0  0.29300  0.98300  0.00659  1.0000
  O   O3        1.0  0.58700  0.66700  0.01600  1.0000
  O   O4        1.0  0.58700  0.83300  0.01600  1.0000
  O   O5        1.0  0.03070  0.09170  0.15600  1.0000
  O   O6        1.0  0.03070  0.40800  0.15600  1.0000
  O   O7        1.0  0.69700  0.25000  0.16000  1.0000
  O   O8        1.0  0.27900  0.75000  0.16500  1.0000
  O   O9        1.0  0.97300  0.58400  0.17500  1.0000
  O   O10       1.0  0.97300  0.91600  0.17500  1.0000
  O   O11       1.0  0.47300  0.58400  0.32500  1.0000
  O   O12       1.0  0.47300  0.91600  0.32500  1.0000
  O   O13       1.0  0.77900  0.75000  0.33500  1.0000
  O   O14       1.0  0.19700  0.25000  0.34000  1.0000
  O   O15       1.0  0.53100  0.09170  0.34400  1.0000
  O   O16       1.0  0.53100  0.40800  0.34400  1.0000
  O   O17       1.0  0.08660  0.66700  0.48400  1.0000
  O   O18       1.0  0.08660  0.83300  0.48400  1.0000
  O   O19       1.0  0.79300  0.51700  0.49300  1.0000
  O   O20       1.0  0.79300  0.98300  0.49300  1.0000
  O   O21       1.0  0.20700  0.01740  0.50700  1.0000
  O   O22       1.0  0.20700  0.48300  0.50700  1.0000
  O   O23       1.0  0.91300  0.16700  0.51600  1.0000
  O   O24       1.0  0.91300  0.33300  0.51600  1.0000
  O   O25       1.0  0.46900  0.59200  0.65600  1.0000
  O   O26       1.0  0.46900  0.90800  0.65600  1.0000
  O   O27       1.0  0.80300  0.75000  0.66000  1.0000
  O   O28       1.0  0.22100  0.25000  0.66500  1.0000
  O   O29       1.0  0.52700  0.08390  0.67500  1.0000
  O   O30       1.0  0.52700  0.41600  0.67500  1.0000
  O   O31       1.0  0.02670  0.08390  0.82500  1.0000
  O   O32       1.0  0.02670  0.41600  0.82500  1.0000
  O   O33       1.0  0.72100  0.25000  0.83500  1.0000
  O   O34       1.0  0.30300  0.75000  0.84000  1.0000
  O   O35       1.0  0.96900  0.59200  0.84400  1.0000
  O   O36       1.0  0.96900  0.90800  0.84400  1.0000
  O   O37       1.0  0.41300  0.16700  0.98400  1.0000
  O   O38       1.0  0.41300  0.33300  0.98400  1.0000
  O   O39       1.0  0.70700  0.01740  0.99300  1.0000
  O   O40       1.0  0.70700  0.48300  0.99300  1.0000
  Pb  Pb1       1.0  0.05800  0.25000  0.08350  1.0000
  Pb  Pb2       1.0  0.55800  0.25000  0.41700  1.0000
  Pb  Pb3       1.0  0.44200  0.75000  0.58300  1.0000
  Pb  Pb4       1.0  0.94200  0.75000  0.91700  1.0000
  Si  Si1       1.0  0.43400  0.75000  0.00662  1.0000
  Si  Si2       1.0  0.93400  0.75000  0.49300  1.0000
  Si  Si3       1.0  0.06610  0.25000  0.50700  1.0000
  Si  Si4       1.0  0.56600  0.25000  0.99300  1.0000
  Te  Te1       1.0  0.00000  0.00000  0.00000  1.0000
  Te  Te2       1.0  0.00000  0.50000  0.00000  1.0000
  Te  Te3       1.0  0.50000  0.00000  0.50000  1.0000
  Te  Te4       1.0  0.50000  0.50000  0.50000  1.0000
  Zn  Zn1       1.0  0.46800  0.06540  0.12500  1.0000
  Zn  Zn2       1.0  0.46800  0.43500  0.12500  1.0000
  Zn  Zn3       1.0  0.71400  0.63600  0.23000  1.0000
  Zn  Zn4       1.0  0.71400  0.86400  0.23000  1.0000
  Zn  Zn5       1.0  0.21400  0.63600  0.27000  1.0000
  Zn  Zn6       1.0  0.21400  0.86400  0.27000  1.0000
  Zn  Zn7       1.0  0.96800  0.06540  0.37500  1.0000
  Zn  Zn8       1.0  0.96800  0.43500  0.37500  1.0000
  Zn  Zn9       1.0  0.03180  0.56500  0.62500  1.0000
  Zn  Zn10      1.0  0.03180  0.93500  0.62500  1.0000
  Zn  Zn11      1.0  0.78600  0.13600  0.73000  1.0000
  Zn  Zn12      1.0  0.78600  0.36400  0.73000  1.0000
  Zn  Zn13      1.0  0.28600  0.13600  0.77000  1.0000
  Zn  Zn14      1.0  0.28600  0.36400  0.77000  1.0000
  Zn  Zn15      1.0  0.53200  0.56500  0.87500  1.0000
  Zn  Zn16      1.0  0.53200  0.93500  0.87500  1.0000
