data_image0
_chemical_formula_structural       H32N4Na4O24Se4
_chemical_formula_sum              "H32 N4 Na4 O24 Se4"
_cell_length_a       8.28512
_cell_length_b       12.839
_cell_length_c       6.02101
_cell_angle_alpha    90
_cell_angle_beta     90
_cell_angle_gamma    90

_space_group_name_H-M_alt    "P 1"
_space_group_IT_number       1

loop_
  _space_group_symop_operation_xyz
  'x, y, z'

loop_
  _atom_site_type_symbol
  _atom_site_label
  _atom_site_symmetry_multiplicity
  _atom_site_fract_x
  _atom_site_fract_y
  _atom_site_fract_z
  _atom_site_occupancy
  H   H1        1.0  0.31500  0.14100  0.04580  1.0000
  H   H2        1.0  0.93100  0.28500  0.12900  1.0000
  H   H3        1.0  0.39400  0.68000  0.13100  1.0000
  H   H4        1.0  0.51900  0.59000  0.14100  1.0000
  H   H5        1.0  0.92400  0.41700  0.15200  1.0000
  H   H6        1.0  0.23000  0.30700  0.18400  1.0000
  H   H7        1.0  0.75600  0.34400  0.21700  1.0000
  H   H8        1.0  0.41000  0.34500  0.23100  1.0000
  H   H9        1.0  0.59000  0.84500  0.26900  1.0000
  H   H10       1.0  0.24400  0.84400  0.28300  1.0000
  H   H11       1.0  0.77000  0.80700  0.31600  1.0000
  H   H12       1.0  0.07560  0.91700  0.34800  1.0000
  H   H13       1.0  0.48100  0.08950  0.35900  1.0000
  H   H14       1.0  0.60600  0.18000  0.36900  1.0000
  H   H15       1.0  0.06890  0.78500  0.37100  1.0000
  H   H16       1.0  0.68500  0.64100  0.45400  1.0000
  H   H17       1.0  0.18500  0.85900  0.54600  1.0000
  H   H18       1.0  0.56900  0.71500  0.62900  1.0000
  H   H19       1.0  0.10600  0.32000  0.63100  1.0000
  H   H20       1.0  0.98100  0.41000  0.64100  1.0000
  H   H21       1.0  0.57600  0.58300  0.65200  1.0000
  H   H22       1.0  0.27000  0.69300  0.68400  1.0000
  H   H23       1.0  0.74400  0.65600  0.71700  1.0000
  H   H24       1.0  0.09030  0.65500  0.73100  1.0000
  H   H25       1.0  0.91000  0.15500  0.76900  1.0000
  H   H26       1.0  0.25600  0.15600  0.78300  1.0000
  H   H27       1.0  0.73000  0.19300  0.81600  1.0000
  H   H28       1.0  0.42400  0.08290  0.84800  1.0000
  H   H29       1.0  0.01910  0.91000  0.85900  1.0000
  H   H30       1.0  0.89400  0.82000  0.86900  1.0000
  H   H31       1.0  0.43100  0.21500  0.87100  1.0000
  H   H32       1.0  0.81500  0.35900  0.95400  1.0000
  N   N1        1.0  0.85700  0.35100  0.11400  1.0000
  N   N2        1.0  0.14300  0.85100  0.38600  1.0000
  N   N3        1.0  0.64300  0.64900  0.61400  1.0000
  N   N4        1.0  0.35700  0.14900  0.88600  1.0000
  Na  Na1       1.0  0.76000  0.00921  0.09730  1.0000
  Na  Na2       1.0  0.24000  0.50900  0.40300  1.0000
  Na  Na3       1.0  0.74000  0.99100  0.59700  1.0000
  Na  Na4       1.0  0.26000  0.49100  0.90300  1.0000
  O   O1        1.0  0.41200  0.81500  0.12600  1.0000
  O   O2        1.0  0.71600  0.56300  0.13400  1.0000
  O   O3        1.0  0.03990  0.53300  0.13700  1.0000
  O   O4        1.0  0.40100  0.60300  0.15000  1.0000
  O   O5        1.0  0.30400  0.36700  0.16900  1.0000
  O   O6        1.0  0.09220  0.20700  0.17300  1.0000
  O   O7        1.0  0.90800  0.70700  0.32700  1.0000
  O   O8        1.0  0.69600  0.86700  0.33100  1.0000
  O   O9        1.0  0.59900  0.10300  0.35000  1.0000
  O   O10       1.0  0.96000  0.03260  0.36300  1.0000
  O   O11       1.0  0.28400  0.06270  0.36600  1.0000
  O   O12       1.0  0.58800  0.31500  0.37400  1.0000
  O   O13       1.0  0.08800  0.18500  0.62600  1.0000
  O   O14       1.0  0.78400  0.43700  0.63400  1.0000
  O   O15       1.0  0.46000  0.46700  0.63700  1.0000
  O   O16       1.0  0.09870  0.39700  0.65000  1.0000
  O   O17       1.0  0.19600  0.63300  0.66900  1.0000
  O   O18       1.0  0.40800  0.79300  0.67300  1.0000
  O   O19       1.0  0.59200  0.29300  0.82700  1.0000
  O   O20       1.0  0.80400  0.13300  0.83100  1.0000
  O   O21       1.0  0.90100  0.89700  0.85000  1.0000
  O   O22       1.0  0.54000  0.96700  0.86300  1.0000
  O   O23       1.0  0.21600  0.93700  0.86600  1.0000
  O   O24       1.0  0.91200  0.68500  0.87400  1.0000
  Se  Se1       1.0  0.89500  0.62100  0.11800  1.0000
  Se  Se2       1.0  0.10500  0.12100  0.38200  1.0000
  Se  Se3       1.0  0.60500  0.37900  0.61800  1.0000
  Se  Se4       1.0  0.39500  0.87900  0.88200  1.0000
