data_image0
_chemical_formula_structural       Ge4O4Se4Sr4
_chemical_formula_sum              "Ge4 O4 Se4 Sr4"
_cell_length_a       7.14928
_cell_length_b       7.18981
_cell_length_c       6.9988
_cell_angle_alpha    90
_cell_angle_beta     90
_cell_angle_gamma    90

_space_group_name_H-M_alt    "P 1"
_space_group_IT_number       1

loop_
  _space_group_symop_operation_xyz
  'x, y, z'

loop_
  _atom_site_type_symbol
  _atom_site_label
  _atom_site_symmetry_multiplicity
  _atom_site_fract_x
  _atom_site_fract_y
  _atom_site_fract_z
  _atom_site_occupancy
  Ge  Ge1       1.0  0.61700  0.28600  0.49900  1.0000
  Ge  Ge2       1.0  0.11700  0.71400  0.49900  1.0000
  Ge  Ge3       1.0  0.88300  0.28600  0.99900  1.0000
  Ge  Ge4       1.0  0.38300  0.71400  0.99900  1.0000
  O   O1        1.0  0.06140  0.11100  0.07110  1.0000
  O   O2        1.0  0.56100  0.88900  0.07110  1.0000
  O   O3        1.0  0.43900  0.11100  0.57100  1.0000
  O   O4        1.0  0.93900  0.88900  0.57100  1.0000
  Se  Se1       1.0  0.41000  0.44700  0.25700  1.0000
  Se  Se2       1.0  0.91000  0.55300  0.25700  1.0000
  Se  Se3       1.0  0.09020  0.44700  0.75700  1.0000
  Se  Se4       1.0  0.59000  0.55300  0.75700  1.0000
  Sr  Sr1       1.0  0.10700  0.17200  0.42400  1.0000
  Sr  Sr2       1.0  0.60700  0.82800  0.42400  1.0000
  Sr  Sr3       1.0  0.39300  0.17200  0.92400  1.0000
  Sr  Sr4       1.0  0.89300  0.82800  0.92400  1.0000
