data_image0
_chemical_formula_structural       Cl12Hg36O12
_chemical_formula_sum              "Cl12 Hg36 O12"
_cell_length_a       9.21588
_cell_length_b       10.751
_cell_length_c       17.339
_cell_angle_alpha    94.9379
_cell_angle_beta     105.412
_cell_angle_gamma    115.379

_space_group_name_H-M_alt    "P 1"
_space_group_IT_number       1

loop_
  _space_group_symop_operation_xyz
  'x, y, z'

loop_
  _atom_site_type_symbol
  _atom_site_label
  _atom_site_symmetry_multiplicity
  _atom_site_fract_x
  _atom_site_fract_y
  _atom_site_fract_z
  _atom_site_occupancy
  Cl  Cl1       1.0  0.35900  0.31900  0.01230  1.0000
  Cl  Cl2       1.0  0.42600  0.07870  0.15600  1.0000
  Cl  Cl3       1.0  0.83400  0.89000  0.21600  1.0000
  Cl  Cl4       1.0  0.22700  0.61000  0.28400  1.0000
  Cl  Cl5       1.0  0.69200  0.42100  0.34400  1.0000
  Cl  Cl6       1.0  0.52700  0.18100  0.48800  1.0000
  Cl  Cl7       1.0  0.47300  0.81900  0.51200  1.0000
  Cl  Cl8       1.0  0.30800  0.57900  0.65600  1.0000
  Cl  Cl9       1.0  0.77300  0.39000  0.71600  1.0000
  Cl  Cl10      1.0  0.16600  0.11000  0.78400  1.0000
  Cl  Cl11      1.0  0.57400  0.92100  0.84400  1.0000
  Cl  Cl12      1.0  0.64100  0.68100  0.98800  1.0000
  Hg  Hg1       1.0  0.85200  0.97400  0.00953  1.0000
  Hg  Hg2       1.0  0.97600  0.69600  0.02660  1.0000
  Hg  Hg3       1.0  0.38800  0.84100  0.03220  1.0000
  Hg  Hg4       1.0  0.40000  0.64800  0.11100  1.0000
  Hg  Hg5       1.0  0.92900  0.46200  0.13400  1.0000
  Hg  Hg6       1.0  0.66800  0.48100  0.15800  1.0000
  Hg  Hg7       1.0  0.78600  0.15600  0.17900  1.0000
  Hg  Hg8       1.0  0.12700  0.83700  0.18000  1.0000
  Hg  Hg9       1.0  0.24000  0.33800  0.20000  1.0000
  Hg  Hg10      1.0  0.20200  0.16200  0.30000  1.0000
  Hg  Hg11      1.0  0.61000  0.66300  0.32000  1.0000
  Hg  Hg12      1.0  0.95100  0.34400  0.32100  1.0000
  Hg  Hg13      1.0  0.53000  0.01950  0.34200  1.0000
  Hg  Hg14      1.0  0.83200  0.03820  0.36600  1.0000
  Hg  Hg15      1.0  0.14100  0.85200  0.38900  1.0000
  Hg  Hg16      1.0  0.01480  0.65900  0.46800  1.0000
  Hg  Hg17      1.0  0.75300  0.80400  0.47300  1.0000
  Hg  Hg18      1.0  0.36900  0.52600  0.49000  1.0000
  Hg  Hg19      1.0  0.63100  0.47400  0.51000  1.0000
  Hg  Hg20      1.0  0.24700  0.19600  0.52700  1.0000
  Hg  Hg21      1.0  0.98500  0.34100  0.53200  1.0000
  Hg  Hg22      1.0  0.85900  0.14800  0.61100  1.0000
  Hg  Hg23      1.0  0.16800  0.96200  0.63400  1.0000
  Hg  Hg24      1.0  0.47000  0.98100  0.65800  1.0000
  Hg  Hg25      1.0  0.04920  0.65600  0.67900  1.0000
  Hg  Hg26      1.0  0.39000  0.33700  0.68000  1.0000
  Hg  Hg27      1.0  0.79800  0.83800  0.70000  1.0000
  Hg  Hg28      1.0  0.76000  0.66200  0.80000  1.0000
  Hg  Hg29      1.0  0.87300  0.16300  0.82000  1.0000
  Hg  Hg30      1.0  0.21400  0.84400  0.82100  1.0000
  Hg  Hg31      1.0  0.33200  0.51900  0.84200  1.0000
  Hg  Hg32      1.0  0.07130  0.53800  0.86600  1.0000
  Hg  Hg33      1.0  0.60000  0.35200  0.88900  1.0000
  Hg  Hg34      1.0  0.61200  0.15900  0.96800  1.0000
  Hg  Hg35      1.0  0.02430  0.30400  0.97300  1.0000
  Hg  Hg36      1.0  0.14800  0.02650  0.99000  1.0000
  O   O1        1.0  0.68100  0.03590  0.05280  1.0000
  O   O2        1.0  0.11400  0.42000  0.09760  1.0000
  O   O3        1.0  0.49000  0.53500  0.19500  1.0000
  O   O4        1.0  0.26000  0.96500  0.30500  1.0000
  O   O5        1.0  0.09670  0.08040  0.40200  1.0000
  O   O6        1.0  0.09240  0.46400  0.44700  1.0000
  O   O7        1.0  0.90800  0.53600  0.55300  1.0000
  O   O8        1.0  0.90300  0.92000  0.59800  1.0000
  O   O9        1.0  0.74000  0.03490  0.69500  1.0000
  O   O10       1.0  0.51000  0.46500  0.80500  1.0000
  O   O11       1.0  0.88600  0.58000  0.90200  1.0000
  O   O12       1.0  0.31900  0.96400  0.94700  1.0000
