data_image0
_chemical_formula_structural       C8Cd4H24O24
_chemical_formula_sum              "C8 Cd4 H24 O24"
_cell_length_a       8.9084
_cell_length_b       7.15341
_cell_length_c       9.55333
_cell_angle_alpha    90
_cell_angle_beta     97.5484
_cell_angle_gamma    90

_space_group_name_H-M_alt    "P 1"
_space_group_IT_number       1

loop_
  _space_group_symop_operation_xyz
  'x, y, z'

loop_
  _atom_site_type_symbol
  _atom_site_label
  _atom_site_symmetry_multiplicity
  _atom_site_fract_x
  _atom_site_fract_y
  _atom_site_fract_z
  _atom_site_occupancy
  C   C1        1.0  0.67000  0.10100  0.07660  1.0000
  C   C2        1.0  0.95700  0.69000  0.20800  1.0000
  C   C3        1.0  0.04310  0.19000  0.29200  1.0000
  C   C4        1.0  0.33000  0.60100  0.42300  1.0000
  C   C5        1.0  0.67000  0.39900  0.57700  1.0000
  C   C6        1.0  0.95700  0.81000  0.70800  1.0000
  C   C7        1.0  0.04310  0.31000  0.79200  1.0000
  C   C8        1.0  0.33000  0.89900  0.92300  1.0000
  Cd  Cd1       1.0  0.00000  0.00000  0.00000  1.0000
  Cd  Cd2       1.0  0.50000  0.50000  0.00000  1.0000
  Cd  Cd3       1.0  0.50000  0.00000  0.50000  1.0000
  Cd  Cd4       1.0  0.00000  0.50000  0.50000  1.0000
  H   H1        1.0  0.20200  0.40900  0.02600  1.0000
  H   H2        1.0  0.23700  0.62400  0.05500  1.0000
  H   H3        1.0  0.67700  0.95900  0.12300  1.0000
  H   H4        1.0  0.45900  0.15100  0.21800  1.0000
  H   H5        1.0  0.70400  0.59700  0.23600  1.0000
  H   H6        1.0  0.94200  0.26200  0.23900  1.0000
  H   H7        1.0  0.05800  0.76200  0.26100  1.0000
  H   H8        1.0  0.29600  0.09730  0.26400  1.0000
  H   H9        1.0  0.54100  0.65100  0.28200  1.0000
  H   H10       1.0  0.32300  0.45900  0.37700  1.0000
  H   H11       1.0  0.76300  0.12400  0.44500  1.0000
  H   H12       1.0  0.79800  0.90900  0.47400  1.0000
  H   H13       1.0  0.20200  0.09150  0.52600  1.0000
  H   H14       1.0  0.23700  0.87600  0.55500  1.0000
  H   H15       1.0  0.67700  0.54100  0.62300  1.0000
  H   H16       1.0  0.45900  0.34900  0.71800  1.0000
  H   H17       1.0  0.70400  0.90300  0.73600  1.0000
  H   H18       1.0  0.94200  0.23800  0.73900  1.0000
  H   H19       1.0  0.05800  0.73800  0.76100  1.0000
  H   H20       1.0  0.29600  0.40300  0.76400  1.0000
  H   H21       1.0  0.54100  0.84900  0.78200  1.0000
  H   H22       1.0  0.32300  0.04120  0.87700  1.0000
  H   H23       1.0  0.76300  0.37600  0.94500  1.0000
  H   H24       1.0  0.79800  0.59100  0.97400  1.0000
  O   O1        1.0  0.77900  0.15900  0.01300  1.0000
  O   O2        1.0  0.90800  0.73400  0.08220  1.0000
  O   O3        1.0  0.26700  0.49600  0.08980  1.0000
  O   O4        1.0  0.55400  0.19800  0.09100  1.0000
  O   O5        1.0  0.60100  0.64300  0.20000  1.0000
  O   O6        1.0  0.10700  0.06700  0.22400  1.0000
  O   O7        1.0  0.89300  0.56700  0.27600  1.0000
  O   O8        1.0  0.39900  0.14300  0.30000  1.0000
  O   O9        1.0  0.44600  0.69800  0.40900  1.0000
  O   O10       1.0  0.73300  0.99600  0.41000  1.0000
  O   O11       1.0  0.09210  0.23400  0.41800  1.0000
  O   O12       1.0  0.22100  0.65900  0.48700  1.0000
  O   O13       1.0  0.77900  0.34100  0.51300  1.0000
  O   O14       1.0  0.90800  0.76600  0.58200  1.0000
  O   O15       1.0  0.26700  0.00434  0.59000  1.0000
  O   O16       1.0  0.55400  0.30200  0.59100  1.0000
  O   O17       1.0  0.60100  0.85700  0.70000  1.0000
  O   O18       1.0  0.10700  0.43300  0.72400  1.0000
  O   O19       1.0  0.89300  0.93300  0.77600  1.0000
  O   O20       1.0  0.39900  0.35700  0.80000  1.0000
  O   O21       1.0  0.44600  0.80200  0.90900  1.0000
  O   O22       1.0  0.73300  0.50400  0.91000  1.0000
  O   O23       1.0  0.09210  0.26600  0.91800  1.0000
  O   O24       1.0  0.22100  0.84100  0.98700  1.0000
