data_image0
_chemical_formula_structural       B20Ca4Na4O36
_chemical_formula_sum              "B20 Ca4 Na4 O36"
_cell_length_a       6.42476
_cell_length_b       13.7803
_cell_length_c       7.71631
_cell_angle_alpha    90
_cell_angle_beta     109.546
_cell_angle_gamma    90

_space_group_name_H-M_alt    "P 1"
_space_group_IT_number       1

loop_
  _space_group_symop_operation_xyz
  'x, y, z'

loop_
  _atom_site_type_symbol
  _atom_site_label
  _atom_site_symmetry_multiplicity
  _atom_site_fract_x
  _atom_site_fract_y
  _atom_site_fract_z
  _atom_site_occupancy
  B   B1        1.0  0.43000  0.63800  0.11700  1.0000
  B   B2        1.0  0.59300  0.24600  0.13200  1.0000
  B   B3        1.0  0.91100  0.93600  0.16600  1.0000
  B   B4        1.0  0.77300  0.54300  0.22800  1.0000
  B   B5        1.0  0.85400  0.10800  0.24200  1.0000
  B   B6        1.0  0.14600  0.60800  0.25800  1.0000
  B   B7        1.0  0.22700  0.04320  0.27200  1.0000
  B   B8        1.0  0.08950  0.43600  0.33400  1.0000
  B   B9        1.0  0.40700  0.74600  0.36800  1.0000
  B   B10       1.0  0.57000  0.13800  0.38300  1.0000
  B   B11       1.0  0.43000  0.86200  0.61700  1.0000
  B   B12       1.0  0.59300  0.25400  0.63200  1.0000
  B   B13       1.0  0.91100  0.56400  0.66600  1.0000
  B   B14       1.0  0.77300  0.95700  0.72800  1.0000
  B   B15       1.0  0.85400  0.39200  0.74200  1.0000
  B   B16       1.0  0.14600  0.89200  0.75800  1.0000
  B   B17       1.0  0.22700  0.45700  0.77200  1.0000
  B   B18       1.0  0.08950  0.06410  0.83400  1.0000
  B   B19       1.0  0.40700  0.75400  0.86800  1.0000
  B   B20       1.0  0.57000  0.36200  0.88300  1.0000
  Ca  Ca1       1.0  0.10000  0.26200  0.07420  1.0000
  Ca  Ca2       1.0  0.90000  0.76200  0.42600  1.0000
  Ca  Ca3       1.0  0.10000  0.23800  0.57400  1.0000
  Ca  Ca4       1.0  0.90000  0.73800  0.92600  1.0000
  Na  Na1       1.0  0.47300  0.91000  0.15500  1.0000
  Na  Na2       1.0  0.52700  0.41000  0.34500  1.0000
  Na  Na3       1.0  0.47300  0.59000  0.65500  1.0000
  Na  Na4       1.0  0.52700  0.09040  0.84500  1.0000
  O   O1        1.0  0.52600  0.33300  0.04950  1.0000
  O   O2        1.0  0.19500  0.62700  0.08990  1.0000
  O   O3        1.0  0.75700  0.18900  0.10500  1.0000
  O   O4        1.0  0.83600  0.84400  0.14300  1.0000
  O   O5        1.0  0.77300  0.01450  0.15700  1.0000
  O   O6        1.0  0.55300  0.55000  0.18700  1.0000
  O   O7        1.0  0.13500  0.95500  0.20200  1.0000
  O   O8        1.0  0.90400  0.62000  0.21300  1.0000
  O   O9        1.0  0.48100  0.21900  0.24700  1.0000
  O   O10       1.0  0.51900  0.71900  0.25300  1.0000
  O   O11       1.0  0.09610  0.12000  0.28700  1.0000
  O   O12       1.0  0.86500  0.45500  0.29800  1.0000
  O   O13       1.0  0.44700  0.04980  0.31300  1.0000
  O   O14       1.0  0.22700  0.51400  0.34300  1.0000
  O   O15       1.0  0.16400  0.34400  0.35700  1.0000
  O   O16       1.0  0.24300  0.68900  0.39500  1.0000
  O   O17       1.0  0.80500  0.12700  0.41000  1.0000
  O   O18       1.0  0.47400  0.83300  0.45100  1.0000
  O   O19       1.0  0.52600  0.16700  0.54900  1.0000
  O   O20       1.0  0.19500  0.87300  0.59000  1.0000
  O   O21       1.0  0.75700  0.31100  0.60500  1.0000
  O   O22       1.0  0.83600  0.65600  0.64300  1.0000
  O   O23       1.0  0.77300  0.48600  0.65700  1.0000
  O   O24       1.0  0.55300  0.95000  0.68700  1.0000
  O   O25       1.0  0.13500  0.54500  0.70200  1.0000
  O   O26       1.0  0.90400  0.88000  0.71300  1.0000
  O   O27       1.0  0.48100  0.28100  0.74700  1.0000
  O   O28       1.0  0.51900  0.78100  0.75300  1.0000
  O   O29       1.0  0.09610  0.38000  0.78700  1.0000
  O   O30       1.0  0.86500  0.04510  0.79800  1.0000
  O   O31       1.0  0.44700  0.45000  0.81300  1.0000
  O   O32       1.0  0.22700  0.98600  0.84300  1.0000
  O   O33       1.0  0.16400  0.15600  0.85700  1.0000
  O   O34       1.0  0.24300  0.81100  0.89500  1.0000
  O   O35       1.0  0.80500  0.37300  0.91000  1.0000
  O   O36       1.0  0.47400  0.66700  0.95100  1.0000
