data_image0
_chemical_formula_structural       Al8O36Pb8Si8
_chemical_formula_sum              "Al8 O36 Pb8 Si8"
_cell_length_a       6.86866
_cell_length_b       10.6812
_cell_length_c       9.75296
_cell_angle_alpha    90
_cell_angle_beta     90
_cell_angle_gamma    90

_space_group_name_H-M_alt    "P 1"
_space_group_IT_number       1

loop_
  _space_group_symop_operation_xyz
  'x, y, z'

loop_
  _atom_site_type_symbol
  _atom_site_label
  _atom_site_symmetry_multiplicity
  _atom_site_fract_x
  _atom_site_fract_y
  _atom_site_fract_z
  _atom_site_occupancy
  Al  Al1       1.0  0.50000  0.00000  0.00000  1.0000
  Al  Al2       1.0  0.00000  0.50000  0.00000  1.0000
  Al  Al3       1.0  0.50000  0.14700  0.25000  1.0000
  Al  Al4       1.0  0.00000  0.64700  0.25000  1.0000
  Al  Al5       1.0  0.50000  0.00000  0.50000  1.0000
  Al  Al6       1.0  0.00000  0.50000  0.50000  1.0000
  Al  Al7       1.0  0.00000  0.35300  0.75000  1.0000
  Al  Al8       1.0  0.50000  0.85300  0.75000  1.0000
  O   O1        1.0  0.38600  0.14200  0.07730  1.0000
  O   O2        1.0  0.11400  0.64200  0.07730  1.0000
  O   O3        1.0  0.19300  0.39300  0.09420  1.0000
  O   O4        1.0  0.30700  0.89300  0.09420  1.0000
  O   O5        1.0  0.65200  0.00828  0.16300  1.0000
  O   O6        1.0  0.84800  0.50800  0.16300  1.0000
  O   O7        1.0  0.68600  0.27300  0.18300  1.0000
  O   O8        1.0  0.81400  0.77300  0.18300  1.0000
  O   O9        1.0  0.50000  0.47900  0.25000  1.0000
  O   O10       1.0  0.00000  0.97900  0.25000  1.0000
  O   O11       1.0  0.31400  0.27300  0.31700  1.0000
  O   O12       1.0  0.18600  0.77300  0.31700  1.0000
  O   O13       1.0  0.34800  0.00828  0.33700  1.0000
  O   O14       1.0  0.15200  0.50800  0.33700  1.0000
  O   O15       1.0  0.80700  0.39300  0.40600  1.0000
  O   O16       1.0  0.69300  0.89300  0.40600  1.0000
  O   O17       1.0  0.61400  0.14200  0.42300  1.0000
  O   O18       1.0  0.88600  0.64200  0.42300  1.0000
  O   O19       1.0  0.11400  0.35800  0.57700  1.0000
  O   O20       1.0  0.38600  0.85800  0.57700  1.0000
  O   O21       1.0  0.30700  0.10700  0.59400  1.0000
  O   O22       1.0  0.19300  0.60700  0.59400  1.0000
  O   O23       1.0  0.84800  0.49200  0.66300  1.0000
  O   O24       1.0  0.65200  0.99200  0.66300  1.0000
  O   O25       1.0  0.81400  0.22700  0.68300  1.0000
  O   O26       1.0  0.68600  0.72700  0.68300  1.0000
  O   O27       1.0  0.00000  0.02100  0.75000  1.0000
  O   O28       1.0  0.50000  0.52100  0.75000  1.0000
  O   O29       1.0  0.18600  0.22700  0.81700  1.0000
  O   O30       1.0  0.31400  0.72700  0.81700  1.0000
  O   O31       1.0  0.15200  0.49200  0.83700  1.0000
  O   O32       1.0  0.34800  0.99200  0.83700  1.0000
  O   O33       1.0  0.69300  0.10700  0.90600  1.0000
  O   O34       1.0  0.80700  0.60700  0.90600  1.0000
  O   O35       1.0  0.88600  0.35800  0.92300  1.0000
  O   O36       1.0  0.61400  0.85800  0.92300  1.0000
  Pb  Pb1       1.0  0.03920  0.19300  0.05020  1.0000
  Pb  Pb2       1.0  0.46100  0.69300  0.05020  1.0000
  Pb  Pb3       1.0  0.96100  0.19300  0.45000  1.0000
  Pb  Pb4       1.0  0.53900  0.69300  0.45000  1.0000
  Pb  Pb5       1.0  0.46100  0.30700  0.55000  1.0000
  Pb  Pb6       1.0  0.03920  0.80700  0.55000  1.0000
  Pb  Pb7       1.0  0.53900  0.30700  0.95000  1.0000
  Pb  Pb8       1.0  0.96100  0.80700  0.95000  1.0000
  Si  Si1       1.0  0.28200  0.41100  0.24800  1.0000
  Si  Si2       1.0  0.21800  0.91100  0.24800  1.0000
  Si  Si3       1.0  0.71800  0.41100  0.25200  1.0000
  Si  Si4       1.0  0.78200  0.91100  0.25200  1.0000
  Si  Si5       1.0  0.21800  0.08870  0.74800  1.0000
  Si  Si6       1.0  0.28200  0.58900  0.74800  1.0000
  Si  Si7       1.0  0.78200  0.08870  0.75200  1.0000
  Si  Si8       1.0  0.71800  0.58900  0.75200  1.0000
