data_image0
_chemical_formula_structural       Ga4Gd16S36Sb4
_chemical_formula_sum              "Ga4 Gd16 S36 Sb4"
_cell_length_a       9.96427
_cell_length_b       9.96427
_cell_length_c       13.6031
_cell_angle_alpha    90
_cell_angle_beta     90
_cell_angle_gamma    88.7646

_space_group_name_H-M_alt    "P 1"
_space_group_IT_number       1

loop_
  _space_group_symop_operation_xyz
  'x, y, z'

loop_
  _atom_site_type_symbol
  _atom_site_label
  _atom_site_symmetry_multiplicity
  _atom_site_fract_x
  _atom_site_fract_y
  _atom_site_fract_z
  _atom_site_occupancy
  Ga  Ga1       1.0  0.38700  0.17600  0.09100  1.0000
  Ga  Ga2       1.0  0.88700  0.67600  0.40900  1.0000
  Ga  Ga3       1.0  0.67600  0.88700  0.59100  1.0000
  Ga  Ga4       1.0  0.17600  0.38700  0.90900  1.0000
  Gd  Gd1       1.0  0.83800  0.18300  0.09980  1.0000
  Gd  Gd2       1.0  0.44800  0.66900  0.10400  1.0000
  Gd  Gd3       1.0  0.12600  0.45800  0.18500  1.0000
  Gd  Gd4       1.0  0.12800  0.90900  0.18800  1.0000
  Gd  Gd5       1.0  0.62800  0.40900  0.31200  1.0000
  Gd  Gd6       1.0  0.62600  0.95800  0.31500  1.0000
  Gd  Gd7       1.0  0.94800  0.16900  0.39600  1.0000
  Gd  Gd8       1.0  0.33800  0.68300  0.40000  1.0000
  Gd  Gd9       1.0  0.68300  0.33800  0.60000  1.0000
  Gd  Gd10      1.0  0.16900  0.94800  0.60400  1.0000
  Gd  Gd11      1.0  0.95800  0.62600  0.68500  1.0000
  Gd  Gd12      1.0  0.40900  0.62800  0.68800  1.0000
  Gd  Gd13      1.0  0.90900  0.12800  0.81200  1.0000
  Gd  Gd14      1.0  0.45800  0.12600  0.81500  1.0000
  Gd  Gd15      1.0  0.66900  0.44800  0.89600  1.0000
  Gd  Gd16      1.0  0.18300  0.83800  0.90000  1.0000
  S   S1        1.0  0.00495  0.00495  0.00000  1.0000
  S   S2        1.0  0.37400  0.37400  0.00000  1.0000
  S   S3        1.0  0.99400  0.38500  0.01160  1.0000
  S   S4        1.0  0.18000  0.68800  0.06940  1.0000
  S   S5        1.0  0.66100  0.84800  0.08180  1.0000
  S   S6        1.0  0.66300  0.48100  0.09960  1.0000
  S   S7        1.0  0.57600  0.17900  0.18900  1.0000
  S   S8        1.0  0.20700  0.18100  0.19800  1.0000
  S   S9        1.0  0.39100  0.85800  0.24500  1.0000
  S   S10       1.0  0.88100  0.99700  0.24700  1.0000
  S   S11       1.0  0.38100  0.49700  0.25300  1.0000
  S   S12       1.0  0.89100  0.35800  0.25500  1.0000
  S   S13       1.0  0.70700  0.68100  0.30200  1.0000
  S   S14       1.0  0.07640  0.67900  0.31100  1.0000
  S   S15       1.0  0.16300  0.98100  0.40000  1.0000
  S   S16       1.0  0.16100  0.34800  0.41800  1.0000
  S   S17       1.0  0.68000  0.18800  0.43100  1.0000
  S   S18       1.0  0.49400  0.88500  0.48800  1.0000
  S   S19       1.0  0.50500  0.50500  0.50000  1.0000
  S   S20       1.0  0.87400  0.87400  0.50000  1.0000
  S   S21       1.0  0.88500  0.49400  0.51200  1.0000
  S   S22       1.0  0.18800  0.68000  0.56900  1.0000
  S   S23       1.0  0.34800  0.16100  0.58200  1.0000
  S   S24       1.0  0.98100  0.16300  0.60000  1.0000
  S   S25       1.0  0.67900  0.07640  0.68900  1.0000
  S   S26       1.0  0.68100  0.70700  0.69800  1.0000
  S   S27       1.0  0.35800  0.89100  0.74500  1.0000
  S   S28       1.0  0.49700  0.38100  0.74700  1.0000
  S   S29       1.0  0.99700  0.88100  0.75300  1.0000
  S   S30       1.0  0.85800  0.39100  0.75500  1.0000
  S   S31       1.0  0.18100  0.20700  0.80200  1.0000
  S   S32       1.0  0.17900  0.57600  0.81100  1.0000
  S   S33       1.0  0.48100  0.66300  0.90000  1.0000
  S   S34       1.0  0.84800  0.66100  0.91800  1.0000
  S   S35       1.0  0.68800  0.18000  0.93100  1.0000
  S   S36       1.0  0.38500  0.99400  0.98800  1.0000
  Sb  Sb1       1.0  0.82700  0.66400  0.11300  1.0000
  Sb  Sb2       1.0  0.32700  0.16400  0.38700  1.0000
  Sb  Sb3       1.0  0.16400  0.32700  0.61300  1.0000
  Sb  Sb4       1.0  0.66400  0.82700  0.88700  1.0000
