data_image0
_chemical_formula_structural       K8Mg4O40P8W4
_chemical_formula_sum              "K8 Mg4 O40 P8 W4"
_cell_length_a       9.06636
_cell_length_b       9.10626
_cell_length_c       10.6797
_cell_angle_alpha    90.3928
_cell_angle_beta     90.682
_cell_angle_gamma    89.9837

_space_group_name_H-M_alt    "P 1"
_space_group_IT_number       1

loop_
  _space_group_symop_operation_xyz
  'x, y, z'

loop_
  _atom_site_type_symbol
  _atom_site_label
  _atom_site_symmetry_multiplicity
  _atom_site_fract_x
  _atom_site_fract_y
  _atom_site_fract_z
  _atom_site_occupancy
  K   K1        1.0  0.99400  0.72300  0.06510  1.0000
  K   K2        1.0  0.50600  0.19200  0.19300  1.0000
  K   K3        1.0  0.84500  0.50100  0.35200  1.0000
  K   K4        1.0  0.26800  0.99800  0.43900  1.0000
  K   K5        1.0  0.52100  0.75900  0.58600  1.0000
  K   K6        1.0  0.00119  0.33800  0.68100  1.0000
  K   K7        1.0  0.66600  0.00000  0.87100  1.0000
  K   K8        1.0  0.25400  0.47500  0.93400  1.0000
  Mg  Mg1       1.0  0.64800  0.62500  0.01950  1.0000
  Mg  Mg2       1.0  0.86300  0.12200  0.23700  1.0000
  Mg  Mg3       1.0  0.34500  0.35100  0.49300  1.0000
  Mg  Mg4       1.0  0.16400  0.83700  0.75000  1.0000
  O   O1        1.0  0.51500  0.81000  0.00837  1.0000
  O   O2        1.0  0.30700  0.99100  0.02230  1.0000
  O   O3        1.0  0.81600  0.46800  0.02680  1.0000
  O   O4        1.0  0.75900  0.19800  0.07440  1.0000
  O   O5        1.0  0.23000  0.25000  0.10500  1.0000
  O   O6        1.0  0.01610  0.02750  0.11700  1.0000
  O   O7        1.0  0.27800  0.75200  0.12900  1.0000
  O   O8        1.0  0.48900  0.53300  0.13300  1.0000
  O   O9        1.0  0.74200  0.70300  0.18400  1.0000
  O   O10       1.0  0.20100  0.48700  0.21300  1.0000
  O   O11       1.0  0.69300  0.97300  0.23700  1.0000
  O   O12       1.0  0.00347  0.29800  0.24100  1.0000
  O   O13       1.0  0.50400  0.78000  0.29300  1.0000
  O   O14       1.0  0.26000  0.25500  0.33700  1.0000
  O   O15       1.0  0.75100  0.23300  0.37000  1.0000
  O   O16       1.0  0.23200  0.71200  0.37400  1.0000
  O   O17       1.0  0.44500  0.49600  0.37800  1.0000
  O   O18       1.0  0.96000  0.99400  0.37800  1.0000
  O   O19       1.0  0.73800  0.78200  0.41000  1.0000
  O   O20       1.0  0.50800  0.18000  0.47500  1.0000
  O   O21       1.0  0.99500  0.70800  0.48800  1.0000
  O   O22       1.0  0.15600  0.48500  0.50200  1.0000
  O   O23       1.0  0.73800  0.04170  0.54400  1.0000
  O   O24       1.0  0.72000  0.30400  0.59500  1.0000
  O   O25       1.0  0.24200  0.72500  0.60700  1.0000
  O   O26       1.0  0.04050  0.95800  0.61800  1.0000
  O   O27       1.0  0.26100  0.22100  0.62100  1.0000
  O   O28       1.0  0.46500  0.46200  0.63300  1.0000
  O   O29       1.0  0.79100  0.80800  0.67000  1.0000
  O   O30       1.0  0.76100  0.54400  0.71200  1.0000
  O   O31       1.0  0.34600  0.98500  0.72800  1.0000
  O   O32       1.0  0.49200  0.21600  0.76400  1.0000
  O   O33       1.0  0.00459  0.66300  0.77300  1.0000
  O   O34       1.0  0.75400  0.28500  0.85000  1.0000
  O   O35       1.0  0.24100  0.20500  0.85200  1.0000
  O   O36       1.0  0.05590  0.96900  0.87600  1.0000
  O   O37       1.0  0.54500  0.50200  0.87700  1.0000
  O   O38       1.0  0.77200  0.73000  0.89200  1.0000
  O   O39       1.0  0.27100  0.75300  0.89700  1.0000
  O   O40       1.0  0.99100  0.26700  0.95700  1.0000
  P   P1        1.0  0.34800  0.82200  0.00961  1.0000
  P   P2        1.0  0.16800  0.31700  0.23000  1.0000
  P   P3        1.0  0.67500  0.81400  0.27500  1.0000
  P   P4        1.0  0.67400  0.19300  0.49100  1.0000
  P   P5        1.0  0.16100  0.65200  0.49700  1.0000
  P   P6        1.0  0.33100  0.15100  0.73600  1.0000
  P   P7        1.0  0.83900  0.68900  0.76700  1.0000
  P   P8        1.0  0.82300  0.31000  0.98400  1.0000
  W   W1        1.0  0.37800  0.60900  0.25400  1.0000
  W   W2        1.0  0.89800  0.90100  0.51300  1.0000
  W   W3        1.0  0.60100  0.40200  0.74200  1.0000
  W   W4        1.0  0.12000  0.09650  0.99100  1.0000
