data_image0
_chemical_formula_structural       Mo8O36Rb12U2
_chemical_formula_sum              "Mo8 O36 Rb12 U2"
_cell_length_a       10.3395
_cell_length_b       10.3395
_cell_length_c       12.2561
_cell_angle_alpha    104.077
_cell_angle_beta     105.935
_cell_angle_gamma    112.722

_space_group_name_H-M_alt    "P 1"
_space_group_IT_number       1

loop_
  _space_group_symop_operation_xyz
  'x, y, z'

loop_
  _atom_site_type_symbol
  _atom_site_label
  _atom_site_symmetry_multiplicity
  _atom_site_fract_x
  _atom_site_fract_y
  _atom_site_fract_z
  _atom_site_occupancy
  Mo  Mo1       1.0  0.79700  0.88000  0.04600  1.0000
  Mo  Mo2       1.0  0.27200  0.67800  0.07170  1.0000
  Mo  Mo3       1.0  0.10700  0.20100  0.42800  1.0000
  Mo  Mo4       1.0  0.33400  0.75100  0.45400  1.0000
  Mo  Mo5       1.0  0.66600  0.24900  0.54600  1.0000
  Mo  Mo6       1.0  0.89300  0.79900  0.57200  1.0000
  Mo  Mo7       1.0  0.72800  0.32200  0.92800  1.0000
  Mo  Mo8       1.0  0.20300  0.12000  0.95400  1.0000
  O   O1        1.0  0.96800  0.86800  0.06240  1.0000
  O   O2        1.0  0.83500  0.38000  0.08730  1.0000
  O   O3        1.0  0.34700  0.54500  0.09260  1.0000
  O   O4        1.0  0.68700  0.75000  0.10700  1.0000
  O   O5        1.0  0.31700  0.18900  0.11400  1.0000
  O   O6        1.0  0.83500  0.06740  0.12400  1.0000
  O   O7        1.0  0.42300  0.86900  0.12500  1.0000
  O   O8        1.0  0.59000  0.45600  0.12500  1.0000
  O   O9        1.0  0.15100  0.67500  0.15000  1.0000
  O   O10       1.0  0.02480  0.00166  0.35000  1.0000
  O   O11       1.0  0.83100  0.46500  0.37500  1.0000
  O   O12       1.0  0.24400  0.29800  0.37500  1.0000
  O   O13       1.0  0.44400  0.71100  0.37600  1.0000
  O   O14       1.0  0.57500  0.20300  0.38600  1.0000
  O   O15       1.0  0.14200  0.58000  0.39300  1.0000
  O   O16       1.0  0.95200  0.25500  0.40700  1.0000
  O   O17       1.0  0.79200  0.74800  0.41300  1.0000
  O   O18       1.0  0.30600  0.90500  0.43800  1.0000
  O   O19       1.0  0.69400  0.09490  0.56200  1.0000
  O   O20       1.0  0.20800  0.25200  0.58700  1.0000
  O   O21       1.0  0.04770  0.74500  0.59300  1.0000
  O   O22       1.0  0.85800  0.42000  0.60700  1.0000
  O   O23       1.0  0.42500  0.79700  0.61400  1.0000
  O   O24       1.0  0.55600  0.28900  0.62400  1.0000
  O   O25       1.0  0.75600  0.70200  0.62500  1.0000
  O   O26       1.0  0.16900  0.53500  0.62500  1.0000
  O   O27       1.0  0.97500  0.99800  0.65000  1.0000
  O   O28       1.0  0.84900  0.32500  0.85000  1.0000
  O   O29       1.0  0.41000  0.54400  0.87500  1.0000
  O   O30       1.0  0.57700  0.13100  0.87500  1.0000
  O   O31       1.0  0.16500  0.93300  0.87600  1.0000
  O   O32       1.0  0.68300  0.81100  0.88600  1.0000
  O   O33       1.0  0.31300  0.25000  0.89300  1.0000
  O   O34       1.0  0.65300  0.45500  0.90700  1.0000
  O   O35       1.0  0.16500  0.62000  0.91300  1.0000
  O   O36       1.0  0.03240  0.13200  0.93800  1.0000
  Rb  Rb1       1.0  0.62700  0.17900  0.16100  1.0000
  Rb  Rb2       1.0  0.09480  0.35100  0.16600  1.0000
  Rb  Rb3       1.0  0.26000  0.00999  0.25000  1.0000
  Rb  Rb4       1.0  0.93500  0.68500  0.25000  1.0000
  Rb  Rb5       1.0  0.68500  0.92900  0.33400  1.0000
  Rb  Rb6       1.0  0.51800  0.46500  0.33900  1.0000
  Rb  Rb7       1.0  0.48200  0.53500  0.66100  1.0000
  Rb  Rb8       1.0  0.31500  0.07140  0.66600  1.0000
  Rb  Rb9       1.0  0.06480  0.31500  0.75000  1.0000
  Rb  Rb10      1.0  0.74000  0.99000  0.75000  1.0000
  Rb  Rb11      1.0  0.90500  0.64900  0.83400  1.0000
  Rb  Rb12      1.0  0.37300  0.82100  0.83900  1.0000
  U   U1        1.0  0.50000  0.50000  0.00000  1.0000
  U   U2        1.0  0.00000  0.50000  0.50000  1.0000
