data_image0
_chemical_formula_structural       S36Sb16Yb12
_chemical_formula_sum              "S36 Sb16 Yb12"
_cell_length_a       16.2259
_cell_length_b       3.90517
_cell_length_c       23.8547
_cell_angle_alpha    90
_cell_angle_beta     90
_cell_angle_gamma    90

_space_group_name_H-M_alt    "P 1"
_space_group_IT_number       1

loop_
  _space_group_symop_operation_xyz
  'x, y, z'

loop_
  _atom_site_type_symbol
  _atom_site_label
  _atom_site_symmetry_multiplicity
  _atom_site_fract_x
  _atom_site_fract_y
  _atom_site_fract_z
  _atom_site_occupancy
  S   S1        1.0  0.74600  0.25000  0.03000  1.0000
  S   S2        1.0  0.55400  0.75000  0.03390  1.0000
  S   S3        1.0  0.07040  0.75000  0.07690  1.0000
  S   S4        1.0  0.25200  0.25000  0.09570  1.0000
  S   S5        1.0  0.44600  0.25000  0.14000  1.0000
  S   S6        1.0  0.86700  0.75000  0.15800  1.0000
  S   S7        1.0  0.63500  0.75000  0.19800  1.0000
  S   S8        1.0  0.04240  0.25000  0.20300  1.0000
  S   S9        1.0  0.29500  0.25000  0.22300  1.0000
  S   S10       1.0  0.79500  0.25000  0.27700  1.0000
  S   S11       1.0  0.54200  0.25000  0.29700  1.0000
  S   S12       1.0  0.13500  0.75000  0.30200  1.0000
  S   S13       1.0  0.36700  0.75000  0.34200  1.0000
  S   S14       1.0  0.94600  0.25000  0.36000  1.0000
  S   S15       1.0  0.75200  0.25000  0.40400  1.0000
  S   S16       1.0  0.57000  0.75000  0.42300  1.0000
  S   S17       1.0  0.05410  0.75000  0.46600  1.0000
  S   S18       1.0  0.24600  0.25000  0.47000  1.0000
  S   S19       1.0  0.75400  0.75000  0.53000  1.0000
  S   S20       1.0  0.94600  0.25000  0.53400  1.0000
  S   S21       1.0  0.43000  0.25000  0.57700  1.0000
  S   S22       1.0  0.24800  0.75000  0.59600  1.0000
  S   S23       1.0  0.05440  0.75000  0.64000  1.0000
  S   S24       1.0  0.63300  0.25000  0.65800  1.0000
  S   S25       1.0  0.86500  0.25000  0.69800  1.0000
  S   S26       1.0  0.45800  0.75000  0.70300  1.0000
  S   S27       1.0  0.20500  0.75000  0.72300  1.0000
  S   S28       1.0  0.70500  0.75000  0.77700  1.0000
  S   S29       1.0  0.95800  0.75000  0.79700  1.0000
  S   S30       1.0  0.36500  0.25000  0.80200  1.0000
  S   S31       1.0  0.13300  0.25000  0.84200  1.0000
  S   S32       1.0  0.55400  0.75000  0.86000  1.0000
  S   S33       1.0  0.74800  0.75000  0.90400  1.0000
  S   S34       1.0  0.93000  0.25000  0.92300  1.0000
  S   S35       1.0  0.44600  0.25000  0.96600  1.0000
  S   S36       1.0  0.25400  0.75000  0.97000  1.0000
  Sb  Sb1       1.0  0.16800  0.25000  0.01030  1.0000
  Sb  Sb2       1.0  0.58700  0.25000  0.10300  1.0000
  Sb  Sb3       1.0  0.97100  0.25000  0.11200  1.0000
  Sb  Sb4       1.0  0.75100  0.25000  0.17900  1.0000
  Sb  Sb5       1.0  0.25100  0.25000  0.32100  1.0000
  Sb  Sb6       1.0  0.47100  0.25000  0.38800  1.0000
  Sb  Sb7       1.0  0.08750  0.25000  0.39700  1.0000
  Sb  Sb8       1.0  0.66800  0.25000  0.49000  1.0000
  Sb  Sb9       1.0  0.33200  0.75000  0.51000  1.0000
  Sb  Sb10      1.0  0.91300  0.75000  0.60300  1.0000
  Sb  Sb11      1.0  0.52900  0.75000  0.61200  1.0000
  Sb  Sb12      1.0  0.74900  0.75000  0.67900  1.0000
  Sb  Sb13      1.0  0.24900  0.75000  0.82100  1.0000
  Sb  Sb14      1.0  0.02870  0.75000  0.88800  1.0000
  Sb  Sb15      1.0  0.41300  0.75000  0.89700  1.0000
  Sb  Sb16      1.0  0.83200  0.75000  0.99000  1.0000
  Yb  Yb1       1.0  0.37400  0.75000  0.06080  1.0000
  Yb  Yb2       1.0  0.17400  0.75000  0.17800  1.0000
  Yb  Yb3       1.0  0.44200  0.75000  0.23400  1.0000
  Yb  Yb4       1.0  0.94200  0.75000  0.26600  1.0000
  Yb  Yb5       1.0  0.67400  0.75000  0.32200  1.0000
  Yb  Yb6       1.0  0.87400  0.75000  0.43900  1.0000
  Yb  Yb7       1.0  0.12600  0.25000  0.56100  1.0000
  Yb  Yb8       1.0  0.32600  0.25000  0.67800  1.0000
  Yb  Yb9       1.0  0.05770  0.25000  0.73400  1.0000
  Yb  Yb10      1.0  0.55800  0.25000  0.76600  1.0000
  Yb  Yb11      1.0  0.82600  0.25000  0.82200  1.0000
  Yb  Yb12      1.0  0.62600  0.25000  0.93900  1.0000
