data_image0
_chemical_formula_structural       B12Li12O36Pr8
_chemical_formula_sum              "B12 Li12 O36 Pr8"
_cell_length_a       8.75912
_cell_length_b       14.129
_cell_length_c       5.59578
_cell_angle_alpha    90
_cell_angle_beta     103.277
_cell_angle_gamma    90

_space_group_name_H-M_alt    "P 1"
_space_group_IT_number       1

loop_
  _space_group_symop_operation_xyz
  'x, y, z'

loop_
  _atom_site_type_symbol
  _atom_site_label
  _atom_site_symmetry_multiplicity
  _atom_site_fract_x
  _atom_site_fract_y
  _atom_site_fract_z
  _atom_site_occupancy
  B   B1        1.0  0.52000  0.17700  0.40800  1.0000
  B   B2        1.0  0.98000  0.67700  0.09160  1.0000
  B   B3        1.0  0.48000  0.82300  0.59200  1.0000
  B   B4        1.0  0.01950  0.32300  0.90800  1.0000
  B   B5        1.0  0.48800  0.48700  0.75000  1.0000
  B   B6        1.0  0.01200  0.98700  0.75000  1.0000
  B   B7        1.0  0.51200  0.51300  0.25000  1.0000
  B   B8        1.0  0.98800  0.01280  0.25000  1.0000
  B   B9        1.0  0.52700  0.16300  0.91000  1.0000
  B   B10       1.0  0.97300  0.66300  0.59000  1.0000
  B   B11       1.0  0.47300  0.83700  0.08980  1.0000
  B   B12       1.0  0.02680  0.33700  0.41000  1.0000
  Li  Li1       1.0  0.29400  0.38600  0.34300  1.0000
  Li  Li2       1.0  0.20600  0.88600  0.15700  1.0000
  Li  Li3       1.0  0.70600  0.61400  0.65700  1.0000
  Li  Li4       1.0  0.79400  0.11400  0.84300  1.0000
  Li  Li5       1.0  0.48400  0.33300  0.06930  1.0000
  Li  Li6       1.0  0.01610  0.83300  0.43100  1.0000
  Li  Li7       1.0  0.51600  0.66700  0.93100  1.0000
  Li  Li8       1.0  0.98400  0.16700  0.56900  1.0000
  Li  Li9       1.0  0.29600  0.28300  0.69900  1.0000
  Li  Li10      1.0  0.20400  0.78300  0.80100  1.0000
  Li  Li11      1.0  0.70400  0.71700  0.30100  1.0000
  Li  Li12      1.0  0.79600  0.21700  0.19900  1.0000
  O   O1        1.0  0.14900  0.00534  0.29400  1.0000
  O   O2        1.0  0.35100  0.50500  0.20600  1.0000
  O   O3        1.0  0.85100  0.99500  0.70600  1.0000
  O   O4        1.0  0.64900  0.49500  0.79400  1.0000
  O   O5        1.0  0.41700  0.40000  0.72800  1.0000
  O   O6        1.0  0.08290  0.90000  0.77200  1.0000
  O   O7        1.0  0.58300  0.60000  0.27200  1.0000
  O   O8        1.0  0.91700  0.10000  0.22800  1.0000
  O   O9        1.0  0.10100  0.06820  0.77300  1.0000
  O   O10       1.0  0.39900  0.56800  0.72700  1.0000
  O   O11       1.0  0.89900  0.93200  0.22700  1.0000
  O   O12       1.0  0.60100  0.43200  0.27300  1.0000
  O   O13       1.0  0.68200  0.17100  0.47000  1.0000
  O   O14       1.0  0.81800  0.67100  0.02990  1.0000
  O   O15       1.0  0.31800  0.82900  0.53000  1.0000
  O   O16       1.0  0.18200  0.32900  0.97000  1.0000
  O   O17       1.0  0.44200  0.26200  0.36400  1.0000
  O   O18       1.0  0.05830  0.76200  0.13600  1.0000
  O   O19       1.0  0.55800  0.73800  0.63600  1.0000
  O   O20       1.0  0.94200  0.23800  0.86400  1.0000
  O   O21       1.0  0.43400  0.09410  0.38300  1.0000
  O   O22       1.0  0.06610  0.59400  0.11700  1.0000
  O   O23       1.0  0.56600  0.90600  0.61700  1.0000
  O   O24       1.0  0.93400  0.40600  0.88300  1.0000
  O   O25       1.0  0.61700  0.24300  0.94700  1.0000
  O   O26       1.0  0.88300  0.74300  0.55300  1.0000
  O   O27       1.0  0.38300  0.75700  0.05330  1.0000
  O   O28       1.0  0.11700  0.25700  0.44700  1.0000
  O   O29       1.0  0.59400  0.07450  0.92000  1.0000
  O   O30       1.0  0.90600  0.57400  0.58000  1.0000
  O   O31       1.0  0.40600  0.92600  0.07980  1.0000
  O   O32       1.0  0.09430  0.42600  0.42000  1.0000
  O   O33       1.0  0.36600  0.16800  0.85700  1.0000
  O   O34       1.0  0.13400  0.66800  0.64300  1.0000
  O   O35       1.0  0.63400  0.83200  0.14300  1.0000
  O   O36       1.0  0.86600  0.33200  0.35700  1.0000
  Pr  Pr1       1.0  0.19100  0.16300  0.13600  1.0000
  Pr  Pr2       1.0  0.30900  0.66300  0.36400  1.0000
  Pr  Pr3       1.0  0.80900  0.83700  0.86400  1.0000
  Pr  Pr4       1.0  0.69100  0.33700  0.63600  1.0000
  Pr  Pr5       1.0  0.33900  0.00124  0.68700  1.0000
  Pr  Pr6       1.0  0.16100  0.50100  0.81300  1.0000
  Pr  Pr7       1.0  0.66100  0.99900  0.31300  1.0000
  Pr  Pr8       1.0  0.83900  0.49900  0.18700  1.0000
