data_image0
_chemical_formula_structural       Ba4F32H24
_chemical_formula_sum              "Ba4 F32 H24"
_cell_length_a       7.56702
_cell_length_b       7.56701
_cell_length_c       11.7536
_cell_angle_alpha    90
_cell_angle_beta     90
_cell_angle_gamma    120.002

_space_group_name_H-M_alt    "P 1"
_space_group_IT_number       1

loop_
  _space_group_symop_operation_xyz
  'x, y, z'

loop_
  _atom_site_type_symbol
  _atom_site_label
  _atom_site_symmetry_multiplicity
  _atom_site_fract_x
  _atom_site_fract_y
  _atom_site_fract_z
  _atom_site_occupancy
  Ba  Ba1       1.0  0.33300  0.66700  0.06040  1.0000
  Ba  Ba2       1.0  0.33300  0.66700  0.44000  1.0000
  Ba  Ba3       1.0  0.66700  0.33300  0.56000  1.0000
  Ba  Ba4       1.0  0.66700  0.33300  0.94000  1.0000
  F   F1        1.0  0.00000  0.00000  0.00000  1.0000
  F   F2        1.0  0.69600  0.00000  0.00000  1.0000
  F   F3        1.0  0.30400  0.30400  0.00000  1.0000
  F   F4        1.0  0.00000  0.69600  0.00000  1.0000
  F   F5        1.0  0.44300  0.07120  0.11000  1.0000
  F   F6        1.0  0.62800  0.55700  0.11000  1.0000
  F   F7        1.0  0.92900  0.37200  0.11000  1.0000
  F   F8        1.0  0.25600  0.12600  0.25000  1.0000
  F   F9        1.0  0.87400  0.13000  0.25000  1.0000
  F   F10       1.0  0.26600  0.43600  0.25000  1.0000
  F   F11       1.0  0.17000  0.73400  0.25000  1.0000
  F   F12       1.0  0.87000  0.74400  0.25000  1.0000
  F   F13       1.0  0.56300  0.83000  0.25000  1.0000
  F   F14       1.0  0.92900  0.37200  0.39000  1.0000
  F   F15       1.0  0.62800  0.55700  0.39000  1.0000
  F   F16       1.0  0.44300  0.07120  0.39000  1.0000
  F   F17       1.0  0.69600  0.00000  0.50000  1.0000
  F   F18       1.0  0.00000  0.00000  0.50000  1.0000
  F   F19       1.0  0.30400  0.30400  0.50000  1.0000
  F   F20       1.0  0.00000  0.69600  0.50000  1.0000
  F   F21       1.0  0.07120  0.44300  0.61000  1.0000
  F   F22       1.0  0.55700  0.62800  0.61000  1.0000
  F   F23       1.0  0.37200  0.92900  0.61000  1.0000
  F   F24       1.0  0.73400  0.17000  0.75000  1.0000
  F   F25       1.0  0.12600  0.25600  0.75000  1.0000
  F   F26       1.0  0.43600  0.26600  0.75000  1.0000
  F   F27       1.0  0.83000  0.56300  0.75000  1.0000
  F   F28       1.0  0.74400  0.87000  0.75000  1.0000
  F   F29       1.0  0.13000  0.87400  0.75000  1.0000
  F   F30       1.0  0.37200  0.92900  0.89000  1.0000
  F   F31       1.0  0.55700  0.62800  0.89000  1.0000
  F   F32       1.0  0.07120  0.44300  0.89000  1.0000
  H   H1        1.0  0.82900  0.00000  0.00000  1.0000
  H   H2        1.0  0.17100  0.17100  0.00000  1.0000
  H   H3        1.0  0.00000  0.82900  0.00000  1.0000
  H   H4        1.0  0.90200  0.26100  0.16700  1.0000
  H   H5        1.0  0.35900  0.09830  0.16700  1.0000
  H   H6        1.0  0.73900  0.64100  0.16700  1.0000
  H   H7        1.0  0.26400  0.30000  0.25000  1.0000
  H   H8        1.0  0.03590  0.73600  0.25000  1.0000
  H   H9        1.0  0.70000  0.96400  0.25000  1.0000
  H   H10       1.0  0.35900  0.09830  0.33300  1.0000
  H   H11       1.0  0.73900  0.64100  0.33300  1.0000
  H   H12       1.0  0.90200  0.26100  0.33300  1.0000
  H   H13       1.0  0.82900  0.00000  0.50000  1.0000
  H   H14       1.0  0.17100  0.17100  0.50000  1.0000
  H   H15       1.0  0.00000  0.82900  0.50000  1.0000
  H   H16       1.0  0.26100  0.90200  0.66700  1.0000
  H   H17       1.0  0.09830  0.35900  0.66700  1.0000
  H   H18       1.0  0.64100  0.73900  0.66700  1.0000
  H   H19       1.0  0.73600  0.03590  0.75000  1.0000
  H   H20       1.0  0.30000  0.26400  0.75000  1.0000
  H   H21       1.0  0.96400  0.70000  0.75000  1.0000
  H   H22       1.0  0.09830  0.35900  0.83300  1.0000
  H   H23       1.0  0.64100  0.73900  0.83300  1.0000
  H   H24       1.0  0.26100  0.90200  0.83300  1.0000
