data_image0
_chemical_formula_structural       K2Mn10O36Se12
_chemical_formula_sum              "K2 Mn10 O36 Se12"
_cell_length_a       9.63802
_cell_length_b       10.1053
_cell_length_c       10.1053
_cell_angle_alpha    59.981
_cell_angle_beta     91.2164
_cell_angle_gamma    91.2164

_space_group_name_H-M_alt    "P 1"
_space_group_IT_number       1

loop_
  _space_group_symop_operation_xyz
  'x, y, z'

loop_
  _atom_site_type_symbol
  _atom_site_label
  _atom_site_symmetry_multiplicity
  _atom_site_fract_x
  _atom_site_fract_y
  _atom_site_fract_z
  _atom_site_occupancy
  K   K1        1.0  0.75000  0.99900  0.00095  1.0000
  K   K2        1.0  0.25000  0.00095  0.99900  1.0000
  Mn  Mn1       1.0  0.25100  0.63100  0.00187  1.0000
  Mn  Mn2       1.0  0.83500  0.33100  0.33000  1.0000
  Mn  Mn3       1.0  0.33500  0.33000  0.33100  1.0000
  Mn  Mn4       1.0  0.24900  0.99800  0.36900  1.0000
  Mn  Mn5       1.0  0.75000  0.61800  0.38200  1.0000
  Mn  Mn6       1.0  0.25000  0.38200  0.61800  1.0000
  Mn  Mn7       1.0  0.75100  0.00187  0.63100  1.0000
  Mn  Mn8       1.0  0.66500  0.67000  0.66900  1.0000
  Mn  Mn9       1.0  0.16500  0.66900  0.67000  1.0000
  Mn  Mn10      1.0  0.74900  0.36900  0.99800  1.0000
  O   O1        1.0  0.63500  0.16000  0.12200  1.0000
  O   O2        1.0  0.14200  0.70800  0.13400  1.0000
  O   O3        1.0  0.68700  0.45800  0.14600  1.0000
  O   O4        1.0  0.18700  0.39400  0.15000  1.0000
  O   O5        1.0  0.92400  0.29800  0.15700  1.0000
  O   O6        1.0  0.13500  0.12200  0.16000  1.0000
  O   O7        1.0  0.42900  0.54000  0.16000  1.0000
  O   O8        1.0  0.65000  0.70400  0.18300  1.0000
  O   O9        1.0  0.35800  0.86600  0.29200  1.0000
  O   O10       1.0  0.85000  0.81700  0.29600  1.0000
  O   O11       1.0  0.42400  0.15700  0.29800  1.0000
  O   O12       1.0  0.92600  0.53500  0.31000  1.0000
  O   O13       1.0  0.68700  0.15000  0.39400  1.0000
  O   O14       1.0  0.18600  0.45200  0.40700  1.0000
  O   O15       1.0  0.68600  0.40700  0.45200  1.0000
  O   O16       1.0  0.18700  0.14600  0.45800  1.0000
  O   O17       1.0  0.07090  0.84000  0.46000  1.0000
  O   O18       1.0  0.57400  0.69000  0.46500  1.0000
  O   O19       1.0  0.42600  0.31000  0.53500  1.0000
  O   O20       1.0  0.92900  0.16000  0.54000  1.0000
  O   O21       1.0  0.81300  0.85400  0.54200  1.0000
  O   O22       1.0  0.31400  0.59300  0.54800  1.0000
  O   O23       1.0  0.81400  0.54800  0.59300  1.0000
  O   O24       1.0  0.31300  0.85000  0.60600  1.0000
  O   O25       1.0  0.07380  0.46500  0.69000  1.0000
  O   O26       1.0  0.57600  0.84300  0.70200  1.0000
  O   O27       1.0  0.15000  0.18300  0.70400  1.0000
  O   O28       1.0  0.64200  0.13400  0.70800  1.0000
  O   O29       1.0  0.35000  0.29600  0.81700  1.0000
  O   O30       1.0  0.57100  0.46000  0.84000  1.0000
  O   O31       1.0  0.86500  0.87800  0.84000  1.0000
  O   O32       1.0  0.07610  0.70200  0.84300  1.0000
  O   O33       1.0  0.81300  0.60600  0.85000  1.0000
  O   O34       1.0  0.31300  0.54200  0.85400  1.0000
  O   O35       1.0  0.85800  0.29200  0.86600  1.0000
  O   O36       1.0  0.36500  0.84000  0.87800  1.0000
  Se  Se1       1.0  0.08170  0.30900  0.07100  1.0000
  Se  Se2       1.0  0.58800  0.61800  0.07960  1.0000
  Se  Se3       1.0  0.58200  0.07100  0.30900  1.0000
  Se  Se4       1.0  0.08300  0.61900  0.31600  1.0000
  Se  Se5       1.0  0.41700  0.68400  0.38100  1.0000
  Se  Se6       1.0  0.91200  0.92000  0.38200  1.0000
  Se  Se7       1.0  0.08830  0.07960  0.61800  1.0000
  Se  Se8       1.0  0.58300  0.31600  0.61900  1.0000
  Se  Se9       1.0  0.91700  0.38100  0.68400  1.0000
  Se  Se10      1.0  0.41800  0.92900  0.69100  1.0000
  Se  Se11      1.0  0.41200  0.38200  0.92000  1.0000
  Se  Se12      1.0  0.91800  0.69100  0.92900  1.0000
