data_image0
_chemical_formula_structural       Ag17Mg54
_chemical_formula_sum              "Ag17 Mg54"
_cell_length_a       12.3892
_cell_length_b       12.3892
_cell_length_c       12.3892
_cell_angle_alpha    110.165
_cell_angle_beta     107.7
_cell_angle_gamma    110.563

_space_group_name_H-M_alt    "P 1"
_space_group_IT_number       1

loop_
  _space_group_symop_operation_xyz
  'x, y, z'

loop_
  _atom_site_type_symbol
  _atom_site_label
  _atom_site_symmetry_multiplicity
  _atom_site_fract_x
  _atom_site_fract_y
  _atom_site_fract_z
  _atom_site_occupancy
  Ag  Ag1       1.0  0.50000  0.50000  0.00000  1.0000
  Ag  Ag2       1.0  0.29000  0.83300  0.12300  1.0000
  Ag  Ag3       1.0  0.16900  0.00000  0.16900  1.0000
  Ag  Ag4       1.0  0.16800  0.37600  0.20800  1.0000
  Ag  Ag5       1.0  0.83200  0.03990  0.20800  1.0000
  Ag  Ag6       1.0  0.03410  0.70100  0.33300  1.0000
  Ag  Ag7       1.0  0.63200  0.29900  0.33300  1.0000
  Ag  Ag8       1.0  0.29000  0.16700  0.45800  1.0000
  Ag  Ag9       1.0  0.31000  0.81000  0.50000  1.0000
  Ag  Ag10      1.0  0.69000  0.19000  0.50000  1.0000
  Ag  Ag11      1.0  0.71000  0.83300  0.54200  1.0000
  Ag  Ag12      1.0  0.96600  0.29900  0.66700  1.0000
  Ag  Ag13      1.0  0.36800  0.70100  0.66700  1.0000
  Ag  Ag14      1.0  0.16800  0.96000  0.79200  1.0000
  Ag  Ag15      1.0  0.83200  0.62400  0.79200  1.0000
  Ag  Ag16      1.0  0.83100  0.00000  0.83100  1.0000
  Ag  Ag17      1.0  0.71000  0.16700  0.87700  1.0000
  Mg  Mg1       1.0  0.11400  0.11400  0.00000  1.0000
  Mg  Mg2       1.0  0.88600  0.88600  0.00000  1.0000
  Mg  Mg3       1.0  0.37200  0.07920  0.06550  1.0000
  Mg  Mg4       1.0  0.98600  0.69400  0.06550  1.0000
  Mg  Mg5       1.0  0.39700  0.67900  0.07550  1.0000
  Mg  Mg6       1.0  0.90200  0.18300  0.08510  1.0000
  Mg  Mg7       1.0  0.66800  0.20000  0.10500  1.0000
  Mg  Mg8       1.0  0.90500  0.43700  0.10500  1.0000
  Mg  Mg9       1.0  0.32500  0.43300  0.10800  1.0000
  Mg  Mg10      1.0  0.67500  0.78300  0.10800  1.0000
  Mg  Mg11      1.0  0.55700  0.38900  0.16800  1.0000
  Mg  Mg12      1.0  0.77900  0.61100  0.16800  1.0000
  Mg  Mg13      1.0  0.20300  0.62100  0.20100  1.0000
  Mg  Mg14      1.0  0.58000  0.99900  0.20100  1.0000
  Mg  Mg15      1.0  0.09840  0.18300  0.28200  1.0000
  Mg  Mg16      1.0  0.60300  0.67900  0.28200  1.0000
  Mg  Mg17      1.0  0.37200  0.30600  0.29300  1.0000
  Mg  Mg18      1.0  0.98600  0.92100  0.29300  1.0000
  Mg  Mg19      1.0  0.43800  0.10200  0.33600  1.0000
  Mg  Mg20      1.0  0.23300  0.89800  0.33600  1.0000
  Mg  Mg21      1.0  0.85400  0.50000  0.35400  1.0000
  Mg  Mg22      1.0  0.50000  0.88400  0.38400  1.0000
  Mg  Mg23      1.0  0.12500  0.51900  0.39300  1.0000
  Mg  Mg24      1.0  0.87500  0.26800  0.39300  1.0000
  Mg  Mg25      1.0  0.42000  0.62100  0.41800  1.0000
  Mg  Mg26      1.0  0.79700  0.99900  0.41800  1.0000
  Mg  Mg27      1.0  0.66800  0.56300  0.46800  1.0000
  Mg  Mg28      1.0  0.90500  0.80000  0.46800  1.0000
  Mg  Mg29      1.0  0.09530  0.20000  0.53200  1.0000
  Mg  Mg30      1.0  0.33200  0.43700  0.53200  1.0000
  Mg  Mg31      1.0  0.20300  0.00131  0.58200  1.0000
  Mg  Mg32      1.0  0.58000  0.37900  0.58200  1.0000
  Mg  Mg33      1.0  0.12500  0.73200  0.60700  1.0000
  Mg  Mg34      1.0  0.87500  0.48100  0.60700  1.0000
  Mg  Mg35      1.0  0.50000  0.11600  0.61600  1.0000
  Mg  Mg36      1.0  0.14600  0.50000  0.64600  1.0000
  Mg  Mg37      1.0  0.56200  0.89800  0.66400  1.0000
  Mg  Mg38      1.0  0.76700  0.10200  0.66400  1.0000
  Mg  Mg39      1.0  0.01370  0.07920  0.70700  1.0000
  Mg  Mg40      1.0  0.62800  0.69400  0.70700  1.0000
  Mg  Mg41      1.0  0.39700  0.32100  0.71800  1.0000
  Mg  Mg42      1.0  0.90200  0.81700  0.71800  1.0000
  Mg  Mg43      1.0  0.42000  0.00131  0.79900  1.0000
  Mg  Mg44      1.0  0.79700  0.37900  0.79900  1.0000
  Mg  Mg45      1.0  0.22100  0.38900  0.83200  1.0000
  Mg  Mg46      1.0  0.44300  0.61100  0.83200  1.0000
  Mg  Mg47      1.0  0.32500  0.21700  0.89200  1.0000
  Mg  Mg48      1.0  0.67500  0.56700  0.89200  1.0000
  Mg  Mg49      1.0  0.09530  0.56300  0.89500  1.0000
  Mg  Mg50      1.0  0.33200  0.80000  0.89500  1.0000
  Mg  Mg51      1.0  0.09840  0.81700  0.91500  1.0000
  Mg  Mg52      1.0  0.60300  0.32100  0.92400  1.0000
  Mg  Mg53      1.0  0.01370  0.30600  0.93500  1.0000
  Mg  Mg54      1.0  0.62800  0.92100  0.93500  1.0000
