data_image0
_chemical_formula_structural       B20K4O36Sr4
_chemical_formula_sum              "B20 K4 O36 Sr4"
_cell_length_a       6.67178
_cell_length_b       7.75686
_cell_length_c       14.1258
_cell_angle_alpha    90
_cell_angle_beta     93.2166
_cell_angle_gamma    90

_space_group_name_H-M_alt    "P 1"
_space_group_IT_number       1

loop_
  _space_group_symop_operation_xyz
  'x, y, z'

loop_
  _atom_site_type_symbol
  _atom_site_label
  _atom_site_symmetry_multiplicity
  _atom_site_fract_x
  _atom_site_fract_y
  _atom_site_fract_z
  _atom_site_occupancy
  B   B1        1.0  0.83000  0.69900  0.06070  1.0000
  B   B2        1.0  0.93700  0.28600  0.06550  1.0000
  B   B3        1.0  0.18900  0.78900  0.10000  1.0000
  B   B4        1.0  0.53500  0.72800  0.16900  1.0000
  B   B5        1.0  0.37800  0.01080  0.19100  1.0000
  B   B6        1.0  0.62200  0.51100  0.30900  1.0000
  B   B7        1.0  0.46500  0.22800  0.33100  1.0000
  B   B8        1.0  0.81100  0.28900  0.40000  1.0000
  B   B9        1.0  0.06270  0.78600  0.43400  1.0000
  B   B10       1.0  0.17000  0.19900  0.43900  1.0000
  B   B11       1.0  0.83000  0.80100  0.56100  1.0000
  B   B12       1.0  0.93700  0.21400  0.56600  1.0000
  B   B13       1.0  0.18900  0.71100  0.60000  1.0000
  B   B14       1.0  0.53500  0.77200  0.66900  1.0000
  B   B15       1.0  0.37800  0.48900  0.69100  1.0000
  B   B16       1.0  0.62200  0.98900  0.80900  1.0000
  B   B17       1.0  0.46500  0.27200  0.83100  1.0000
  B   B18       1.0  0.81100  0.21100  0.90000  1.0000
  B   B19       1.0  0.06270  0.71400  0.93400  1.0000
  B   B20       1.0  0.17000  0.30100  0.93900  1.0000
  K   K1        1.0  0.50200  0.34900  0.10200  1.0000
  K   K2        1.0  0.49800  0.84900  0.39800  1.0000
  K   K3        1.0  0.50200  0.15100  0.60200  1.0000
  K   K4        1.0  0.49800  0.65100  0.89800  1.0000
  O   O1        1.0  0.79300  0.22300  0.00118  1.0000
  O   O2        1.0  0.12600  0.33300  0.03220  1.0000
  O   O3        1.0  0.63500  0.68400  0.08100  1.0000
  O   O4        1.0  0.97900  0.74400  0.12800  1.0000
  O   O5        1.0  0.21400  0.96900  0.13300  1.0000
  O   O6        1.0  0.32700  0.67600  0.15600  1.0000
  O   O7        1.0  0.90200  0.30500  0.15800  1.0000
  O   O8        1.0  0.55400  0.91800  0.19000  1.0000
  O   O9        1.0  0.35400  0.14800  0.24900  1.0000
  O   O10       1.0  0.64600  0.64800  0.25100  1.0000
  O   O11       1.0  0.44600  0.41800  0.31000  1.0000
  O   O12       1.0  0.09760  0.80500  0.34200  1.0000
  O   O13       1.0  0.67300  0.17600  0.34400  1.0000
  O   O14       1.0  0.78600  0.46900  0.36700  1.0000
  O   O15       1.0  0.02140  0.24400  0.37200  1.0000
  O   O16       1.0  0.36500  0.18400  0.41900  1.0000
  O   O17       1.0  0.87400  0.83300  0.46800  1.0000
  O   O18       1.0  0.20700  0.72300  0.49900  1.0000
  O   O19       1.0  0.79300  0.27700  0.50100  1.0000
  O   O20       1.0  0.12600  0.16700  0.53200  1.0000
  O   O21       1.0  0.63500  0.81600  0.58100  1.0000
  O   O22       1.0  0.97900  0.75600  0.62800  1.0000
  O   O23       1.0  0.21400  0.53100  0.63300  1.0000
  O   O24       1.0  0.32700  0.82400  0.65600  1.0000
  O   O25       1.0  0.90200  0.19500  0.65800  1.0000
  O   O26       1.0  0.55400  0.58200  0.69000  1.0000
  O   O27       1.0  0.35400  0.35200  0.74900  1.0000
  O   O28       1.0  0.64600  0.85200  0.75100  1.0000
  O   O29       1.0  0.44600  0.08190  0.81000  1.0000
  O   O30       1.0  0.09760  0.69500  0.84200  1.0000
  O   O31       1.0  0.67300  0.32400  0.84400  1.0000
  O   O32       1.0  0.78600  0.03080  0.86700  1.0000
  O   O33       1.0  0.02140  0.25600  0.87200  1.0000
  O   O34       1.0  0.36500  0.31600  0.91900  1.0000
  O   O35       1.0  0.87400  0.66700  0.96800  1.0000
  O   O36       1.0  0.20700  0.77700  0.99900  1.0000
  Sr  Sr1       1.0  0.91500  0.01880  0.24000  1.0000
  Sr  Sr2       1.0  0.08490  0.51900  0.26000  1.0000
  Sr  Sr3       1.0  0.91500  0.48100  0.74000  1.0000
  Sr  Sr4       1.0  0.08490  0.98100  0.76000  1.0000
