data_image0
_chemical_formula_structural       B16Pb16S40
_chemical_formula_sum              "B16 Pb16 S40"
_cell_length_a       9.72115
_cell_length_b       9.72115
_cell_length_c       15.7029
_cell_angle_alpha    90
_cell_angle_beta     90
_cell_angle_gamma    90

_space_group_name_H-M_alt    "P 1"
_space_group_IT_number       1

loop_
  _space_group_symop_operation_xyz
  'x, y, z'

loop_
  _atom_site_type_symbol
  _atom_site_label
  _atom_site_symmetry_multiplicity
  _atom_site_fract_x
  _atom_site_fract_y
  _atom_site_fract_z
  _atom_site_occupancy
  B   B1        1.0  0.90600  0.06870  0.06530  1.0000
  B   B2        1.0  0.22800  0.07420  0.06890  1.0000
  B   B3        1.0  0.27200  0.57400  0.18100  1.0000
  B   B4        1.0  0.59400  0.56900  0.18500  1.0000
  B   B5        1.0  0.43100  0.40600  0.31500  1.0000
  B   B6        1.0  0.42600  0.72800  0.31900  1.0000
  B   B7        1.0  0.92600  0.77200  0.43100  1.0000
  B   B8        1.0  0.93100  0.09400  0.43500  1.0000
  B   B9        1.0  0.09400  0.93100  0.56500  1.0000
  B   B10       1.0  0.77200  0.92600  0.56900  1.0000
  B   B11       1.0  0.72800  0.42600  0.68100  1.0000
  B   B12       1.0  0.40600  0.43100  0.68500  1.0000
  B   B13       1.0  0.56900  0.59400  0.81500  1.0000
  B   B14       1.0  0.57400  0.27200  0.81900  1.0000
  B   B15       1.0  0.07420  0.22800  0.93100  1.0000
  B   B16       1.0  0.06870  0.90600  0.93500  1.0000
  Pb  Pb1       1.0  0.55500  0.26800  0.06930  1.0000
  Pb  Pb2       1.0  0.55200  0.85400  0.08740  1.0000
  Pb  Pb3       1.0  0.94800  0.35400  0.16300  1.0000
  Pb  Pb4       1.0  0.94500  0.76800  0.18100  1.0000
  Pb  Pb5       1.0  0.23200  0.05530  0.31900  1.0000
  Pb  Pb6       1.0  0.64600  0.05170  0.33700  1.0000
  Pb  Pb7       1.0  0.14600  0.44800  0.41300  1.0000
  Pb  Pb8       1.0  0.73200  0.44500  0.43100  1.0000
  Pb  Pb9       1.0  0.44500  0.73200  0.56900  1.0000
  Pb  Pb10      1.0  0.44800  0.14600  0.58700  1.0000
  Pb  Pb11      1.0  0.05170  0.64600  0.66300  1.0000
  Pb  Pb12      1.0  0.05530  0.23200  0.68100  1.0000
  Pb  Pb13      1.0  0.76800  0.94500  0.81900  1.0000
  Pb  Pb14      1.0  0.35400  0.94800  0.83700  1.0000
  Pb  Pb15      1.0  0.85400  0.55200  0.91300  1.0000
  Pb  Pb16      1.0  0.26800  0.55500  0.93100  1.0000
  S   S1        1.0  0.23600  0.23600  0.00000  1.0000
  S   S2        1.0  0.90200  0.90200  0.00000  1.0000
  S   S3        1.0  0.23500  0.90500  0.00216  1.0000
  S   S4        1.0  0.11700  0.57400  0.10500  1.0000
  S   S5        1.0  0.43400  0.56700  0.11000  1.0000
  S   S6        1.0  0.75100  0.57300  0.11200  1.0000
  S   S7        1.0  0.74900  0.07350  0.13800  1.0000
  S   S8        1.0  0.06590  0.06680  0.14000  1.0000
  S   S9        1.0  0.38300  0.07350  0.14500  1.0000
  S   S10       1.0  0.26500  0.40500  0.24800  1.0000
  S   S11       1.0  0.59800  0.40200  0.25000  1.0000
  S   S12       1.0  0.26400  0.73600  0.25000  1.0000
  S   S13       1.0  0.59500  0.73500  0.25200  1.0000
  S   S14       1.0  0.92600  0.61700  0.35500  1.0000
  S   S15       1.0  0.93300  0.93400  0.36000  1.0000
  S   S16       1.0  0.92700  0.25100  0.36200  1.0000
  S   S17       1.0  0.42700  0.24900  0.38800  1.0000
  S   S18       1.0  0.43300  0.56600  0.39000  1.0000
  S   S19       1.0  0.42600  0.88300  0.39500  1.0000
  S   S20       1.0  0.09470  0.76500  0.49800  1.0000
  S   S21       1.0  0.09800  0.09800  0.50000  1.0000
  S   S22       1.0  0.76400  0.76400  0.50000  1.0000
  S   S23       1.0  0.76500  0.09470  0.50200  1.0000
  S   S24       1.0  0.88300  0.42600  0.60500  1.0000
  S   S25       1.0  0.56600  0.43300  0.61000  1.0000
  S   S26       1.0  0.24900  0.42700  0.61200  1.0000
  S   S27       1.0  0.25100  0.92700  0.63800  1.0000
  S   S28       1.0  0.93400  0.93300  0.64000  1.0000
  S   S29       1.0  0.61700  0.92600  0.64500  1.0000
  S   S30       1.0  0.73500  0.59500  0.74800  1.0000
  S   S31       1.0  0.73600  0.26400  0.75000  1.0000
  S   S32       1.0  0.40200  0.59800  0.75000  1.0000
  S   S33       1.0  0.40500  0.26500  0.75200  1.0000
  S   S34       1.0  0.07350  0.38300  0.85500  1.0000
  S   S35       1.0  0.06680  0.06590  0.86000  1.0000
  S   S36       1.0  0.07350  0.74900  0.86200  1.0000
  S   S37       1.0  0.57300  0.75100  0.88800  1.0000
  S   S38       1.0  0.56700  0.43400  0.89000  1.0000
  S   S39       1.0  0.57400  0.11700  0.89500  1.0000
  S   S40       1.0  0.90500  0.23500  0.99800  1.0000
