data_image0
_chemical_formula_structural       C38Er30
_chemical_formula_sum              "C38 Er30"
_cell_length_a       8.0527
_cell_length_b       8.0527
_cell_length_c       15.3253
_cell_angle_alpha    90
_cell_angle_beta     90
_cell_angle_gamma    90

_space_group_name_H-M_alt    "P 1"
_space_group_IT_number       1

loop_
  _space_group_symop_operation_xyz
  'x, y, z'

loop_
  _atom_site_type_symbol
  _atom_site_label
  _atom_site_symmetry_multiplicity
  _atom_site_fract_x
  _atom_site_fract_y
  _atom_site_fract_z
  _atom_site_occupancy
  C   C1        1.0  0.50000  0.50000  0.00000  1.0000
  C   C2        1.0  0.10200  0.30300  0.00021  1.0000
  C   C3        1.0  0.89800  0.69700  0.00021  1.0000
  C   C4        1.0  0.00000  0.00000  0.16300  1.0000
  C   C5        1.0  0.40400  0.19700  0.16900  1.0000
  C   C6        1.0  0.59600  0.80300  0.16900  1.0000
  C   C7        1.0  0.80300  0.40400  0.17200  1.0000
  C   C8        1.0  0.19700  0.59600  0.17200  1.0000
  C   C9        1.0  0.35000  0.15200  0.24900  1.0000
  C   C10       1.0  0.65000  0.84800  0.24900  1.0000
  C   C11       1.0  0.85000  0.34800  0.25100  1.0000
  C   C12       1.0  0.15000  0.65200  0.25100  1.0000
  C   C13       1.0  0.30300  0.09640  0.32800  1.0000
  C   C14       1.0  0.69700  0.90400  0.32800  1.0000
  C   C15       1.0  0.90400  0.30300  0.33100  1.0000
  C   C16       1.0  0.09570  0.69700  0.33100  1.0000
  C   C17       1.0  0.50000  0.50000  0.33700  1.0000
  C   C18       1.0  0.60200  0.19700  0.50000  1.0000
  C   C19       1.0  0.39800  0.80300  0.50000  1.0000
  C   C20       1.0  0.00000  0.00000  0.50000  1.0000
  C   C21       1.0  0.19700  0.39800  0.50000  1.0000
  C   C22       1.0  0.80300  0.60200  0.50000  1.0000
  C   C23       1.0  0.50000  0.50000  0.66300  1.0000
  C   C24       1.0  0.30300  0.09570  0.66900  1.0000
  C   C25       1.0  0.69700  0.90400  0.66900  1.0000
  C   C26       1.0  0.90400  0.30300  0.67200  1.0000
  C   C27       1.0  0.09640  0.69700  0.67200  1.0000
  C   C28       1.0  0.34800  0.15000  0.74900  1.0000
  C   C29       1.0  0.65200  0.85000  0.74900  1.0000
  C   C30       1.0  0.84800  0.35000  0.75100  1.0000
  C   C31       1.0  0.15200  0.65000  0.75100  1.0000
  C   C32       1.0  0.40400  0.19700  0.82800  1.0000
  C   C33       1.0  0.59600  0.80300  0.82800  1.0000
  C   C34       1.0  0.80300  0.40400  0.83100  1.0000
  C   C35       1.0  0.19700  0.59600  0.83100  1.0000
  C   C36       1.0  0.00000  0.00000  0.83700  1.0000
  C   C37       1.0  0.69700  0.10200  0.00000  1.0000
  C   C38       1.0  0.30300  0.89800  0.00000  1.0000
  Er  Er1       1.0  0.00000  0.00000  0.00000  1.0000
  Er  Er2       1.0  0.79700  0.40700  0.00024  1.0000
  Er  Er3       1.0  0.20300  0.59300  0.00024  1.0000
  Er  Er4       1.0  0.71500  0.09810  0.15000  1.0000
  Er  Er5       1.0  0.28500  0.90200  0.15000  1.0000
  Er  Er6       1.0  0.09860  0.28500  0.15000  1.0000
  Er  Er7       1.0  0.90100  0.71500  0.15000  1.0000
  Er  Er8       1.0  0.50000  0.50000  0.16900  1.0000
  Er  Er9       1.0  0.00000  0.00000  0.33100  1.0000
  Er  Er10      1.0  0.59900  0.21500  0.35000  1.0000
  Er  Er11      1.0  0.40100  0.78500  0.35000  1.0000
  Er  Er12      1.0  0.21500  0.40200  0.35000  1.0000
  Er  Er13      1.0  0.78500  0.59800  0.35000  1.0000
  Er  Er14      1.0  0.29700  0.09350  0.50000  1.0000
  Er  Er15      1.0  0.70300  0.90700  0.50000  1.0000
  Er  Er16      1.0  0.50000  0.50000  0.50000  1.0000
  Er  Er17      1.0  0.90700  0.29700  0.50000  1.0000
  Er  Er18      1.0  0.09350  0.70300  0.50000  1.0000
  Er  Er19      1.0  0.59800  0.21500  0.65000  1.0000
  Er  Er20      1.0  0.40200  0.78500  0.65000  1.0000
  Er  Er21      1.0  0.21500  0.40100  0.65000  1.0000
  Er  Er22      1.0  0.78500  0.59900  0.65000  1.0000
  Er  Er23      1.0  0.00000  0.00000  0.66900  1.0000
  Er  Er24      1.0  0.50000  0.50000  0.83100  1.0000
  Er  Er25      1.0  0.71500  0.09860  0.85000  1.0000
  Er  Er26      1.0  0.28500  0.90100  0.85000  1.0000
  Er  Er27      1.0  0.09810  0.28500  0.85000  1.0000
  Er  Er28      1.0  0.90200  0.71500  0.85000  1.0000
  Er  Er29      1.0  0.40700  0.20300  0.00000  1.0000
  Er  Er30      1.0  0.59300  0.79700  0.00000  1.0000
