data_image0
_chemical_formula_structural       Ca4Cu4O40Si16
_chemical_formula_sum              "Ca4 Cu4 O40 Si16"
_cell_length_a       7.29489
_cell_length_b       7.29489
_cell_length_c       15.0552
_cell_angle_alpha    90
_cell_angle_beta     90
_cell_angle_gamma    90

_space_group_name_H-M_alt    "P 1"
_space_group_IT_number       1

loop_
  _space_group_symop_operation_xyz
  'x, y, z'

loop_
  _atom_site_type_symbol
  _atom_site_label
  _atom_site_symmetry_multiplicity
  _atom_site_fract_x
  _atom_site_fract_y
  _atom_site_fract_z
  _atom_site_occupancy
  Ca  Ca1       1.0  0.00000  0.00000  0.00000  1.0000
  Ca  Ca2       1.0  0.50000  0.50000  0.00000  1.0000
  Ca  Ca3       1.0  0.00000  0.00000  0.50000  1.0000
  Ca  Ca4       1.0  0.50000  0.50000  0.50000  1.0000
  Cu  Cu1       1.0  0.00000  0.50000  0.08010  1.0000
  Cu  Cu2       1.0  0.50000  0.00000  0.42000  1.0000
  Cu  Cu3       1.0  0.00000  0.50000  0.58000  1.0000
  Cu  Cu4       1.0  0.50000  0.00000  0.92000  1.0000
  O   O1        1.0  0.09860  0.25600  0.07970  1.0000
  O   O2        1.0  0.75600  0.40100  0.07970  1.0000
  O   O3        1.0  0.24400  0.59900  0.07970  1.0000
  O   O4        1.0  0.90100  0.74400  0.07970  1.0000
  O   O5        1.0  0.75500  0.04320  0.12400  1.0000
  O   O6        1.0  0.45700  0.25500  0.12400  1.0000
  O   O7        1.0  0.54300  0.74500  0.12400  1.0000
  O   O8        1.0  0.24500  0.95700  0.12400  1.0000
  O   O9        1.0  0.21000  0.21000  0.25000  1.0000
  O   O10       1.0  0.71000  0.29000  0.25000  1.0000
  O   O11       1.0  0.29000  0.71000  0.25000  1.0000
  O   O12       1.0  0.79000  0.79000  0.25000  1.0000
  O   O13       1.0  0.95700  0.24500  0.37600  1.0000
  O   O14       1.0  0.25500  0.45700  0.37600  1.0000
  O   O15       1.0  0.74500  0.54300  0.37600  1.0000
  O   O16       1.0  0.04320  0.75500  0.37600  1.0000
  O   O17       1.0  0.25600  0.09860  0.42000  1.0000
  O   O18       1.0  0.59900  0.24400  0.42000  1.0000
  O   O19       1.0  0.40100  0.75600  0.42000  1.0000
  O   O20       1.0  0.74400  0.90100  0.42000  1.0000
  O   O21       1.0  0.90100  0.25600  0.58000  1.0000
  O   O22       1.0  0.24400  0.40100  0.58000  1.0000
  O   O23       1.0  0.75600  0.59900  0.58000  1.0000
  O   O24       1.0  0.09860  0.74400  0.58000  1.0000
  O   O25       1.0  0.24500  0.04320  0.62400  1.0000
  O   O26       1.0  0.54300  0.25500  0.62400  1.0000
  O   O27       1.0  0.45700  0.74500  0.62400  1.0000
  O   O28       1.0  0.75500  0.95700  0.62400  1.0000
  O   O29       1.0  0.79000  0.21000  0.75000  1.0000
  O   O30       1.0  0.29000  0.29000  0.75000  1.0000
  O   O31       1.0  0.71000  0.71000  0.75000  1.0000
  O   O32       1.0  0.21000  0.79000  0.75000  1.0000
  O   O33       1.0  0.04320  0.24500  0.87600  1.0000
  O   O34       1.0  0.74500  0.45700  0.87600  1.0000
  O   O35       1.0  0.25500  0.54300  0.87600  1.0000
  O   O36       1.0  0.95700  0.75500  0.87600  1.0000
  O   O37       1.0  0.74400  0.09860  0.92000  1.0000
  O   O38       1.0  0.40100  0.24400  0.92000  1.0000
  O   O39       1.0  0.59900  0.75600  0.92000  1.0000
  O   O40       1.0  0.25600  0.90100  0.92000  1.0000
  Si  Si1       1.0  0.25100  0.17800  0.14600  1.0000
  Si  Si2       1.0  0.67800  0.24900  0.14600  1.0000
  Si  Si3       1.0  0.32200  0.75100  0.14600  1.0000
  Si  Si4       1.0  0.74900  0.82200  0.14600  1.0000
  Si  Si5       1.0  0.17800  0.25100  0.35400  1.0000
  Si  Si6       1.0  0.75100  0.32200  0.35400  1.0000
  Si  Si7       1.0  0.24900  0.67800  0.35400  1.0000
  Si  Si8       1.0  0.82200  0.74900  0.35400  1.0000
  Si  Si9       1.0  0.74900  0.17800  0.64600  1.0000
  Si  Si10      1.0  0.32200  0.24900  0.64600  1.0000
  Si  Si11      1.0  0.67800  0.75100  0.64600  1.0000
  Si  Si12      1.0  0.25100  0.82200  0.64600  1.0000
  Si  Si13      1.0  0.82200  0.25100  0.85400  1.0000
  Si  Si14      1.0  0.24900  0.32200  0.85400  1.0000
  Si  Si15      1.0  0.75100  0.67800  0.85400  1.0000
  Si  Si16      1.0  0.17800  0.74900  0.85400  1.0000
