data_image0
_chemical_formula_structural       C12Cl36H4N12Sb4
_chemical_formula_sum              "C12 Cl36 H4 N12 Sb4"
_cell_length_a       13.1697
_cell_length_b       9.66937
_cell_length_c       13.3268
_cell_angle_alpha    90
_cell_angle_beta     116.783
_cell_angle_gamma    90

_space_group_name_H-M_alt    "P 1"
_space_group_IT_number       1

loop_
  _space_group_symop_operation_xyz
  'x, y, z'

loop_
  _atom_site_type_symbol
  _atom_site_label
  _atom_site_symmetry_multiplicity
  _atom_site_fract_x
  _atom_site_fract_y
  _atom_site_fract_z
  _atom_site_occupancy
  C   C1        1.0  0.17500  0.64700  0.03870  1.0000
  C   C2        1.0  0.72200  0.40600  0.05230  1.0000
  C   C3        1.0  0.37300  0.63000  0.13400  1.0000
  C   C4        1.0  0.12700  0.13000  0.36600  1.0000
  C   C5        1.0  0.77800  0.90600  0.44800  1.0000
  C   C6        1.0  0.32500  0.14700  0.46100  1.0000
  C   C7        1.0  0.67500  0.85300  0.53900  1.0000
  C   C8        1.0  0.22200  0.09420  0.55200  1.0000
  C   C9        1.0  0.87300  0.87000  0.63400  1.0000
  C   C10       1.0  0.62700  0.37000  0.86600  1.0000
  C   C11       1.0  0.27800  0.59400  0.94800  1.0000
  C   C12       1.0  0.82500  0.35300  0.96100  1.0000
  Cl  Cl1       1.0  0.43600  0.24900  0.02750  1.0000
  Cl  Cl2       1.0  0.05150  0.67300  0.04470  1.0000
  Cl  Cl3       1.0  0.70300  0.06370  0.07020  1.0000
  Cl  Cl4       1.0  0.14500  0.00450  0.07430  1.0000
  Cl  Cl5       1.0  0.85000  0.76200  0.11300  1.0000
  Cl  Cl6       1.0  0.27700  0.30500  0.16900  1.0000
  Cl  Cl7       1.0  0.71900  0.43500  0.17500  1.0000
  Cl  Cl8       1.0  0.43200  0.00579  0.21100  1.0000
  Cl  Cl9       1.0  0.00798  0.13400  0.24400  1.0000
  Cl  Cl10      1.0  0.49200  0.63400  0.25600  1.0000
  Cl  Cl11      1.0  0.06780  0.50600  0.28900  1.0000
  Cl  Cl12      1.0  0.78100  0.93500  0.32500  1.0000
  Cl  Cl13      1.0  0.22300  0.80500  0.33100  1.0000
  Cl  Cl14      1.0  0.65000  0.26200  0.38700  1.0000
  Cl  Cl15      1.0  0.35500  0.50400  0.42600  1.0000
  Cl  Cl16      1.0  0.79700  0.56400  0.43000  1.0000
  Cl  Cl17      1.0  0.44900  0.17300  0.45500  1.0000
  Cl  Cl18      1.0  0.06370  0.74900  0.47300  1.0000
  Cl  Cl19      1.0  0.93600  0.25100  0.52700  1.0000
  Cl  Cl20      1.0  0.55100  0.82700  0.54500  1.0000
  Cl  Cl21      1.0  0.20300  0.43600  0.57000  1.0000
  Cl  Cl22      1.0  0.64500  0.49600  0.57400  1.0000
  Cl  Cl23      1.0  0.35000  0.73800  0.61300  1.0000
  Cl  Cl24      1.0  0.77700  0.19500  0.66900  1.0000
  Cl  Cl25      1.0  0.21900  0.06480  0.67500  1.0000
  Cl  Cl26      1.0  0.93200  0.49400  0.71100  1.0000
  Cl  Cl27      1.0  0.50800  0.36600  0.74400  1.0000
  Cl  Cl28      1.0  0.99200  0.86600  0.75600  1.0000
  Cl  Cl29      1.0  0.56800  0.99400  0.78900  1.0000
  Cl  Cl30      1.0  0.28100  0.56500  0.82500  1.0000
  Cl  Cl31      1.0  0.72300  0.69500  0.83100  1.0000
  Cl  Cl32      1.0  0.15000  0.23800  0.88700  1.0000
  Cl  Cl33      1.0  0.85500  0.99600  0.92600  1.0000
  Cl  Cl34      1.0  0.29700  0.93600  0.93000  1.0000
  Cl  Cl35      1.0  0.94900  0.32700  0.95500  1.0000
  Cl  Cl36      1.0  0.56400  0.75100  0.97300  1.0000
  H   H1        1.0  0.26900  0.69500  0.20900  1.0000
  H   H2        1.0  0.23100  0.19500  0.29100  1.0000
  H   H3        1.0  0.76900  0.80500  0.70900  1.0000
  H   H4        1.0  0.73100  0.30500  0.79100  1.0000
  N   N1        1.0  0.37800  0.59700  0.04090  1.0000
  N   N2        1.0  0.82500  0.38700  0.05680  1.0000
  N   N3        1.0  0.27300  0.66100  0.13600  1.0000
  N   N4        1.0  0.22700  0.16100  0.36400  1.0000
  N   N5        1.0  0.67500  0.88700  0.44300  1.0000
  N   N6        1.0  0.12200  0.09650  0.45900  1.0000
  N   N7        1.0  0.87800  0.90300  0.54100  1.0000
  N   N8        1.0  0.32500  0.11300  0.55700  1.0000
  N   N9        1.0  0.77300  0.83900  0.63600  1.0000
  N   N10       1.0  0.72700  0.33900  0.86400  1.0000
  N   N11       1.0  0.17500  0.61300  0.94300  1.0000
  N   N12       1.0  0.62200  0.40300  0.95900  1.0000
  Sb  Sb1       1.0  0.29300  0.12200  0.04780  1.0000
  Sb  Sb2       1.0  0.20700  0.62200  0.45200  1.0000
  Sb  Sb3       1.0  0.79300  0.37800  0.54800  1.0000
  Sb  Sb4       1.0  0.70700  0.87800  0.95200  1.0000
