data_image0
_chemical_formula_structural       F4H40N8O16P4
_chemical_formula_sum              "F4 H40 N8 O16 P4"
_cell_length_a       6.02306
_cell_length_b       8.0697
_cell_length_c       12.4612
_cell_angle_alpha    90
_cell_angle_beta     98.4146
_cell_angle_gamma    90

_space_group_name_H-M_alt    "P 1"
_space_group_IT_number       1

loop_
  _space_group_symop_operation_xyz
  'x, y, z'

loop_
  _atom_site_type_symbol
  _atom_site_label
  _atom_site_symmetry_multiplicity
  _atom_site_fract_x
  _atom_site_fract_y
  _atom_site_fract_z
  _atom_site_occupancy
  F   F1        1.0  0.76900  0.57500  0.05670  1.0000
  F   F2        1.0  0.23100  0.07510  0.44300  1.0000
  F   F3        1.0  0.76900  0.92500  0.55700  1.0000
  F   F4        1.0  0.23100  0.42500  0.94300  1.0000
  H   H1        1.0  0.22100  0.13500  0.01980  1.0000
  H   H2        1.0  0.31200  0.70600  0.06100  1.0000
  H   H3        1.0  0.45300  0.21800  0.09260  1.0000
  H   H4        1.0  0.80100  0.07230  0.09430  1.0000
  H   H5        1.0  0.19800  0.27700  0.12200  1.0000
  H   H6        1.0  0.29300  0.08610  0.15600  1.0000
  H   H7        1.0  0.19100  0.60900  0.15900  1.0000
  H   H8        1.0  0.46700  0.61200  0.17200  1.0000
  H   H9        1.0  0.86900  0.92900  0.17900  1.0000
  H   H10       1.0  0.33100  0.79400  0.18800  1.0000
  H   H11       1.0  0.66900  0.29400  0.31200  1.0000
  H   H12       1.0  0.13100  0.42900  0.32100  1.0000
  H   H13       1.0  0.53300  0.11200  0.32800  1.0000
  H   H14       1.0  0.80900  0.10900  0.34100  1.0000
  H   H15       1.0  0.70700  0.58600  0.34400  1.0000
  H   H16       1.0  0.80200  0.77700  0.37800  1.0000
  H   H17       1.0  0.19900  0.57200  0.40600  1.0000
  H   H18       1.0  0.54700  0.71800  0.40700  1.0000
  H   H19       1.0  0.68800  0.20600  0.43900  1.0000
  H   H20       1.0  0.77900  0.63500  0.48000  1.0000
  H   H21       1.0  0.22100  0.36500  0.52000  1.0000
  H   H22       1.0  0.31200  0.79400  0.56100  1.0000
  H   H23       1.0  0.45300  0.28200  0.59300  1.0000
  H   H24       1.0  0.80100  0.42800  0.59400  1.0000
  H   H25       1.0  0.19800  0.22300  0.62200  1.0000
  H   H26       1.0  0.29300  0.41400  0.65600  1.0000
  H   H27       1.0  0.19100  0.89100  0.65900  1.0000
  H   H28       1.0  0.46700  0.88800  0.67200  1.0000
  H   H29       1.0  0.86900  0.57100  0.67900  1.0000
  H   H30       1.0  0.33100  0.70600  0.68800  1.0000
  H   H31       1.0  0.66900  0.20600  0.81200  1.0000
  H   H32       1.0  0.13100  0.07110  0.82100  1.0000
  H   H33       1.0  0.53300  0.38800  0.82800  1.0000
  H   H34       1.0  0.80900  0.39100  0.84100  1.0000
  H   H35       1.0  0.70700  0.91400  0.84400  1.0000
  H   H36       1.0  0.80200  0.72300  0.87800  1.0000
  H   H37       1.0  0.19900  0.92800  0.90600  1.0000
  H   H38       1.0  0.54700  0.78200  0.90700  1.0000
  H   H39       1.0  0.68800  0.29400  0.93900  1.0000
  H   H40       1.0  0.77900  0.86500  0.98000  1.0000
  N   N1        1.0  0.29000  0.17800  0.09740  1.0000
  N   N2        1.0  0.32500  0.68400  0.14500  1.0000
  N   N3        1.0  0.67500  0.18400  0.35500  1.0000
  N   N4        1.0  0.71000  0.67800  0.40300  1.0000
  N   N5        1.0  0.29000  0.32200  0.59700  1.0000
  N   N6        1.0  0.32500  0.81600  0.64500  1.0000
  N   N7        1.0  0.67500  0.31600  0.85500  1.0000
  N   N8        1.0  0.71000  0.82200  0.90300  1.0000
  O   O1        1.0  0.72700  0.27200  0.07420  1.0000
  O   O2        1.0  0.82700  0.95100  0.10000  1.0000
  O   O3        1.0  0.05490  0.42600  0.18400  1.0000
  O   O4        1.0  0.65600  0.46600  0.22600  1.0000
  O   O5        1.0  0.34400  0.96600  0.27400  1.0000
  O   O6        1.0  0.94500  0.92600  0.31600  1.0000
  O   O7        1.0  0.17300  0.45100  0.40000  1.0000
  O   O8        1.0  0.27300  0.77200  0.42600  1.0000
  O   O9        1.0  0.72700  0.22800  0.57400  1.0000
  O   O10       1.0  0.82700  0.54900  0.60000  1.0000
  O   O11       1.0  0.05490  0.07440  0.68400  1.0000
  O   O12       1.0  0.65600  0.03440  0.72600  1.0000
  O   O13       1.0  0.34400  0.53400  0.77400  1.0000
  O   O14       1.0  0.94500  0.57400  0.81600  1.0000
  O   O15       1.0  0.17300  0.04880  0.90000  1.0000
  O   O16       1.0  0.27300  0.72800  0.92600  1.0000
  P   P1        1.0  0.80500  0.42400  0.14200  1.0000
  P   P2        1.0  0.19500  0.92400  0.35800  1.0000
  P   P3        1.0  0.80500  0.07600  0.64200  1.0000
  P   P4        1.0  0.19500  0.57600  0.85800  1.0000
