data_image0
_chemical_formula_structural       Br40Cs16Tl8
_chemical_formula_sum              "Br40 Cs16 Tl8"
_cell_length_a       13.5435
_cell_length_b       7.85203
_cell_length_c       23.7973
_cell_angle_alpha    90
_cell_angle_beta     90
_cell_angle_gamma    90

_space_group_name_H-M_alt    "P 1"
_space_group_IT_number       1

loop_
  _space_group_symop_operation_xyz
  'x, y, z'

loop_
  _atom_site_type_symbol
  _atom_site_label
  _atom_site_symmetry_multiplicity
  _atom_site_fract_x
  _atom_site_fract_y
  _atom_site_fract_z
  _atom_site_occupancy
  Br  Br1       1.0  0.63800  0.75000  0.03270  1.0000
  Br  Br2       1.0  0.13300  0.53400  0.03700  1.0000
  Br  Br3       1.0  0.13300  0.96600  0.03700  1.0000
  Br  Br4       1.0  0.41800  0.50800  0.10800  1.0000
  Br  Br5       1.0  0.41800  0.99200  0.10800  1.0000
  Br  Br6       1.0  0.91100  0.25000  0.11700  1.0000
  Br  Br7       1.0  0.68800  0.00198  0.17400  1.0000
  Br  Br8       1.0  0.68800  0.49800  0.17400  1.0000
  Br  Br9       1.0  0.19300  0.25000  0.18800  1.0000
  Br  Br10      1.0  0.97500  0.75000  0.24500  1.0000
  Br  Br11      1.0  0.47500  0.75000  0.25500  1.0000
  Br  Br12      1.0  0.69300  0.25000  0.31200  1.0000
  Br  Br13      1.0  0.18800  0.00198  0.32600  1.0000
  Br  Br14      1.0  0.18800  0.49800  0.32600  1.0000
  Br  Br15      1.0  0.41100  0.25000  0.38300  1.0000
  Br  Br16      1.0  0.91800  0.50800  0.39200  1.0000
  Br  Br17      1.0  0.91800  0.99200  0.39200  1.0000
  Br  Br18      1.0  0.63300  0.53400  0.46300  1.0000
  Br  Br19      1.0  0.63300  0.96600  0.46300  1.0000
  Br  Br20      1.0  0.13800  0.75000  0.46700  1.0000
  Br  Br21      1.0  0.86200  0.25000  0.53300  1.0000
  Br  Br22      1.0  0.36700  0.03360  0.53700  1.0000
  Br  Br23      1.0  0.36700  0.46600  0.53700  1.0000
  Br  Br24      1.0  0.08200  0.00818  0.60800  1.0000
  Br  Br25      1.0  0.08200  0.49200  0.60800  1.0000
  Br  Br26      1.0  0.58900  0.75000  0.61700  1.0000
  Br  Br27      1.0  0.81200  0.50200  0.67400  1.0000
  Br  Br28      1.0  0.81200  0.99800  0.67400  1.0000
  Br  Br29      1.0  0.30700  0.75000  0.68800  1.0000
  Br  Br30      1.0  0.52500  0.25000  0.74500  1.0000
  Br  Br31      1.0  0.02490  0.25000  0.75500  1.0000
  Br  Br32      1.0  0.80700  0.75000  0.81200  1.0000
  Br  Br33      1.0  0.31200  0.50200  0.82600  1.0000
  Br  Br34      1.0  0.31200  0.99800  0.82600  1.0000
  Br  Br35      1.0  0.08860  0.75000  0.88300  1.0000
  Br  Br36      1.0  0.58200  0.00818  0.89200  1.0000
  Br  Br37      1.0  0.58200  0.49200  0.89200  1.0000
  Br  Br38      1.0  0.86700  0.03360  0.96300  1.0000
  Br  Br39      1.0  0.86700  0.46600  0.96300  1.0000
  Br  Br40      1.0  0.36200  0.25000  0.96700  1.0000
  Cs  Cs1       1.0  0.61600  0.25000  0.03250  1.0000
  Cs  Cs2       1.0  0.87900  0.75000  0.09950  1.0000
  Cs  Cs3       1.0  0.23000  0.75000  0.19100  1.0000
  Cs  Cs4       1.0  0.46700  0.25000  0.23000  1.0000
  Cs  Cs5       1.0  0.96700  0.25000  0.27000  1.0000
  Cs  Cs6       1.0  0.73000  0.75000  0.30900  1.0000
  Cs  Cs7       1.0  0.37900  0.75000  0.40000  1.0000
  Cs  Cs8       1.0  0.11600  0.25000  0.46800  1.0000
  Cs  Cs9       1.0  0.88400  0.75000  0.53200  1.0000
  Cs  Cs10      1.0  0.62100  0.25000  0.60000  1.0000
  Cs  Cs11      1.0  0.27000  0.25000  0.69100  1.0000
  Cs  Cs12      1.0  0.03320  0.75000  0.73000  1.0000
  Cs  Cs13      1.0  0.53300  0.75000  0.77000  1.0000
  Cs  Cs14      1.0  0.77000  0.25000  0.80900  1.0000
  Cs  Cs15      1.0  0.12100  0.25000  0.90000  1.0000
  Cs  Cs16      1.0  0.38400  0.75000  0.96800  1.0000
  Tl  Tl1       1.0  0.10100  0.25000  0.09050  1.0000
  Tl  Tl2       1.0  0.55700  0.75000  0.14000  1.0000
  Tl  Tl3       1.0  0.05680  0.75000  0.36000  1.0000
  Tl  Tl4       1.0  0.60100  0.25000  0.41000  1.0000
  Tl  Tl5       1.0  0.39900  0.75000  0.59000  1.0000
  Tl  Tl6       1.0  0.94300  0.25000  0.64000  1.0000
  Tl  Tl7       1.0  0.44300  0.25000  0.86000  1.0000
  Tl  Tl8       1.0  0.89900  0.75000  0.91000  1.0000
