data_image0
_chemical_formula_structural       As8O48S12
_chemical_formula_sum              "As8 O48 S12"
_cell_length_a       9.32117
_cell_length_b       5.06137
_cell_length_c       18.7051
_cell_angle_alpha    90
_cell_angle_beta     89.8822
_cell_angle_gamma    90

_space_group_name_H-M_alt    "P 1"
_space_group_IT_number       1

loop_
  _space_group_symop_operation_xyz
  'x, y, z'

loop_
  _atom_site_type_symbol
  _atom_site_label
  _atom_site_symmetry_multiplicity
  _atom_site_fract_x
  _atom_site_fract_y
  _atom_site_fract_z
  _atom_site_occupancy
  As  As1       1.0  0.88000  0.76000  0.13000  1.0000
  As  As2       1.0  0.38300  0.16500  0.13100  1.0000
  As  As3       1.0  0.61700  0.66500  0.36900  1.0000
  As  As4       1.0  0.12000  0.26000  0.37000  1.0000
  As  As5       1.0  0.88000  0.74000  0.63000  1.0000
  As  As6       1.0  0.38300  0.33500  0.63100  1.0000
  As  As7       1.0  0.61700  0.83500  0.86900  1.0000
  As  As8       1.0  0.12000  0.24000  0.87000  1.0000
  O   O1        1.0  0.29400  0.80400  0.02420  1.0000
  O   O2        1.0  0.36800  0.26500  0.03330  1.0000
  O   O3        1.0  0.84700  0.84900  0.03400  1.0000
  O   O4        1.0  0.61200  0.95000  0.08190  1.0000
  O   O5        1.0  0.02580  0.54700  0.09200  1.0000
  O   O6        1.0  0.07850  0.08570  0.12500  1.0000
  O   O7        1.0  0.76100  0.44500  0.12600  1.0000
  O   O8        1.0  0.50600  0.44700  0.14700  1.0000
  O   O9        1.0  0.24500  0.43400  0.15300  1.0000
  O   O10       1.0  0.66100  0.14500  0.21600  1.0000
  O   O11       1.0  0.01550  0.42500  0.21700  1.0000
  O   O12       1.0  0.66600  0.62700  0.23600  1.0000
  O   O13       1.0  0.33400  0.12700  0.26400  1.0000
  O   O14       1.0  0.98400  0.92500  0.28300  1.0000
  O   O15       1.0  0.33900  0.64500  0.28400  1.0000
  O   O16       1.0  0.75500  0.93400  0.34700  1.0000
  O   O17       1.0  0.49400  0.94700  0.35300  1.0000
  O   O18       1.0  0.23900  0.94500  0.37400  1.0000
  O   O19       1.0  0.92100  0.58600  0.37500  1.0000
  O   O20       1.0  0.97400  0.04680  0.40800  1.0000
  O   O21       1.0  0.38800  0.45000  0.41800  1.0000
  O   O22       1.0  0.15300  0.34900  0.46600  1.0000
  O   O23       1.0  0.63200  0.76500  0.46700  1.0000
  O   O24       1.0  0.70600  0.30400  0.47600  1.0000
  O   O25       1.0  0.29400  0.69600  0.52400  1.0000
  O   O26       1.0  0.36800  0.23500  0.53300  1.0000
  O   O27       1.0  0.84700  0.65100  0.53400  1.0000
  O   O28       1.0  0.61200  0.55000  0.58200  1.0000
  O   O29       1.0  0.02580  0.95300  0.59200  1.0000
  O   O30       1.0  0.07850  0.41400  0.62500  1.0000
  O   O31       1.0  0.76100  0.05510  0.62600  1.0000
  O   O32       1.0  0.50600  0.05280  0.64700  1.0000
  O   O33       1.0  0.24500  0.06560  0.65300  1.0000
  O   O34       1.0  0.66100  0.35500  0.71600  1.0000
  O   O35       1.0  0.01550  0.07530  0.71700  1.0000
  O   O36       1.0  0.66600  0.87300  0.73600  1.0000
  O   O37       1.0  0.33400  0.37300  0.76400  1.0000
  O   O38       1.0  0.98400  0.57500  0.78300  1.0000
  O   O39       1.0  0.33900  0.85500  0.78400  1.0000
  O   O40       1.0  0.75500  0.56600  0.84700  1.0000
  O   O41       1.0  0.49400  0.55300  0.85300  1.0000
  O   O42       1.0  0.23900  0.55500  0.87400  1.0000
  O   O43       1.0  0.92100  0.91400  0.87500  1.0000
  O   O44       1.0  0.97400  0.45300  0.90800  1.0000
  O   O45       1.0  0.38800  0.05020  0.91800  1.0000
  O   O46       1.0  0.15300  0.15100  0.96600  1.0000
  O   O47       1.0  0.63200  0.73500  0.96700  1.0000
  O   O48       1.0  0.70600  0.19600  0.97600  1.0000
  S   S1        1.0  0.69300  0.95600  0.01550  1.0000
  S   S2        1.0  0.08640  0.35800  0.15100  1.0000
  S   S3        1.0  0.65100  0.40700  0.18700  1.0000
  S   S4        1.0  0.34900  0.90700  0.31300  1.0000
  S   S5        1.0  0.91400  0.85800  0.34900  1.0000
  S   S6        1.0  0.30700  0.45600  0.48500  1.0000
  S   S7        1.0  0.69300  0.54400  0.51500  1.0000
  S   S8        1.0  0.08640  0.14200  0.65100  1.0000
  S   S9        1.0  0.65100  0.09320  0.68700  1.0000
  S   S10       1.0  0.34900  0.59300  0.81300  1.0000
  S   S11       1.0  0.91400  0.64200  0.84900  1.0000
  S   S12       1.0  0.30700  0.04410  0.98500  1.0000
