data_image0
_chemical_formula_structural       Ba4Mn4O4Se4
_chemical_formula_sum              "Ba4 Mn4 O4 Se4"
_cell_length_a       6.4936
_cell_length_b       4.28726
_cell_length_c       14.2085
_cell_angle_alpha    90
_cell_angle_beta     90
_cell_angle_gamma    90

_space_group_name_H-M_alt    "P 1"
_space_group_IT_number       1

loop_
  _space_group_symop_operation_xyz
  'x, y, z'

loop_
  _atom_site_type_symbol
  _atom_site_label
  _atom_site_symmetry_multiplicity
  _atom_site_fract_x
  _atom_site_fract_y
  _atom_site_fract_z
  _atom_site_occupancy
  Ba  Ba1       1.0  0.24900  0.75000  0.10400  1.0000
  Ba  Ba2       1.0  0.74900  0.75000  0.39600  1.0000
  Ba  Ba3       1.0  0.25100  0.25000  0.60400  1.0000
  Ba  Ba4       1.0  0.75100  0.25000  0.89600  1.0000
  Mn  Mn1       1.0  0.67000  0.25000  0.18600  1.0000
  Mn  Mn2       1.0  0.17000  0.25000  0.31400  1.0000
  Mn  Mn3       1.0  0.83000  0.75000  0.68600  1.0000
  Mn  Mn4       1.0  0.33000  0.75000  0.81400  1.0000
  O   O1        1.0  0.35500  0.25000  0.19900  1.0000
  O   O2        1.0  0.85500  0.25000  0.30100  1.0000
  O   O3        1.0  0.14500  0.75000  0.69900  1.0000
  O   O4        1.0  0.64500  0.75000  0.80100  1.0000
  Se  Se1       1.0  0.75000  0.75000  0.08290  1.0000
  Se  Se2       1.0  0.25000  0.75000  0.41700  1.0000
  Se  Se3       1.0  0.75000  0.25000  0.58300  1.0000
  Se  Se4       1.0  0.25000  0.25000  0.91700  1.0000
