data_image0
_chemical_formula_structural       Li2Mo4O44P8W4
_chemical_formula_sum              "Li2 Mo4 O44 P8 W4"
_cell_length_a       7.64892
_cell_length_b       12.6525
_cell_length_c       8.16641
_cell_angle_alpha    89.9999
_cell_angle_beta     105.045
_cell_angle_gamma    90.0002

_space_group_name_H-M_alt    "P 1"
_space_group_IT_number       1

loop_
  _space_group_symop_operation_xyz
  'x, y, z'

loop_
  _atom_site_type_symbol
  _atom_site_label
  _atom_site_symmetry_multiplicity
  _atom_site_fract_x
  _atom_site_fract_y
  _atom_site_fract_z
  _atom_site_occupancy
  Li  Li1       1.0  0.50000  0.00000  0.00000  1.0000
  Li  Li2       1.0  0.50000  0.50000  0.00000  1.0000
  Mo  Mo1       1.0  0.73800  0.25000  0.16800  1.0000
  Mo  Mo2       1.0  0.68500  0.75000  0.17300  1.0000
  Mo  Mo3       1.0  0.31500  0.25000  0.82700  1.0000
  Mo  Mo4       1.0  0.26200  0.75000  0.83200  1.0000
  O   O1        1.0  0.44900  0.75000  0.02930  1.0000
  O   O2        1.0  0.24400  0.25000  0.06200  1.0000
  O   O3        1.0  0.91300  0.25000  0.07770  1.0000
  O   O4        1.0  0.70300  0.59300  0.14500  1.0000
  O   O5        1.0  0.70300  0.90700  0.14500  1.0000
  O   O6        1.0  0.34700  0.51600  0.16300  1.0000
  O   O7        1.0  0.34700  0.98400  0.16300  1.0000
  O   O8        1.0  0.70900  0.09320  0.18400  1.0000
  O   O9        1.0  0.70900  0.40700  0.18400  1.0000
  O   O10       1.0  0.00729  0.50300  0.22500  1.0000
  O   O11       1.0  0.00729  0.99700  0.22500  1.0000
  O   O12       1.0  0.95600  0.75000  0.27600  1.0000
  O   O13       1.0  0.53000  0.25000  0.30500  1.0000
  O   O14       1.0  0.25400  0.15200  0.33200  1.0000
  O   O15       1.0  0.25400  0.34800  0.33200  1.0000
  O   O16       1.0  0.62200  0.75000  0.35700  1.0000
  O   O17       1.0  0.24700  0.84800  0.38100  1.0000
  O   O18       1.0  0.24700  0.65200  0.38100  1.0000
  O   O19       1.0  0.89300  0.25000  0.41300  1.0000
  O   O20       1.0  0.82700  0.52400  0.44200  1.0000
  O   O21       1.0  0.82700  0.97600  0.44200  1.0000
  O   O22       1.0  0.50000  0.50000  0.50000  1.0000
  O   O23       1.0  0.50000  0.00000  0.50000  1.0000
  O   O24       1.0  0.17300  0.02410  0.55800  1.0000
  O   O25       1.0  0.17300  0.47600  0.55800  1.0000
  O   O26       1.0  0.10700  0.75000  0.58700  1.0000
  O   O27       1.0  0.75300  0.34800  0.61900  1.0000
  O   O28       1.0  0.75300  0.15200  0.61900  1.0000
  O   O29       1.0  0.37800  0.25000  0.64300  1.0000
  O   O30       1.0  0.74600  0.65200  0.66800  1.0000
  O   O31       1.0  0.74600  0.84800  0.66800  1.0000
  O   O32       1.0  0.47000  0.75000  0.69500  1.0000
  O   O33       1.0  0.04390  0.25000  0.72400  1.0000
  O   O34       1.0  0.99300  0.00311  0.77500  1.0000
  O   O35       1.0  0.99300  0.49700  0.77500  1.0000
  O   O36       1.0  0.29100  0.90700  0.81600  1.0000
  O   O37       1.0  0.29100  0.59300  0.81600  1.0000
  O   O38       1.0  0.65300  0.01590  0.83700  1.0000
  O   O39       1.0  0.65300  0.48400  0.83700  1.0000
  O   O40       1.0  0.29700  0.09330  0.85500  1.0000
  O   O41       1.0  0.29700  0.40700  0.85500  1.0000
  O   O42       1.0  0.08660  0.75000  0.92200  1.0000
  O   O43       1.0  0.75600  0.75000  0.93800  1.0000
  O   O44       1.0  0.55100  0.25000  0.97100  1.0000
  P   P1        1.0  0.32500  0.25000  0.25100  1.0000
  P   P2        1.0  0.81700  0.99300  0.25700  1.0000
  P   P3        1.0  0.81700  0.50700  0.25700  1.0000
  P   P4        1.0  0.13700  0.75000  0.40900  1.0000
  P   P5        1.0  0.86300  0.25000  0.59100  1.0000
  P   P6        1.0  0.18300  0.49300  0.74300  1.0000
  P   P7        1.0  0.18300  0.00652  0.74300  1.0000
  P   P8        1.0  0.67500  0.75000  0.74900  1.0000
  W   W1        1.0  0.26900  0.00000  0.34300  1.0000
  W   W2        1.0  0.26900  0.50000  0.34300  1.0000
  W   W3        1.0  0.73100  0.50000  0.65700  1.0000
  W   W4        1.0  0.73100  0.00000  0.65700  1.0000
