data_image0
_chemical_formula_structural       Br24Cd32P16
_chemical_formula_sum              "Br24 Cd32 P16"
_cell_length_a       12.4824
_cell_length_b       12.4824
_cell_length_c       12.4824
_cell_angle_alpha    90
_cell_angle_beta     90
_cell_angle_gamma    90

_space_group_name_H-M_alt    "P 1"
_space_group_IT_number       1

loop_
  _space_group_symop_operation_xyz
  'x, y, z'

loop_
  _atom_site_type_symbol
  _atom_site_label
  _atom_site_symmetry_multiplicity
  _atom_site_fract_x
  _atom_site_fract_y
  _atom_site_fract_z
  _atom_site_occupancy
  Br  Br1       1.0  0.76300  0.18900  0.06400  1.0000
  Br  Br2       1.0  0.73700  0.68900  0.06400  1.0000
  Br  Br3       1.0  0.43600  0.26300  0.18900  1.0000
  Br  Br4       1.0  0.06400  0.76300  0.18900  1.0000
  Br  Br5       1.0  0.68900  0.43600  0.23700  1.0000
  Br  Br6       1.0  0.81100  0.93600  0.23700  1.0000
  Br  Br7       1.0  0.18900  0.43600  0.26300  1.0000
  Br  Br8       1.0  0.31100  0.93600  0.26300  1.0000
  Br  Br9       1.0  0.93600  0.26300  0.31100  1.0000
  Br  Br10      1.0  0.56400  0.76300  0.31100  1.0000
  Br  Br11      1.0  0.26300  0.18900  0.43600  1.0000
  Br  Br12      1.0  0.23700  0.68900  0.43600  1.0000
  Br  Br13      1.0  0.76300  0.31100  0.56400  1.0000
  Br  Br14      1.0  0.73700  0.81100  0.56400  1.0000
  Br  Br15      1.0  0.43600  0.23700  0.68900  1.0000
  Br  Br16      1.0  0.06400  0.73700  0.68900  1.0000
  Br  Br17      1.0  0.68900  0.06400  0.73700  1.0000
  Br  Br18      1.0  0.81100  0.56400  0.73700  1.0000
  Br  Br19      1.0  0.18900  0.06400  0.76300  1.0000
  Br  Br20      1.0  0.31100  0.56400  0.76300  1.0000
  Br  Br21      1.0  0.93600  0.23700  0.81100  1.0000
  Br  Br22      1.0  0.56400  0.73700  0.81100  1.0000
  Br  Br23      1.0  0.26300  0.31100  0.93600  1.0000
  Br  Br24      1.0  0.23700  0.81100  0.93600  1.0000
  Cd  Cd1       1.0  0.75400  0.46900  0.00516  1.0000
  Cd  Cd2       1.0  0.74600  0.96900  0.00516  1.0000
  Cd  Cd3       1.0  0.99500  0.25400  0.03100  1.0000
  Cd  Cd4       1.0  0.50500  0.75400  0.03100  1.0000
  Cd  Cd5       1.0  0.22000  0.22000  0.22000  1.0000
  Cd  Cd6       1.0  0.28000  0.72000  0.22000  1.0000
  Cd  Cd7       1.0  0.96900  0.49500  0.24600  1.0000
  Cd  Cd8       1.0  0.53100  0.99500  0.24600  1.0000
  Cd  Cd9       1.0  0.46900  0.49500  0.25400  1.0000
  Cd  Cd10      1.0  0.03100  0.99500  0.25400  1.0000
  Cd  Cd11      1.0  0.72000  0.22000  0.28000  1.0000
  Cd  Cd12      1.0  0.78000  0.72000  0.28000  1.0000
  Cd  Cd13      1.0  0.49500  0.25400  0.46900  1.0000
  Cd  Cd14      1.0  0.00516  0.75400  0.46900  1.0000
  Cd  Cd15      1.0  0.25400  0.46900  0.49500  1.0000
  Cd  Cd16      1.0  0.24600  0.96900  0.49500  1.0000
  Cd  Cd17      1.0  0.75400  0.03100  0.50500  1.0000
  Cd  Cd18      1.0  0.74600  0.53100  0.50500  1.0000
  Cd  Cd19      1.0  0.99500  0.24600  0.53100  1.0000
  Cd  Cd20      1.0  0.50500  0.74600  0.53100  1.0000
  Cd  Cd21      1.0  0.22000  0.28000  0.72000  1.0000
  Cd  Cd22      1.0  0.28000  0.78000  0.72000  1.0000
  Cd  Cd23      1.0  0.96900  0.00516  0.74600  1.0000
  Cd  Cd24      1.0  0.53100  0.50500  0.74600  1.0000
  Cd  Cd25      1.0  0.46900  0.00516  0.75400  1.0000
  Cd  Cd26      1.0  0.03100  0.50500  0.75400  1.0000
  Cd  Cd27      1.0  0.72000  0.28000  0.78000  1.0000
  Cd  Cd28      1.0  0.78000  0.78000  0.78000  1.0000
  Cd  Cd29      1.0  0.49500  0.24600  0.96900  1.0000
  Cd  Cd30      1.0  0.00516  0.74600  0.96900  1.0000
  Cd  Cd31      1.0  0.25400  0.03100  0.99500  1.0000
  Cd  Cd32      1.0  0.24600  0.53100  0.99500  1.0000
  P   P1        1.0  0.95000  0.45000  0.05050  1.0000
  P   P2        1.0  0.55000  0.95000  0.05050  1.0000
  P   P3        1.0  0.10500  0.10500  0.10500  1.0000
  P   P4        1.0  0.39500  0.60500  0.10500  1.0000
  P   P5        1.0  0.60500  0.10500  0.39500  1.0000
  P   P6        1.0  0.89500  0.60500  0.39500  1.0000
  P   P7        1.0  0.45000  0.45000  0.45000  1.0000
  P   P8        1.0  0.05050  0.95000  0.45000  1.0000
  P   P9        1.0  0.95000  0.05050  0.55000  1.0000
  P   P10       1.0  0.55000  0.55000  0.55000  1.0000
  P   P11       1.0  0.10500  0.39500  0.60500  1.0000
  P   P12       1.0  0.39500  0.89500  0.60500  1.0000
  P   P13       1.0  0.60500  0.39500  0.89500  1.0000
  P   P14       1.0  0.89500  0.89500  0.89500  1.0000
  P   P15       1.0  0.45000  0.05050  0.95000  1.0000
  P   P16       1.0  0.05050  0.55000  0.95000  1.0000
