data_image0
_chemical_formula_structural       B20Br4Ca8O36
_chemical_formula_sum              "B20 Br4 Ca8 O36"
_cell_length_a       11.3385
_cell_length_b       11.1849
_cell_length_c       6.26893
_cell_angle_alpha    90
_cell_angle_beta     90
_cell_angle_gamma    90

_space_group_name_H-M_alt    "P 1"
_space_group_IT_number       1

loop_
  _space_group_symop_operation_xyz
  'x, y, z'

loop_
  _atom_site_type_symbol
  _atom_site_label
  _atom_site_symmetry_multiplicity
  _atom_site_fract_x
  _atom_site_fract_y
  _atom_site_fract_z
  _atom_site_occupancy
  B   B1        1.0  0.69500  0.27800  0.04240  1.0000
  B   B2        1.0  0.30500  0.72200  0.04240  1.0000
  B   B3        1.0  0.73600  0.48800  0.16400  1.0000
  B   B4        1.0  0.26400  0.51200  0.16400  1.0000
  B   B5        1.0  0.30800  0.29000  0.22800  1.0000
  B   B6        1.0  0.69200  0.71000  0.22800  1.0000
  B   B7        1.0  0.77400  0.32200  0.40200  1.0000
  B   B8        1.0  0.22600  0.67800  0.40200  1.0000
  B   B9        1.0  0.97400  0.25300  0.49900  1.0000
  B   B10       1.0  0.02580  0.74700  0.49900  1.0000
  B   B11       1.0  0.19500  0.22200  0.54200  1.0000
  B   B12       1.0  0.80500  0.77800  0.54200  1.0000
  B   B13       1.0  0.23600  0.01170  0.66400  1.0000
  B   B14       1.0  0.76400  0.98800  0.66400  1.0000
  B   B15       1.0  0.80800  0.21000  0.72800  1.0000
  B   B16       1.0  0.19200  0.79000  0.72800  1.0000
  B   B17       1.0  0.27400  0.17800  0.90200  1.0000
  B   B18       1.0  0.72600  0.82200  0.90200  1.0000
  B   B19       1.0  0.47400  0.24700  0.99900  1.0000
  B   B20       1.0  0.52600  0.75300  0.99900  1.0000
  Br  Br1       1.0  0.00000  0.00000  0.12700  1.0000
  Br  Br2       1.0  0.50000  0.00000  0.36300  1.0000
  Br  Br3       1.0  0.50000  0.50000  0.62700  1.0000
  Br  Br4       1.0  0.00000  0.50000  0.86300  1.0000
  Ca  Ca1       1.0  0.03290  0.25500  0.04080  1.0000
  Ca  Ca2       1.0  0.96700  0.74500  0.04080  1.0000
  Ca  Ca3       1.0  0.75200  0.03820  0.20900  1.0000
  Ca  Ca4       1.0  0.24800  0.96200  0.20900  1.0000
  Ca  Ca5       1.0  0.53300  0.24500  0.54100  1.0000
  Ca  Ca6       1.0  0.46700  0.75500  0.54100  1.0000
  Ca  Ca7       1.0  0.25200  0.46200  0.70900  1.0000
  Ca  Ca8       1.0  0.74800  0.53800  0.70900  1.0000
  O   O1        1.0  0.71300  0.40800  0.00498  1.0000
  O   O2        1.0  0.28700  0.59200  0.00498  1.0000
  O   O3        1.0  0.26500  0.39500  0.10300  1.0000
  O   O4        1.0  0.73500  0.60500  0.10300  1.0000
  O   O5        1.0  0.24900  0.18900  0.12700  1.0000
  O   O6        1.0  0.75100  0.81100  0.12700  1.0000
  O   O7        1.0  0.44000  0.28200  0.19800  1.0000
  O   O8        1.0  0.56000  0.71800  0.19800  1.0000
  O   O9        1.0  0.68600  0.25500  0.27300  1.0000
  O   O10       1.0  0.31400  0.74500  0.27300  1.0000
  O   O11       1.0  0.89400  0.28400  0.34200  1.0000
  O   O12       1.0  0.10600  0.71600  0.34200  1.0000
  O   O13       1.0  0.76400  0.45300  0.36500  1.0000
  O   O14       1.0  0.23600  0.54700  0.36500  1.0000
  O   O15       1.0  0.08770  0.26000  0.43000  1.0000
  O   O16       1.0  0.91200  0.74000  0.43000  1.0000
  O   O17       1.0  0.29200  0.29500  0.45700  1.0000
  O   O18       1.0  0.70800  0.70500  0.45700  1.0000
  O   O19       1.0  0.21300  0.09200  0.50500  1.0000
  O   O20       1.0  0.78700  0.90800  0.50500  1.0000
  O   O21       1.0  0.76500  0.10500  0.60300  1.0000
  O   O22       1.0  0.23500  0.89500  0.60300  1.0000
  O   O23       1.0  0.74900  0.31100  0.62700  1.0000
  O   O24       1.0  0.25100  0.68900  0.62700  1.0000
  O   O25       1.0  0.94000  0.21800  0.69800  1.0000
  O   O26       1.0  0.06040  0.78200  0.69800  1.0000
  O   O27       1.0  0.18600  0.24500  0.77300  1.0000
  O   O28       1.0  0.81400  0.75500  0.77300  1.0000
  O   O29       1.0  0.39400  0.21600  0.84200  1.0000
  O   O30       1.0  0.60600  0.78400  0.84200  1.0000
  O   O31       1.0  0.26400  0.04680  0.86500  1.0000
  O   O32       1.0  0.73600  0.95300  0.86500  1.0000
  O   O33       1.0  0.58800  0.24000  0.93000  1.0000
  O   O34       1.0  0.41200  0.76000  0.93000  1.0000
  O   O35       1.0  0.79200  0.20500  0.95700  1.0000
  O   O36       1.0  0.20800  0.79500  0.95700  1.0000
