data_image0
_chemical_formula_structural       O4Pt4Se4Sn4
_chemical_formula_sum              "O4 Pt4 Se4 Sn4"
_cell_length_a       6.33146
_cell_length_b       7.03407
_cell_length_c       6.49234
_cell_angle_alpha    90
_cell_angle_beta     90
_cell_angle_gamma    90

_space_group_name_H-M_alt    "P 1"
_space_group_IT_number       1

loop_
  _space_group_symop_operation_xyz
  'x, y, z'

loop_
  _atom_site_type_symbol
  _atom_site_label
  _atom_site_symmetry_multiplicity
  _atom_site_fract_x
  _atom_site_fract_y
  _atom_site_fract_z
  _atom_site_occupancy
  O   O1        1.0  0.92000  0.06120  0.21600  1.0000
  O   O2        1.0  0.42000  0.93900  0.21600  1.0000
  O   O3        1.0  0.58000  0.06120  0.71600  1.0000
  O   O4        1.0  0.07970  0.93900  0.71600  1.0000
  Pt  Pt1       1.0  0.54900  0.28200  0.48200  1.0000
  Pt  Pt2       1.0  0.04860  0.71800  0.48200  1.0000
  Pt  Pt3       1.0  0.95100  0.28200  0.98200  1.0000
  Pt  Pt4       1.0  0.45100  0.71800  0.98200  1.0000
  Se  Se1       1.0  0.59600  0.39200  0.11700  1.0000
  Se  Se2       1.0  0.09560  0.60800  0.11700  1.0000
  Se  Se3       1.0  0.90400  0.39200  0.61700  1.0000
  Se  Se4       1.0  0.40400  0.60800  0.61700  1.0000
  Sn  Sn1       1.0  0.16200  0.11200  0.43500  1.0000
  Sn  Sn2       1.0  0.66200  0.88800  0.43500  1.0000
  Sn  Sn3       1.0  0.33800  0.11200  0.93500  1.0000
  Sn  Sn4       1.0  0.83800  0.88800  0.93500  1.0000
