data_image0
_chemical_formula_structural       B8Mg20O40Sn4
_chemical_formula_sum              "B8 Mg20 O40 Sn4"
_cell_length_a       6.09592
_cell_length_b       9.82093
_cell_length_c       12.7355
_cell_angle_alpha    94.284
_cell_angle_beta     103.836
_cell_angle_gamma    71.9424

_space_group_name_H-M_alt    "P 1"
_space_group_IT_number       1

loop_
  _space_group_symop_operation_xyz
  'x, y, z'

loop_
  _atom_site_type_symbol
  _atom_site_label
  _atom_site_symmetry_multiplicity
  _atom_site_fract_x
  _atom_site_fract_y
  _atom_site_fract_z
  _atom_site_occupancy
  B   B1        1.0  0.45600  0.22800  0.13900  1.0000
  B   B2        1.0  0.96100  0.22100  0.14200  1.0000
  B   B3        1.0  0.31600  0.72500  0.35700  1.0000
  B   B4        1.0  0.82000  0.72400  0.36200  1.0000
  B   B5        1.0  0.18000  0.27600  0.63800  1.0000
  B   B6        1.0  0.68400  0.27500  0.64300  1.0000
  B   B7        1.0  0.03940  0.77900  0.85800  1.0000
  B   B8        1.0  0.54400  0.77200  0.86100  1.0000
  Mg  Mg1       1.0  0.76000  0.00014  0.00000  1.0000
  Mg  Mg2       1.0  0.24000  0.00000  0.00000  1.0000
  Mg  Mg3       1.0  0.75700  0.48900  0.00198  1.0000
  Mg  Mg4       1.0  0.17700  0.76300  0.11800  1.0000
  Mg  Mg5       1.0  0.60800  0.49700  0.21800  1.0000
  Mg  Mg6       1.0  0.11400  0.49700  0.21800  1.0000
  Mg  Mg7       1.0  0.38800  0.99600  0.28300  1.0000
  Mg  Mg8       1.0  0.89900  0.99600  0.28300  1.0000
  Mg  Mg9       1.0  0.05860  0.26300  0.38000  1.0000
  Mg  Mg10      1.0  0.75400  0.99100  0.49900  1.0000
  Mg  Mg11      1.0  0.75900  0.50000  0.50000  1.0000
  Mg  Mg12      1.0  0.24100  0.50000  0.50000  1.0000
  Mg  Mg13      1.0  0.24600  0.00927  0.50100  1.0000
  Mg  Mg14      1.0  0.94100  0.73700  0.62000  1.0000
  Mg  Mg15      1.0  0.10100  0.00391  0.71700  1.0000
  Mg  Mg16      1.0  0.61200  0.00395  0.71700  1.0000
  Mg  Mg17      1.0  0.88600  0.50300  0.78200  1.0000
  Mg  Mg18      1.0  0.39200  0.50300  0.78200  1.0000
  Mg  Mg19      1.0  0.82300  0.23700  0.88200  1.0000
  Mg  Mg20      1.0  0.24300  0.51100  0.99800  1.0000
  O   O1        1.0  0.94800  0.14900  0.04320  1.0000
  O   O2        1.0  0.44900  0.14800  0.04390  1.0000
  O   O3        1.0  0.97600  0.61300  0.07690  1.0000
  O   O4        1.0  0.48900  0.61200  0.07690  1.0000
  O   O5        1.0  0.38300  0.37500  0.14100  1.0000
  O   O6        1.0  0.87100  0.89800  0.14300  1.0000
  O   O7        1.0  0.37300  0.89800  0.14300  1.0000
  O   O8        1.0  0.88800  0.37000  0.14500  1.0000
  O   O9        1.0  0.54400  0.14900  0.23500  1.0000
  O   O10       1.0  0.04730  0.14400  0.23700  1.0000
  O   O11       1.0  0.30700  0.64900  0.26200  1.0000
  O   O12       1.0  0.81100  0.64400  0.26500  1.0000
  O   O13       1.0  0.74200  0.87100  0.35600  1.0000
  O   O14       1.0  0.72800  0.39800  0.35700  1.0000
  O   O15       1.0  0.23000  0.39800  0.35700  1.0000
  O   O16       1.0  0.24300  0.87400  0.35900  1.0000
  O   O17       1.0  0.41200  0.11200  0.42300  1.0000
  O   O18       1.0  0.89900  0.11300  0.42300  1.0000
  O   O19       1.0  0.40500  0.64600  0.45500  1.0000
  O   O20       1.0  0.90500  0.65000  0.45800  1.0000
  O   O21       1.0  0.09540  0.35000  0.54200  1.0000
  O   O22       1.0  0.59500  0.35400  0.54500  1.0000
  O   O23       1.0  0.10100  0.88700  0.57700  1.0000
  O   O24       1.0  0.58800  0.88800  0.57700  1.0000
  O   O25       1.0  0.75700  0.12600  0.64100  1.0000
  O   O26       1.0  0.77000  0.60200  0.64300  1.0000
  O   O27       1.0  0.27200  0.60200  0.64300  1.0000
  O   O28       1.0  0.25800  0.12900  0.64400  1.0000
  O   O29       1.0  0.18900  0.35600  0.73500  1.0000
  O   O30       1.0  0.69300  0.35100  0.73800  1.0000
  O   O31       1.0  0.95300  0.85600  0.76300  1.0000
  O   O32       1.0  0.45600  0.85100  0.76500  1.0000
  O   O33       1.0  0.11200  0.63000  0.85500  1.0000
  O   O34       1.0  0.62700  0.10200  0.85700  1.0000
  O   O35       1.0  0.12900  0.10200  0.85700  1.0000
  O   O36       1.0  0.61700  0.62500  0.85900  1.0000
  O   O37       1.0  0.51100  0.38800  0.92300  1.0000
  O   O38       1.0  0.02430  0.38700  0.92300  1.0000
  O   O39       1.0  0.55100  0.85200  0.95600  1.0000
  O   O40       1.0  0.05240  0.85100  0.95700  1.0000
  Sn  Sn1       1.0  0.67800  0.76100  0.11700  1.0000
  Sn  Sn2       1.0  0.56200  0.26200  0.38600  1.0000
  Sn  Sn3       1.0  0.43800  0.73800  0.61400  1.0000
  Sn  Sn4       1.0  0.32200  0.23900  0.88300  1.0000
