data_image0
_chemical_formula_structural       As16Br24Hg32
_chemical_formula_sum              "As16 Br24 Hg32"
_cell_length_a       12.7762
_cell_length_b       12.7762
_cell_length_c       12.7762
_cell_angle_alpha    90
_cell_angle_beta     90
_cell_angle_gamma    90

_space_group_name_H-M_alt    "P 1"
_space_group_IT_number       1

loop_
  _space_group_symop_operation_xyz
  'x, y, z'

loop_
  _atom_site_type_symbol
  _atom_site_label
  _atom_site_symmetry_multiplicity
  _atom_site_fract_x
  _atom_site_fract_y
  _atom_site_fract_z
  _atom_site_occupancy
  As  As1       1.0  0.94500  0.44500  0.05460  1.0000
  As  As2       1.0  0.55500  0.94500  0.05460  1.0000
  As  As3       1.0  0.10200  0.10200  0.10200  1.0000
  As  As4       1.0  0.39800  0.60200  0.10200  1.0000
  As  As5       1.0  0.60200  0.10200  0.39800  1.0000
  As  As6       1.0  0.89800  0.60200  0.39800  1.0000
  As  As7       1.0  0.44500  0.44500  0.44500  1.0000
  As  As8       1.0  0.05460  0.94500  0.44500  1.0000
  As  As9       1.0  0.94500  0.05460  0.55500  1.0000
  As  As10      1.0  0.55500  0.55500  0.55500  1.0000
  As  As11      1.0  0.10200  0.39800  0.60200  1.0000
  As  As12      1.0  0.39800  0.89800  0.60200  1.0000
  As  As13      1.0  0.60200  0.39800  0.89800  1.0000
  As  As14      1.0  0.89800  0.89800  0.89800  1.0000
  As  As15      1.0  0.44500  0.05460  0.94500  1.0000
  As  As16      1.0  0.05460  0.55500  0.94500  1.0000
  Br  Br1       1.0  0.75900  0.19200  0.06520  1.0000
  Br  Br2       1.0  0.74100  0.69200  0.06520  1.0000
  Br  Br3       1.0  0.43500  0.25900  0.19200  1.0000
  Br  Br4       1.0  0.06520  0.75900  0.19200  1.0000
  Br  Br5       1.0  0.69200  0.43500  0.24100  1.0000
  Br  Br6       1.0  0.80800  0.93500  0.24100  1.0000
  Br  Br7       1.0  0.19200  0.43500  0.25900  1.0000
  Br  Br8       1.0  0.30800  0.93500  0.25900  1.0000
  Br  Br9       1.0  0.93500  0.25900  0.30800  1.0000
  Br  Br10      1.0  0.56500  0.75900  0.30800  1.0000
  Br  Br11      1.0  0.25900  0.19200  0.43500  1.0000
  Br  Br12      1.0  0.24100  0.69200  0.43500  1.0000
  Br  Br13      1.0  0.75900  0.30800  0.56500  1.0000
  Br  Br14      1.0  0.74100  0.80800  0.56500  1.0000
  Br  Br15      1.0  0.43500  0.24100  0.69200  1.0000
  Br  Br16      1.0  0.06520  0.74100  0.69200  1.0000
  Br  Br17      1.0  0.69200  0.06520  0.74100  1.0000
  Br  Br18      1.0  0.80800  0.56500  0.74100  1.0000
  Br  Br19      1.0  0.19200  0.06520  0.75900  1.0000
  Br  Br20      1.0  0.30800  0.56500  0.75900  1.0000
  Br  Br21      1.0  0.93500  0.24100  0.80800  1.0000
  Br  Br22      1.0  0.56500  0.74100  0.80800  1.0000
  Br  Br23      1.0  0.25900  0.30800  0.93500  1.0000
  Br  Br24      1.0  0.24100  0.80800  0.93500  1.0000
  Hg  Hg1       1.0  0.75400  0.47400  0.00295  1.0000
  Hg  Hg2       1.0  0.74600  0.97400  0.00295  1.0000
  Hg  Hg3       1.0  0.99700  0.25400  0.02580  1.0000
  Hg  Hg4       1.0  0.50300  0.75400  0.02580  1.0000
  Hg  Hg5       1.0  0.21800  0.21800  0.21800  1.0000
  Hg  Hg6       1.0  0.28200  0.71800  0.21800  1.0000
  Hg  Hg7       1.0  0.97400  0.49700  0.24600  1.0000
  Hg  Hg8       1.0  0.52600  0.99700  0.24600  1.0000
  Hg  Hg9       1.0  0.47400  0.49700  0.25400  1.0000
  Hg  Hg10      1.0  0.02580  0.99700  0.25400  1.0000
  Hg  Hg11      1.0  0.71800  0.21800  0.28200  1.0000
  Hg  Hg12      1.0  0.78200  0.71800  0.28200  1.0000
  Hg  Hg13      1.0  0.49700  0.25400  0.47400  1.0000
  Hg  Hg14      1.0  0.00295  0.75400  0.47400  1.0000
  Hg  Hg15      1.0  0.25400  0.47400  0.49700  1.0000
  Hg  Hg16      1.0  0.24600  0.97400  0.49700  1.0000
  Hg  Hg17      1.0  0.75400  0.02580  0.50300  1.0000
  Hg  Hg18      1.0  0.74600  0.52600  0.50300  1.0000
  Hg  Hg19      1.0  0.99700  0.24600  0.52600  1.0000
  Hg  Hg20      1.0  0.50300  0.74600  0.52600  1.0000
  Hg  Hg21      1.0  0.21800  0.28200  0.71800  1.0000
  Hg  Hg22      1.0  0.28200  0.78200  0.71800  1.0000
  Hg  Hg23      1.0  0.97400  0.00295  0.74600  1.0000
  Hg  Hg24      1.0  0.52600  0.50300  0.74600  1.0000
  Hg  Hg25      1.0  0.47400  0.00295  0.75400  1.0000
  Hg  Hg26      1.0  0.02580  0.50300  0.75400  1.0000
  Hg  Hg27      1.0  0.71800  0.28200  0.78200  1.0000
  Hg  Hg28      1.0  0.78200  0.78200  0.78200  1.0000
  Hg  Hg29      1.0  0.49700  0.24600  0.97400  1.0000
  Hg  Hg30      1.0  0.00295  0.74600  0.97400  1.0000
  Hg  Hg31      1.0  0.25400  0.02580  0.99700  1.0000
  Hg  Hg32      1.0  0.24600  0.52600  0.99700  1.0000
