data_image0
_chemical_formula_structural       Be4H32O32Se4
_chemical_formula_sum              "Be4 H32 O32 Se4"
_cell_length_a       8.19583
_cell_length_b       8.19583
_cell_length_c       10.4034
_cell_angle_alpha    90
_cell_angle_beta     90
_cell_angle_gamma    87.2596

_space_group_name_H-M_alt    "P 1"
_space_group_IT_number       1

loop_
  _space_group_symop_operation_xyz
  'x, y, z'

loop_
  _atom_site_type_symbol
  _atom_site_label
  _atom_site_symmetry_multiplicity
  _atom_site_fract_x
  _atom_site_fract_y
  _atom_site_fract_z
  _atom_site_occupancy
  Be  Be1       1.0  0.75000  0.25000  0.23100  1.0000
  Be  Be2       1.0  0.25000  0.75000  0.26900  1.0000
  Be  Be3       1.0  0.75000  0.25000  0.73100  1.0000
  Be  Be4       1.0  0.25000  0.75000  0.76900  1.0000
  H   H1        1.0  0.56100  0.30100  0.07480  1.0000
  H   H2        1.0  0.69900  0.43900  0.07480  1.0000
  H   H3        1.0  0.14500  0.55700  0.13300  1.0000
  H   H4        1.0  0.44300  0.85500  0.13300  1.0000
  H   H5        1.0  0.00024  0.13800  0.15900  1.0000
  H   H6        1.0  0.86200  0.00000  0.15900  1.0000
  H   H7        1.0  0.00900  0.70200  0.17000  1.0000
  H   H8        1.0  0.29800  0.99100  0.17000  1.0000
  H   H9        1.0  0.50900  0.20200  0.33000  1.0000
  H   H10       1.0  0.79800  0.49100  0.33000  1.0000
  H   H11       1.0  0.36200  0.50000  0.34100  1.0000
  H   H12       1.0  0.50000  0.63800  0.34100  1.0000
  H   H13       1.0  0.64500  0.05650  0.36700  1.0000
  H   H14       1.0  0.94300  0.35500  0.36700  1.0000
  H   H15       1.0  0.06110  0.80100  0.42500  1.0000
  H   H16       1.0  0.19900  0.93900  0.42500  1.0000
  H   H17       1.0  0.80100  0.06110  0.57500  1.0000
  H   H18       1.0  0.93900  0.19900  0.57500  1.0000
  H   H19       1.0  0.05650  0.64500  0.63300  1.0000
  H   H20       1.0  0.35500  0.94300  0.63300  1.0000
  H   H21       1.0  0.50000  0.36200  0.65900  1.0000
  H   H22       1.0  0.63800  0.50000  0.65900  1.0000
  H   H23       1.0  0.20200  0.50900  0.67000  1.0000
  H   H24       1.0  0.49100  0.79800  0.67000  1.0000
  H   H25       1.0  0.70200  0.00900  0.83000  1.0000
  H   H26       1.0  0.99100  0.29800  0.83000  1.0000
  H   H27       1.0  0.13800  0.00024  0.84100  1.0000
  H   H28       1.0  0.00000  0.86200  0.84100  1.0000
  H   H29       1.0  0.55700  0.14500  0.86700  1.0000
  H   H30       1.0  0.85500  0.44300  0.86700  1.0000
  H   H31       1.0  0.30100  0.56100  0.92500  1.0000
  H   H32       1.0  0.43900  0.69900  0.92500  1.0000
  O   O1        1.0  0.20500  0.44700  0.01520  1.0000
  O   O2        1.0  0.55300  0.79500  0.01520  1.0000
  O   O3        1.0  0.64100  0.35900  0.13000  1.0000
  O   O4        1.0  0.18600  0.15100  0.13200  1.0000
  O   O5        1.0  0.84900  0.81400  0.13200  1.0000
  O   O6        1.0  0.88200  0.11800  0.17700  1.0000
  O   O7        1.0  0.11500  0.64600  0.19600  1.0000
  O   O8        1.0  0.35400  0.88500  0.19600  1.0000
  O   O9        1.0  0.61500  0.14600  0.30400  1.0000
  O   O10       1.0  0.85400  0.38500  0.30400  1.0000
  O   O11       1.0  0.38200  0.61800  0.32300  1.0000
  O   O12       1.0  0.34900  0.31400  0.36800  1.0000
  O   O13       1.0  0.68600  0.65100  0.36800  1.0000
  O   O14       1.0  0.14100  0.85900  0.37000  1.0000
  O   O15       1.0  0.05280  0.29500  0.48500  1.0000
  O   O16       1.0  0.70500  0.94700  0.48500  1.0000
  O   O17       1.0  0.29500  0.05280  0.51500  1.0000
  O   O18       1.0  0.94700  0.70500  0.51500  1.0000
  O   O19       1.0  0.85900  0.14100  0.63000  1.0000
  O   O20       1.0  0.31400  0.34900  0.63200  1.0000
  O   O21       1.0  0.65100  0.68600  0.63200  1.0000
  O   O22       1.0  0.61800  0.38200  0.67700  1.0000
  O   O23       1.0  0.14600  0.61500  0.69600  1.0000
  O   O24       1.0  0.38500  0.85400  0.69600  1.0000
  O   O25       1.0  0.64600  0.11500  0.80400  1.0000
  O   O26       1.0  0.88500  0.35400  0.80400  1.0000
  O   O27       1.0  0.11800  0.88200  0.82300  1.0000
  O   O28       1.0  0.15100  0.18600  0.86800  1.0000
  O   O29       1.0  0.81400  0.84900  0.86800  1.0000
  O   O30       1.0  0.35900  0.64100  0.87000  1.0000
  O   O31       1.0  0.44700  0.20500  0.98500  1.0000
  O   O32       1.0  0.79500  0.55300  0.98500  1.0000
  Se  Se1       1.0  0.24800  0.24800  0.00000  1.0000
  Se  Se2       1.0  0.75200  0.75200  0.00000  1.0000
  Se  Se3       1.0  0.25200  0.25200  0.50000  1.0000
  Se  Se4       1.0  0.74800  0.74800  0.50000  1.0000
