data_image0
_chemical_formula_structural       H32Na4O24S2
_chemical_formula_sum              "H32 Na4 O24 S2"
_cell_length_a       7.69119
_cell_length_b       7.91476
_cell_length_c       8.013
_cell_angle_alpha    85.4233
_cell_angle_beta     85.6316
_cell_angle_gamma    88.2326

_space_group_name_H-M_alt    "P 1"
_space_group_IT_number       1

loop_
  _space_group_symop_operation_xyz
  'x, y, z'

loop_
  _atom_site_type_symbol
  _atom_site_label
  _atom_site_symmetry_multiplicity
  _atom_site_fract_x
  _atom_site_fract_y
  _atom_site_fract_z
  _atom_site_occupancy
  H   H1        1.0  0.55700  0.66700  0.00754  1.0000
  H   H2        1.0  0.08040  0.34100  0.04640  1.0000
  H   H3        1.0  0.36300  0.87600  0.04930  1.0000
  H   H4        1.0  0.37800  0.59700  0.09160  1.0000
  H   H5        1.0  0.01740  0.66800  0.11700  1.0000
  H   H6        1.0  0.33700  0.05710  0.11800  1.0000
  H   H7        1.0  0.81300  0.30700  0.14400  1.0000
  H   H8        1.0  0.66500  0.92500  0.18200  1.0000
  H   H9        1.0  0.62200  0.24900  0.22300  1.0000
  H   H10       1.0  0.80400  0.91600  0.31500  1.0000
  H   H11       1.0  0.03160  0.09470  0.33200  1.0000
  H   H12       1.0  0.99400  0.48100  0.33700  1.0000
  H   H13       1.0  0.10300  0.90600  0.35400  1.0000
  H   H14       1.0  0.29500  0.69400  0.38700  1.0000
  H   H15       1.0  0.94600  0.65600  0.41500  1.0000
  H   H16       1.0  0.75200  0.24100  0.43700  1.0000
  H   H17       1.0  0.24800  0.75900  0.56300  1.0000
  H   H18       1.0  0.05370  0.34400  0.58500  1.0000
  H   H19       1.0  0.70500  0.30600  0.61300  1.0000
  H   H20       1.0  0.89700  0.09390  0.64600  1.0000
  H   H21       1.0  0.00567  0.51900  0.66300  1.0000
  H   H22       1.0  0.96800  0.90500  0.66800  1.0000
  H   H23       1.0  0.19600  0.08400  0.68500  1.0000
  H   H24       1.0  0.37800  0.75100  0.77700  1.0000
  H   H25       1.0  0.33500  0.07540  0.81800  1.0000
  H   H26       1.0  0.18700  0.69300  0.85600  1.0000
  H   H27       1.0  0.66300  0.94300  0.88200  1.0000
  H   H28       1.0  0.98300  0.33200  0.88300  1.0000
  H   H29       1.0  0.62200  0.40300  0.90800  1.0000
  H   H30       1.0  0.63700  0.12400  0.95100  1.0000
  H   H31       1.0  0.92000  0.65900  0.95400  1.0000
  H   H32       1.0  0.44300  0.33300  0.99200  1.0000
  Na  Na1       1.0  0.00000  0.00000  0.00000  1.0000
  Na  Na2       1.0  0.63700  0.59300  0.31500  1.0000
  Na  Na3       1.0  0.50000  0.00000  0.50000  1.0000
  Na  Na4       1.0  0.36300  0.40700  0.68500  1.0000
  O   O1        1.0  0.97700  0.29100  0.00469  1.0000
  O   O2        1.0  0.30500  0.99100  0.02540  1.0000
  O   O3        1.0  0.45900  0.69200  0.09160  1.0000
  O   O4        1.0  0.26900  0.41000  0.11800  1.0000
  O   O5        1.0  0.72300  0.31800  0.24000  1.0000
  O   O6        1.0  0.39500  0.17500  0.28300  1.0000
  O   O7        1.0  0.68200  0.88400  0.30100  1.0000
  O   O8        1.0  0.00890  0.97900  0.30100  1.0000
  O   O9        1.0  0.94700  0.59700  0.31100  1.0000
  O   O10       1.0  0.10700  0.29100  0.37000  1.0000
  O   O11       1.0  0.36500  0.45500  0.39300  1.0000
  O   O12       1.0  0.26800  0.80000  0.44100  1.0000
  O   O13       1.0  0.73200  0.20000  0.55900  1.0000
  O   O14       1.0  0.63500  0.54500  0.60700  1.0000
  O   O15       1.0  0.89300  0.70900  0.63000  1.0000
  O   O16       1.0  0.05320  0.40300  0.68900  1.0000
  O   O17       1.0  0.99100  0.02120  0.69900  1.0000
  O   O18       1.0  0.31800  0.11600  0.69900  1.0000
  O   O19       1.0  0.60500  0.82500  0.71700  1.0000
  O   O20       1.0  0.27700  0.68200  0.76000  1.0000
  O   O21       1.0  0.73100  0.59000  0.88200  1.0000
  O   O22       1.0  0.54100  0.30800  0.90800  1.0000
  O   O23       1.0  0.69500  0.00947  0.97500  1.0000
  O   O24       1.0  0.02280  0.70900  0.99500  1.0000
  S   S1        1.0  0.28600  0.33200  0.29400  1.0000
  S   S2        1.0  0.71400  0.66800  0.70600  1.0000
