data_image0
_chemical_formula_structural       Hg32I24Sb16
_chemical_formula_sum              "Hg32 I24 Sb16"
_cell_length_a       13.6445
_cell_length_b       13.6445
_cell_length_c       13.6445
_cell_angle_alpha    90
_cell_angle_beta     90
_cell_angle_gamma    90

_space_group_name_H-M_alt    "P 1"
_space_group_IT_number       1

loop_
  _space_group_symop_operation_xyz
  'x, y, z'

loop_
  _atom_site_type_symbol
  _atom_site_label
  _atom_site_symmetry_multiplicity
  _atom_site_fract_x
  _atom_site_fract_y
  _atom_site_fract_z
  _atom_site_occupancy
  Hg  Hg1       1.0  0.25000  0.02180  0.00688  1.0000
  Hg  Hg2       1.0  0.25000  0.52200  0.00688  1.0000
  Hg  Hg3       1.0  0.00688  0.25000  0.02180  1.0000
  Hg  Hg4       1.0  0.49300  0.75000  0.02180  1.0000
  Hg  Hg5       1.0  0.78300  0.28300  0.21700  1.0000
  Hg  Hg6       1.0  0.71700  0.78300  0.21700  1.0000
  Hg  Hg7       1.0  0.02180  0.00688  0.25000  1.0000
  Hg  Hg8       1.0  0.47800  0.50700  0.25000  1.0000
  Hg  Hg9       1.0  0.52200  0.00688  0.25000  1.0000
  Hg  Hg10      1.0  0.97800  0.50700  0.25000  1.0000
  Hg  Hg11      1.0  0.28300  0.28300  0.28300  1.0000
  Hg  Hg12      1.0  0.21700  0.78300  0.28300  1.0000
  Hg  Hg13      1.0  0.50700  0.25000  0.47800  1.0000
  Hg  Hg14      1.0  0.99300  0.75000  0.47800  1.0000
  Hg  Hg15      1.0  0.75000  0.02180  0.49300  1.0000
  Hg  Hg16      1.0  0.75000  0.52200  0.49300  1.0000
  Hg  Hg17      1.0  0.25000  0.47800  0.50700  1.0000
  Hg  Hg18      1.0  0.25000  0.97800  0.50700  1.0000
  Hg  Hg19      1.0  0.00688  0.25000  0.52200  1.0000
  Hg  Hg20      1.0  0.49300  0.75000  0.52200  1.0000
  Hg  Hg21      1.0  0.78300  0.21700  0.71700  1.0000
  Hg  Hg22      1.0  0.71700  0.71700  0.71700  1.0000
  Hg  Hg23      1.0  0.02180  0.49300  0.75000  1.0000
  Hg  Hg24      1.0  0.47800  0.99300  0.75000  1.0000
  Hg  Hg25      1.0  0.52200  0.49300  0.75000  1.0000
  Hg  Hg26      1.0  0.97800  0.99300  0.75000  1.0000
  Hg  Hg27      1.0  0.28300  0.21700  0.78300  1.0000
  Hg  Hg28      1.0  0.21700  0.71700  0.78300  1.0000
  Hg  Hg29      1.0  0.50700  0.25000  0.97800  1.0000
  Hg  Hg30      1.0  0.99300  0.75000  0.97800  1.0000
  Hg  Hg31      1.0  0.75000  0.47800  0.99300  1.0000
  Hg  Hg32      1.0  0.75000  0.97800  0.99300  1.0000
  I   I1        1.0  0.24500  0.30800  0.06560  1.0000
  I   I2        1.0  0.25500  0.80800  0.06560  1.0000
  I   I3        1.0  0.56600  0.24500  0.19200  1.0000
  I   I4        1.0  0.93400  0.74500  0.19200  1.0000
  I   I5        1.0  0.30800  0.06560  0.24500  1.0000
  I   I6        1.0  0.19200  0.56600  0.24500  1.0000
  I   I7        1.0  0.80800  0.06560  0.25500  1.0000
  I   I8        1.0  0.69200  0.56600  0.25500  1.0000
  I   I9        1.0  0.06560  0.24500  0.30800  1.0000
  I   I10       1.0  0.43400  0.74500  0.30800  1.0000
  I   I11       1.0  0.74500  0.30800  0.43400  1.0000
  I   I12       1.0  0.75500  0.80800  0.43400  1.0000
  I   I13       1.0  0.24500  0.19200  0.56600  1.0000
  I   I14       1.0  0.25500  0.69200  0.56600  1.0000
  I   I15       1.0  0.56600  0.25500  0.69200  1.0000
  I   I16       1.0  0.93400  0.75500  0.69200  1.0000
  I   I17       1.0  0.30800  0.43400  0.74500  1.0000
  I   I18       1.0  0.19200  0.93400  0.74500  1.0000
  I   I19       1.0  0.80800  0.43400  0.75500  1.0000
  I   I20       1.0  0.69200  0.93400  0.75500  1.0000
  I   I21       1.0  0.06560  0.25500  0.80800  1.0000
  I   I22       1.0  0.43400  0.75500  0.80800  1.0000
  I   I23       1.0  0.74500  0.19200  0.93400  1.0000
  I   I24       1.0  0.75500  0.69200  0.93400  1.0000
  Sb  Sb1       1.0  0.05920  0.05920  0.05920  1.0000
  Sb  Sb2       1.0  0.44100  0.55900  0.05920  1.0000
  Sb  Sb3       1.0  0.89900  0.39900  0.10100  1.0000
  Sb  Sb4       1.0  0.60100  0.89900  0.10100  1.0000
  Sb  Sb5       1.0  0.39900  0.39900  0.39900  1.0000
  Sb  Sb6       1.0  0.10100  0.89900  0.39900  1.0000
  Sb  Sb7       1.0  0.55900  0.05920  0.44100  1.0000
  Sb  Sb8       1.0  0.94100  0.55900  0.44100  1.0000
  Sb  Sb9       1.0  0.05920  0.44100  0.55900  1.0000
  Sb  Sb10      1.0  0.44100  0.94100  0.55900  1.0000
  Sb  Sb11      1.0  0.89900  0.10100  0.60100  1.0000
  Sb  Sb12      1.0  0.60100  0.60100  0.60100  1.0000
  Sb  Sb13      1.0  0.39900  0.10100  0.89900  1.0000
  Sb  Sb14      1.0  0.10100  0.60100  0.89900  1.0000
  Sb  Sb15      1.0  0.55900  0.44100  0.94100  1.0000
  Sb  Sb16      1.0  0.94100  0.94100  0.94100  1.0000
