data_image0
_chemical_formula_structural       Cu4K8O40Si16
_chemical_formula_sum              "Cu4 K8 O40 Si16"
_cell_length_a       11.2548
_cell_length_b       8.15761
_cell_length_c       10.9793
_cell_angle_alpha    90
_cell_angle_beta     110.987
_cell_angle_gamma    90

_space_group_name_H-M_alt    "P 1"
_space_group_IT_number       1

loop_
  _space_group_symop_operation_xyz
  'x, y, z'

loop_
  _atom_site_type_symbol
  _atom_site_label
  _atom_site_symmetry_multiplicity
  _atom_site_fract_x
  _atom_site_fract_y
  _atom_site_fract_z
  _atom_site_occupancy
  Cu  Cu1       1.0  0.21300  0.00436  0.28800  1.0000
  Cu  Cu2       1.0  0.21300  0.49600  0.28800  1.0000
  Cu  Cu3       1.0  0.78700  0.50400  0.71200  1.0000
  Cu  Cu4       1.0  0.78700  0.99600  0.71200  1.0000
  K   K1        1.0  0.03050  0.25000  0.03450  1.0000
  K   K2        1.0  0.58600  0.75000  0.08180  1.0000
  K   K3        1.0  0.05660  0.25000  0.44300  1.0000
  K   K4        1.0  0.54100  0.75000  0.47700  1.0000
  K   K5        1.0  0.45900  0.25000  0.52300  1.0000
  K   K6        1.0  0.94300  0.75000  0.55700  1.0000
  K   K7        1.0  0.41400  0.25000  0.91800  1.0000
  K   K8        1.0  0.96900  0.75000  0.96500  1.0000
  O   O1        1.0  0.77000  0.25000  0.05280  1.0000
  O   O2        1.0  0.40400  0.53600  0.08400  1.0000
  O   O3        1.0  0.40400  0.96400  0.08400  1.0000
  O   O4        1.0  0.17100  0.53300  0.10400  1.0000
  O   O5        1.0  0.17100  0.96700  0.10400  1.0000
  O   O6        1.0  0.79400  0.56300  0.11300  1.0000
  O   O7        1.0  0.79400  0.93700  0.11300  1.0000
  O   O8        1.0  0.46200  0.25000  0.19100  1.0000
  O   O9        1.0  0.03220  0.04240  0.24500  1.0000
  O   O10       1.0  0.03220  0.45800  0.24500  1.0000
  O   O11       1.0  0.61400  0.50800  0.28000  1.0000
  O   O12       1.0  0.61400  0.99200  0.28000  1.0000
  O   O13       1.0  0.94600  0.75000  0.29900  1.0000
  O   O14       1.0  0.39700  0.00852  0.32800  1.0000
  O   O15       1.0  0.39700  0.49100  0.32800  1.0000
  O   O16       1.0  0.86400  0.02580  0.36300  1.0000
  O   O17       1.0  0.86400  0.47400  0.36300  1.0000
  O   O18       1.0  0.72300  0.25000  0.42700  1.0000
  O   O19       1.0  0.24800  0.05040  0.46800  1.0000
  O   O20       1.0  0.24800  0.45000  0.46800  1.0000
  O   O21       1.0  0.75200  0.55000  0.53200  1.0000
  O   O22       1.0  0.75200  0.95000  0.53200  1.0000
  O   O23       1.0  0.27700  0.75000  0.57300  1.0000
  O   O24       1.0  0.13600  0.52600  0.63700  1.0000
  O   O25       1.0  0.13600  0.97400  0.63700  1.0000
  O   O26       1.0  0.60300  0.50900  0.67200  1.0000
  O   O27       1.0  0.60300  0.99100  0.67200  1.0000
  O   O28       1.0  0.05400  0.25000  0.70100  1.0000
  O   O29       1.0  0.38600  0.00821  0.72000  1.0000
  O   O30       1.0  0.38600  0.49200  0.72000  1.0000
  O   O31       1.0  0.96800  0.54200  0.75500  1.0000
  O   O32       1.0  0.96800  0.95800  0.75500  1.0000
  O   O33       1.0  0.53800  0.75000  0.80900  1.0000
  O   O34       1.0  0.20600  0.06290  0.88700  1.0000
  O   O35       1.0  0.20600  0.43700  0.88700  1.0000
  O   O36       1.0  0.82900  0.03270  0.89600  1.0000
  O   O37       1.0  0.82900  0.46700  0.89600  1.0000
  O   O38       1.0  0.59600  0.03630  0.91600  1.0000
  O   O39       1.0  0.59600  0.46400  0.91600  1.0000
  O   O40       1.0  0.23000  0.75000  0.94700  1.0000
  Si  Si1       1.0  0.24900  0.56500  0.01070  1.0000
  Si  Si2       1.0  0.24900  0.93500  0.01070  1.0000
  Si  Si3       1.0  0.46500  0.05490  0.22800  1.0000
  Si  Si4       1.0  0.46500  0.44500  0.22800  1.0000
  Si  Si5       1.0  0.91500  0.55800  0.25400  1.0000
  Si  Si6       1.0  0.91500  0.94200  0.25400  1.0000
  Si  Si7       1.0  0.73900  0.05430  0.40600  1.0000
  Si  Si8       1.0  0.73900  0.44600  0.40600  1.0000
  Si  Si9       1.0  0.26100  0.55400  0.59400  1.0000
  Si  Si10      1.0  0.26100  0.94600  0.59400  1.0000
  Si  Si11      1.0  0.08520  0.05810  0.74600  1.0000
  Si  Si12      1.0  0.08520  0.44200  0.74600  1.0000
  Si  Si13      1.0  0.53500  0.55500  0.77200  1.0000
  Si  Si14      1.0  0.53500  0.94500  0.77200  1.0000
  Si  Si15      1.0  0.75100  0.06530  0.98900  1.0000
  Si  Si16      1.0  0.75100  0.43500  0.98900  1.0000
