data_image0
_chemical_formula_structural       Be8K8O36Si12
_chemical_formula_sum              "Be8 K8 O36 Si12"
_cell_length_a       10.1726
_cell_length_b       6.88508
_cell_length_c       12.1046
_cell_angle_alpha    90
_cell_angle_beta     106.926
_cell_angle_gamma    90

_space_group_name_H-M_alt    "P 1"
_space_group_IT_number       1

loop_
  _space_group_symop_operation_xyz
  'x, y, z'

loop_
  _atom_site_type_symbol
  _atom_site_label
  _atom_site_symmetry_multiplicity
  _atom_site_fract_x
  _atom_site_fract_y
  _atom_site_fract_z
  _atom_site_occupancy
  Be  Be1       1.0  0.43100  0.90800  0.04370  1.0000
  Be  Be2       1.0  0.93700  0.07390  0.05830  1.0000
  Be  Be3       1.0  0.06250  0.57400  0.44200  1.0000
  Be  Be4       1.0  0.56900  0.40800  0.45600  1.0000
  Be  Be5       1.0  0.43100  0.59200  0.54400  1.0000
  Be  Be6       1.0  0.93800  0.42600  0.55800  1.0000
  Be  Be7       1.0  0.06250  0.92600  0.94200  1.0000
  Be  Be8       1.0  0.56900  0.09170  0.95600  1.0000
  K   K1        1.0  0.46000  0.37500  0.14400  1.0000
  K   K2        1.0  0.06230  0.60800  0.14600  1.0000
  K   K3        1.0  0.93800  0.10800  0.35400  1.0000
  K   K4        1.0  0.54000  0.87500  0.35600  1.0000
  K   K5        1.0  0.46000  0.12500  0.64400  1.0000
  K   K6        1.0  0.06230  0.89200  0.64600  1.0000
  K   K7        1.0  0.93800  0.39200  0.85400  1.0000
  K   K8        1.0  0.54000  0.62500  0.85600  1.0000
  O   O1        1.0  0.38100  0.69500  0.00414  1.0000
  O   O2        1.0  0.76200  0.62500  0.05410  1.0000
  O   O3        1.0  0.90000  0.30000  0.05890  1.0000
  O   O4        1.0  0.60100  0.93100  0.06700  1.0000
  O   O5        1.0  0.10300  0.02010  0.07650  1.0000
  O   O6        1.0  0.87900  0.95400  0.14400  1.0000
  O   O7        1.0  0.38200  0.99400  0.14700  1.0000
  O   O8        1.0  0.76300  0.37200  0.21700  1.0000
  O   O9        1.0  0.25800  0.25000  0.24200  1.0000
  O   O10       1.0  0.74200  0.75000  0.25800  1.0000
  O   O11       1.0  0.23700  0.87200  0.28300  1.0000
  O   O12       1.0  0.61800  0.49400  0.35300  1.0000
  O   O13       1.0  0.12100  0.45400  0.35600  1.0000
  O   O14       1.0  0.89700  0.52000  0.42400  1.0000
  O   O15       1.0  0.39900  0.43100  0.43300  1.0000
  O   O16       1.0  0.09970  0.80000  0.44100  1.0000
  O   O17       1.0  0.23800  0.12500  0.44600  1.0000
  O   O18       1.0  0.61900  0.19500  0.49600  1.0000
  O   O19       1.0  0.38100  0.80500  0.50400  1.0000
  O   O20       1.0  0.76200  0.87500  0.55400  1.0000
  O   O21       1.0  0.90000  0.20000  0.55900  1.0000
  O   O22       1.0  0.60100  0.56900  0.56700  1.0000
  O   O23       1.0  0.10300  0.48000  0.57600  1.0000
  O   O24       1.0  0.87900  0.54600  0.64400  1.0000
  O   O25       1.0  0.38200  0.50600  0.64700  1.0000
  O   O26       1.0  0.76300  0.12800  0.71700  1.0000
  O   O27       1.0  0.25800  0.25000  0.74200  1.0000
  O   O28       1.0  0.74200  0.75000  0.75800  1.0000
  O   O29       1.0  0.23700  0.62800  0.78300  1.0000
  O   O30       1.0  0.61800  0.00608  0.85300  1.0000
  O   O31       1.0  0.12100  0.04590  0.85600  1.0000
  O   O32       1.0  0.89700  0.98000  0.92400  1.0000
  O   O33       1.0  0.39900  0.06870  0.93300  1.0000
  O   O34       1.0  0.09970  0.70000  0.94100  1.0000
  O   O35       1.0  0.23800  0.37500  0.94600  1.0000
  O   O36       1.0  0.61900  0.30500  0.99600  1.0000
  Si  Si1       1.0  0.76200  0.38700  0.07880  1.0000
  Si  Si2       1.0  0.74600  0.82200  0.12800  1.0000
  Si  Si3       1.0  0.24400  0.03180  0.18200  1.0000
  Si  Si4       1.0  0.75600  0.53200  0.31800  1.0000
  Si  Si5       1.0  0.25400  0.32200  0.37200  1.0000
  Si  Si6       1.0  0.23800  0.88700  0.42100  1.0000
  Si  Si7       1.0  0.76200  0.11300  0.57900  1.0000
  Si  Si8       1.0  0.74600  0.67800  0.62800  1.0000
  Si  Si9       1.0  0.24400  0.46800  0.68200  1.0000
  Si  Si10      1.0  0.75600  0.96800  0.81800  1.0000
  Si  Si11      1.0  0.25400  0.17800  0.87200  1.0000
  Si  Si12      1.0  0.23800  0.61300  0.92100  1.0000
