data_image0
_chemical_formula_structural       B20Nd4O40Zn4
_chemical_formula_sum              "B20 Nd4 O40 Zn4"
_cell_length_a       8.64364
_cell_length_b       7.60079
_cell_length_c       9.44998
_cell_angle_alpha    90
_cell_angle_beta     93.2104
_cell_angle_gamma    90

_space_group_name_H-M_alt    "P 1"
_space_group_IT_number       1

loop_
  _space_group_symop_operation_xyz
  'x, y, z'

loop_
  _atom_site_type_symbol
  _atom_site_label
  _atom_site_symmetry_multiplicity
  _atom_site_fract_x
  _atom_site_fract_y
  _atom_site_fract_z
  _atom_site_occupancy
  B   B1        1.0  0.84800  0.59600  0.00095  1.0000
  B   B2        1.0  0.78000  0.03300  0.05260  1.0000
  B   B3        1.0  0.56900  0.81300  0.08530  1.0000
  B   B4        1.0  0.01840  0.82600  0.10900  1.0000
  B   B5        1.0  0.58500  0.07970  0.23700  1.0000
  B   B6        1.0  0.91500  0.58000  0.26300  1.0000
  B   B7        1.0  0.48200  0.32600  0.39100  1.0000
  B   B8        1.0  0.93100  0.31300  0.41500  1.0000
  B   B9        1.0  0.72000  0.53300  0.44700  1.0000
  B   B10       1.0  0.65200  0.09640  0.49900  1.0000
  B   B11       1.0  0.34800  0.90400  0.50100  1.0000
  B   B12       1.0  0.28000  0.46700  0.55300  1.0000
  B   B13       1.0  0.06940  0.68700  0.58500  1.0000
  B   B14       1.0  0.51800  0.67400  0.60900  1.0000
  B   B15       1.0  0.08460  0.42000  0.73700  1.0000
  B   B16       1.0  0.41500  0.92000  0.76300  1.0000
  B   B17       1.0  0.98200  0.17400  0.89100  1.0000
  B   B18       1.0  0.43100  0.18700  0.91500  1.0000
  B   B19       1.0  0.22000  0.96700  0.94700  1.0000
  B   B20       1.0  0.15200  0.40400  0.99900  1.0000
  Nd  Nd1       1.0  0.18000  0.18400  0.23500  1.0000
  Nd  Nd2       1.0  0.32000  0.68400  0.26500  1.0000
  Nd  Nd3       1.0  0.68000  0.31600  0.73500  1.0000
  Nd  Nd4       1.0  0.82000  0.81600  0.76500  1.0000
  O   O1        1.0  0.68800  0.87300  0.00896  1.0000
  O   O2        1.0  0.03800  0.27700  0.01350  1.0000
  O   O3        1.0  0.50000  0.65100  0.06940  1.0000
  O   O4        1.0  0.17500  0.89300  0.08530  1.0000
  O   O5        1.0  0.23400  0.45600  0.11700  1.0000
  O   O6        1.0  0.68400  0.15200  0.13000  1.0000
  O   O7        1.0  0.81800  0.53500  0.13300  1.0000
  O   O8        1.0  0.91700  0.97600  0.14600  1.0000
  O   O9        1.0  0.51000  0.91500  0.19000  1.0000
  O   O10       1.0  0.03250  0.71500  0.23700  1.0000
  O   O11       1.0  0.46700  0.21500  0.26300  1.0000
  O   O12       1.0  0.99000  0.41500  0.31000  1.0000
  O   O13       1.0  0.58300  0.47600  0.35400  1.0000
  O   O14       1.0  0.68200  0.03540  0.36700  1.0000
  O   O15       1.0  0.81600  0.65200  0.37000  1.0000
  O   O16       1.0  0.26600  0.95600  0.38300  1.0000
  O   O17       1.0  0.32500  0.39300  0.41500  1.0000
  O   O18       1.0  0.00011  0.15100  0.43100  1.0000
  O   O19       1.0  0.46200  0.77700  0.48700  1.0000
  O   O20       1.0  0.81200  0.37300  0.49100  1.0000
  O   O21       1.0  0.18800  0.62700  0.50900  1.0000
  O   O22       1.0  0.53800  0.22300  0.51300  1.0000
  O   O23       1.0  0.00000  0.84900  0.56900  1.0000
  O   O24       1.0  0.67500  0.60700  0.58500  1.0000
  O   O25       1.0  0.73400  0.04440  0.61700  1.0000
  O   O26       1.0  0.18400  0.34800  0.63000  1.0000
  O   O27       1.0  0.31800  0.96500  0.63300  1.0000
  O   O28       1.0  0.41700  0.52400  0.64600  1.0000
  O   O29       1.0  0.01020  0.58500  0.69000  1.0000
  O   O30       1.0  0.53300  0.78500  0.73700  1.0000
  O   O31       1.0  0.96700  0.28500  0.76300  1.0000
  O   O32       1.0  0.49000  0.08550  0.81000  1.0000
  O   O33       1.0  0.08320  0.02360  0.85400  1.0000
  O   O34       1.0  0.18200  0.46500  0.86700  1.0000
  O   O35       1.0  0.31600  0.84800  0.87000  1.0000
  O   O36       1.0  0.76600  0.54400  0.88300  1.0000
  O   O37       1.0  0.82500  0.10700  0.91500  1.0000
  O   O38       1.0  0.50000  0.34900  0.93100  1.0000
  O   O39       1.0  0.96200  0.72300  0.98700  1.0000
  O   O40       1.0  0.31200  0.12700  0.99100  1.0000
  Zn  Zn1       1.0  0.60800  0.41200  0.12500  1.0000
  Zn  Zn2       1.0  0.89200  0.91200  0.37500  1.0000
  Zn  Zn3       1.0  0.10800  0.08800  0.62500  1.0000
  Zn  Zn4       1.0  0.39200  0.58800  0.87500  1.0000
