data_image0
_chemical_formula_structural       Cr12K8O40
_chemical_formula_sum              "Cr12 K8 O40"
_cell_length_a       7.18124
_cell_length_b       9.4865
_cell_length_c       17.2384
_cell_angle_alpha    90
_cell_angle_beta     90
_cell_angle_gamma    129.218

_space_group_name_H-M_alt    "P 1"
_space_group_IT_number       1

loop_
  _space_group_symop_operation_xyz
  'x, y, z'

loop_
  _atom_site_type_symbol
  _atom_site_label
  _atom_site_symmetry_multiplicity
  _atom_site_fract_x
  _atom_site_fract_y
  _atom_site_fract_z
  _atom_site_occupancy
  Cr  Cr1       1.0  0.08240  0.34100  0.00116  1.0000
  Cr  Cr2       1.0  0.74700  0.83800  0.09100  1.0000
  Cr  Cr3       1.0  0.57400  0.53100  0.22300  1.0000
  Cr  Cr4       1.0  0.57400  0.03070  0.27700  1.0000
  Cr  Cr5       1.0  0.74700  0.33800  0.40900  1.0000
  Cr  Cr6       1.0  0.08240  0.84100  0.49900  1.0000
  Cr  Cr7       1.0  0.91800  0.15900  0.50100  1.0000
  Cr  Cr8       1.0  0.25300  0.66200  0.59100  1.0000
  Cr  Cr9       1.0  0.42600  0.96900  0.72300  1.0000
  Cr  Cr10      1.0  0.42600  0.46900  0.77700  1.0000
  Cr  Cr11      1.0  0.25300  0.16200  0.90900  1.0000
  Cr  Cr12      1.0  0.91800  0.65900  0.99900  1.0000
  K   K1        1.0  0.47600  0.12900  0.08690  1.0000
  K   K2        1.0  0.09960  0.57300  0.20200  1.0000
  K   K3        1.0  0.09960  0.07330  0.29800  1.0000
  K   K4        1.0  0.47600  0.62900  0.41300  1.0000
  K   K5        1.0  0.52400  0.37100  0.58700  1.0000
  K   K6        1.0  0.90000  0.92700  0.70200  1.0000
  K   K7        1.0  0.90000  0.42700  0.79800  1.0000
  K   K8        1.0  0.52400  0.87100  0.91300  1.0000
  O   O1        1.0  0.81600  0.79400  0.00247  1.0000
  O   O2        1.0  0.69500  0.45200  0.02250  1.0000
  O   O3        1.0  0.13300  0.74600  0.06220  1.0000
  O   O4        1.0  0.63200  0.93400  0.07270  1.0000
  O   O5        1.0  0.98800  0.33500  0.08730  1.0000
  O   O6        1.0  0.98700  0.97200  0.14100  1.0000
  O   O7        1.0  0.54200  0.64000  0.14300  1.0000
  O   O8        1.0  0.58000  0.37000  0.19400  1.0000
  O   O9        1.0  0.34400  0.94500  0.22000  1.0000
  O   O10       1.0  0.82300  0.18500  0.23300  1.0000
  O   O11       1.0  0.82300  0.68500  0.26700  1.0000
  O   O12       1.0  0.34400  0.44500  0.28000  1.0000
  O   O13       1.0  0.58000  0.87000  0.30600  1.0000
  O   O14       1.0  0.54200  0.14000  0.35700  1.0000
  O   O15       1.0  0.98700  0.47200  0.35900  1.0000
  O   O16       1.0  0.98800  0.83500  0.41300  1.0000
  O   O17       1.0  0.63200  0.43400  0.42700  1.0000
  O   O18       1.0  0.13300  0.24600  0.43800  1.0000
  O   O19       1.0  0.69500  0.95200  0.47700  1.0000
  O   O20       1.0  0.81600  0.29400  0.49800  1.0000
  O   O21       1.0  0.18400  0.70600  0.50200  1.0000
  O   O22       1.0  0.30500  0.04750  0.52300  1.0000
  O   O23       1.0  0.86700  0.75400  0.56200  1.0000
  O   O24       1.0  0.36800  0.56600  0.57300  1.0000
  O   O25       1.0  0.01240  0.16500  0.58700  1.0000
  O   O26       1.0  0.01280  0.52800  0.64100  1.0000
  O   O27       1.0  0.45800  0.86000  0.64300  1.0000
  O   O28       1.0  0.42000  0.13000  0.69400  1.0000
  O   O29       1.0  0.65600  0.55500  0.72000  1.0000
  O   O30       1.0  0.17700  0.31500  0.73300  1.0000
  O   O31       1.0  0.17700  0.81500  0.76700  1.0000
  O   O32       1.0  0.65600  0.05510  0.78000  1.0000
  O   O33       1.0  0.42000  0.63000  0.80600  1.0000
  O   O34       1.0  0.45800  0.36000  0.85700  1.0000
  O   O35       1.0  0.01280  0.02810  0.85900  1.0000
  O   O36       1.0  0.01240  0.66500  0.91300  1.0000
  O   O37       1.0  0.36800  0.06600  0.92700  1.0000
  O   O38       1.0  0.86700  0.25400  0.93800  1.0000
  O   O39       1.0  0.30500  0.54800  0.97700  1.0000
  O   O40       1.0  0.18400  0.20600  0.99800  1.0000
