data_image0
_chemical_formula_structural       C16Cu4H32O20
_chemical_formula_sum              "C16 Cu4 H32 O20"
_cell_length_a       7.65437
_cell_length_b       7.65437
_cell_length_c       12.6759
_cell_angle_alpha    99.0864
_cell_angle_beta     101.318
_cell_angle_gamma    114.422

_space_group_name_H-M_alt    "P 1"
_space_group_IT_number       1

loop_
  _space_group_symop_operation_xyz
  'x, y, z'

loop_
  _atom_site_type_symbol
  _atom_site_label
  _atom_site_symmetry_multiplicity
  _atom_site_fract_x
  _atom_site_fract_y
  _atom_site_fract_z
  _atom_site_occupancy
  C   C1        1.0  0.36500  0.17600  0.05480  1.0000
  C   C2        1.0  0.28600  0.98600  0.08900  1.0000
  C   C3        1.0  0.48100  0.66900  0.18600  1.0000
  C   C4        1.0  0.96700  0.18100  0.20200  1.0000
  C   C5        1.0  0.47900  0.76500  0.29800  1.0000
  C   C6        1.0  0.98300  0.29500  0.31400  1.0000
  C   C7        1.0  0.39700  0.19700  0.41100  1.0000
  C   C8        1.0  0.62100  0.31000  0.44500  1.0000
  C   C9        1.0  0.37900  0.69000  0.55500  1.0000
  C   C10       1.0  0.60300  0.80300  0.58900  1.0000
  C   C11       1.0  0.01680  0.70500  0.68600  1.0000
  C   C12       1.0  0.52100  0.23500  0.70200  1.0000
  C   C13       1.0  0.03300  0.81900  0.79800  1.0000
  C   C14       1.0  0.51900  0.33100  0.81400  1.0000
  C   C15       1.0  0.71400  0.01440  0.91100  1.0000
  C   C16       1.0  0.63500  0.82400  0.94500  1.0000
  Cu  Cu1       1.0  0.68300  0.53400  0.04470  1.0000
  Cu  Cu2       1.0  0.98900  0.63800  0.45500  1.0000
  Cu  Cu3       1.0  0.01080  0.36200  0.54500  1.0000
  Cu  Cu4       1.0  0.31700  0.46600  0.95500  1.0000
  H   H1        1.0  0.32600  0.88200  0.04160  1.0000
  H   H2        1.0  0.12300  0.92000  0.07290  1.0000
  H   H3        1.0  0.09270  0.59400  0.11400  1.0000
  H   H4        1.0  0.83800  0.17200  0.14100  1.0000
  H   H5        1.0  0.09980  0.26500  0.17600  1.0000
  H   H6        1.0  0.36000  0.01470  0.17800  1.0000
  H   H7        1.0  0.95200  0.03290  0.20200  1.0000
  H   H8        1.0  0.97700  0.54800  0.20400  1.0000
  H   H9        1.0  0.84400  0.77300  0.29600  1.0000
  H   H10       1.0  0.33100  0.75000  0.29800  1.0000
  H   H11       1.0  0.33700  0.18200  0.32200  1.0000
  H   H12       1.0  0.58900  0.92400  0.32400  1.0000
  H   H13       1.0  0.53100  0.69700  0.35900  1.0000
  H   H14       1.0  0.98000  0.97900  0.38600  1.0000
  H   H15       1.0  0.34700  0.05020  0.42700  1.0000
  H   H16       1.0  0.34100  0.28400  0.45800  1.0000
  H   H17       1.0  0.65900  0.71600  0.54200  1.0000
  H   H18       1.0  0.65300  0.95000  0.57300  1.0000
  H   H19       1.0  0.01990  0.02110  0.61400  1.0000
  H   H20       1.0  0.46900  0.30300  0.64100  1.0000
  H   H21       1.0  0.41100  0.07640  0.67600  1.0000
  H   H22       1.0  0.66300  0.81800  0.67800  1.0000
  H   H23       1.0  0.66900  0.25000  0.70200  1.0000
  H   H24       1.0  0.15600  0.22700  0.70400  1.0000
  H   H25       1.0  0.02260  0.45200  0.79600  1.0000
  H   H26       1.0  0.04830  0.96700  0.79800  1.0000
  H   H27       1.0  0.64000  0.98500  0.82200  1.0000
  H   H28       1.0  0.90000  0.73500  0.82400  1.0000
  H   H29       1.0  0.16200  0.82800  0.85900  1.0000
  H   H30       1.0  0.90700  0.40600  0.88600  1.0000
  H   H31       1.0  0.87700  0.08050  0.92700  1.0000
  H   H32       1.0  0.67400  0.11800  0.95800  1.0000
  O   O1        1.0  0.23500  0.22100  0.00411  1.0000
  O   O2        1.0  0.55500  0.27500  0.07860  1.0000
  O   O3        1.0  0.32200  0.59700  0.10400  1.0000
  O   O4        1.0  0.97800  0.59700  0.13600  1.0000
  O   O5        1.0  0.64400  0.66500  0.17900  1.0000
  O   O6        1.0  0.98600  0.46400  0.32100  1.0000
  O   O7        1.0  0.96100  0.84100  0.36400  1.0000
  O   O8        1.0  0.99200  0.21800  0.39600  1.0000
  O   O9        1.0  0.69600  0.47700  0.42100  1.0000
  O   O10       1.0  0.71700  0.23100  0.49600  1.0000
  O   O11       1.0  0.28300  0.76900  0.50400  1.0000
  O   O12       1.0  0.30400  0.52300  0.57900  1.0000
  O   O13       1.0  0.00776  0.78200  0.60400  1.0000
  O   O14       1.0  0.03890  0.15900  0.63600  1.0000
  O   O15       1.0  0.01410  0.53600  0.67900  1.0000
  O   O16       1.0  0.35600  0.33500  0.82100  1.0000
  O   O17       1.0  0.02250  0.40300  0.86400  1.0000
  O   O18       1.0  0.67800  0.40300  0.89600  1.0000
  O   O19       1.0  0.44500  0.72500  0.92100  1.0000
  O   O20       1.0  0.76500  0.77900  0.99600  1.0000
