data_image0
_chemical_formula_structural       Al8Nd16O36
_chemical_formula_sum              "Al8 Nd16 O36"
_cell_length_a       7.72931
_cell_length_b       10.8624
_cell_length_c       11.3146
_cell_angle_alpha    90
_cell_angle_beta     109.385
_cell_angle_gamma    90

_space_group_name_H-M_alt    "P 1"
_space_group_IT_number       1

loop_
  _space_group_symop_operation_xyz
  'x, y, z'

loop_
  _atom_site_type_symbol
  _atom_site_label
  _atom_site_symmetry_multiplicity
  _atom_site_fract_x
  _atom_site_fract_y
  _atom_site_fract_z
  _atom_site_occupancy
  Al  Al1       1.0  0.65300  0.19000  0.11900  1.0000
  Al  Al2       1.0  0.22300  0.19200  0.12900  1.0000
  Al  Al3       1.0  0.77700  0.69200  0.37100  1.0000
  Al  Al4       1.0  0.34700  0.69000  0.38100  1.0000
  Al  Al5       1.0  0.65300  0.31000  0.61900  1.0000
  Al  Al6       1.0  0.22300  0.30800  0.62900  1.0000
  Al  Al7       1.0  0.77700  0.80800  0.87100  1.0000
  Al  Al8       1.0  0.34700  0.81000  0.88100  1.0000
  Nd  Nd1       1.0  0.66700  0.62500  0.07160  1.0000
  Nd  Nd2       1.0  0.16500  0.62200  0.08810  1.0000
  Nd  Nd3       1.0  0.97200  0.91500  0.18700  1.0000
  Nd  Nd4       1.0  0.47500  0.89900  0.21100  1.0000
  Nd  Nd5       1.0  0.52500  0.39900  0.28900  1.0000
  Nd  Nd6       1.0  0.02770  0.41500  0.31300  1.0000
  Nd  Nd7       1.0  0.83500  0.12200  0.41200  1.0000
  Nd  Nd8       1.0  0.33300  0.12500  0.42800  1.0000
  Nd  Nd9       1.0  0.66700  0.87500  0.57200  1.0000
  Nd  Nd10      1.0  0.16500  0.87800  0.58800  1.0000
  Nd  Nd11      1.0  0.97200  0.58500  0.68700  1.0000
  Nd  Nd12      1.0  0.47500  0.60100  0.71100  1.0000
  Nd  Nd13      1.0  0.52500  0.10100  0.78900  1.0000
  Nd  Nd14      1.0  0.02770  0.08460  0.81300  1.0000
  Nd  Nd15      1.0  0.83500  0.37800  0.91200  1.0000
  Nd  Nd16      1.0  0.33300  0.37500  0.92800  1.0000
  O   O1        1.0  0.92200  0.76500  0.01960  1.0000
  O   O2        1.0  0.35800  0.77100  0.03350  1.0000
  O   O3        1.0  0.43300  0.50900  0.10400  1.0000
  O   O4        1.0  0.92400  0.49600  0.10700  1.0000
  O   O5        1.0  0.43400  0.24200  0.11700  1.0000
  O   O6        1.0  0.21700  0.03560  0.16400  1.0000
  O   O7        1.0  0.70000  0.03670  0.17200  1.0000
  O   O8        1.0  0.76800  0.77700  0.23600  1.0000
  O   O9        1.0  0.78400  0.27900  0.24700  1.0000
  O   O10       1.0  0.21600  0.77900  0.25300  1.0000
  O   O11       1.0  0.23200  0.27700  0.26400  1.0000
  O   O12       1.0  0.30000  0.53700  0.32800  1.0000
  O   O13       1.0  0.78300  0.53600  0.33600  1.0000
  O   O14       1.0  0.56600  0.74200  0.38300  1.0000
  O   O15       1.0  0.07650  0.99600  0.39300  1.0000
  O   O16       1.0  0.56700  0.00884  0.39600  1.0000
  O   O17       1.0  0.64200  0.27100  0.46600  1.0000
  O   O18       1.0  0.07820  0.26500  0.48000  1.0000
  O   O19       1.0  0.92200  0.73500  0.52000  1.0000
  O   O20       1.0  0.35800  0.72900  0.53400  1.0000
  O   O21       1.0  0.43300  0.99100  0.60400  1.0000
  O   O22       1.0  0.92400  0.00450  0.60700  1.0000
  O   O23       1.0  0.43400  0.25800  0.61700  1.0000
  O   O24       1.0  0.21700  0.46400  0.66400  1.0000
  O   O25       1.0  0.70000  0.46300  0.67200  1.0000
  O   O26       1.0  0.76800  0.72300  0.73600  1.0000
  O   O27       1.0  0.78400  0.22100  0.74700  1.0000
  O   O28       1.0  0.21600  0.72100  0.75300  1.0000
  O   O29       1.0  0.23200  0.22300  0.76400  1.0000
  O   O30       1.0  0.30000  0.96300  0.82800  1.0000
  O   O31       1.0  0.78300  0.96400  0.83600  1.0000
  O   O32       1.0  0.56600  0.75800  0.88300  1.0000
  O   O33       1.0  0.07650  0.50500  0.89300  1.0000
  O   O34       1.0  0.56700  0.49100  0.89600  1.0000
  O   O35       1.0  0.64200  0.22900  0.96600  1.0000
  O   O36       1.0  0.07820  0.23500  0.98000  1.0000
