data_image0
_chemical_formula_structural       Ge8O40Rb8Sb8
_chemical_formula_sum              "Ge8 O40 Rb8 Sb8"
_cell_length_a       13.4164
_cell_length_b       6.71838
_cell_length_c       10.7731
_cell_angle_alpha    90
_cell_angle_beta     90
_cell_angle_gamma    90

_space_group_name_H-M_alt    "P 1"
_space_group_IT_number       1

loop_
  _space_group_symop_operation_xyz
  'x, y, z'

loop_
  _atom_site_type_symbol
  _atom_site_label
  _atom_site_symmetry_multiplicity
  _atom_site_fract_x
  _atom_site_fract_y
  _atom_site_fract_z
  _atom_site_occupancy
  Ge  Ge1       1.0  0.32000  0.00950  0.00212  1.0000
  Ge  Ge2       1.0  0.82000  0.49100  0.00212  1.0000
  Ge  Ge3       1.0  0.50200  0.68600  0.25200  1.0000
  Ge  Ge4       1.0  0.00167  0.81400  0.25200  1.0000
  Ge  Ge5       1.0  0.18000  0.50900  0.50200  1.0000
  Ge  Ge6       1.0  0.68000  0.99100  0.50200  1.0000
  Ge  Ge7       1.0  0.99800  0.18600  0.75200  1.0000
  Ge  Ge8       1.0  0.49800  0.31400  0.75200  1.0000
  O   O1        1.0  0.39900  0.21200  0.03650  1.0000
  O   O2        1.0  0.89900  0.28800  0.03650  1.0000
  O   O3        1.0  0.49600  0.54400  0.11500  1.0000
  O   O4        1.0  0.99600  0.95600  0.11500  1.0000
  O   O5        1.0  0.73500  0.54300  0.12400  1.0000
  O   O6        1.0  0.23500  0.95700  0.12400  1.0000
  O   O7        1.0  0.28000  0.54100  0.13000  1.0000
  O   O8        1.0  0.78000  0.95900  0.13000  1.0000
  O   O9        1.0  0.11000  0.66700  0.24000  1.0000
  O   O10       1.0  0.61000  0.83300  0.24000  1.0000
  O   O11       1.0  0.89800  0.65600  0.27100  1.0000
  O   O12       1.0  0.39800  0.84400  0.27100  1.0000
  O   O13       1.0  0.51200  0.50800  0.37000  1.0000
  O   O14       1.0  0.01210  0.99200  0.37000  1.0000
  O   O15       1.0  0.72400  0.53100  0.37600  1.0000
  O   O16       1.0  0.22400  0.96900  0.37600  1.0000
  O   O17       1.0  0.27200  0.55400  0.38600  1.0000
  O   O18       1.0  0.77200  0.94600  0.38600  1.0000
  O   O19       1.0  0.60800  0.19800  0.46000  1.0000
  O   O20       1.0  0.10800  0.30200  0.46000  1.0000
  O   O21       1.0  0.10100  0.71200  0.53600  1.0000
  O   O22       1.0  0.60100  0.78800  0.53600  1.0000
  O   O23       1.0  0.00401  0.04440  0.61500  1.0000
  O   O24       1.0  0.50400  0.45600  0.61500  1.0000
  O   O25       1.0  0.76500  0.04330  0.62400  1.0000
  O   O26       1.0  0.26500  0.45700  0.62400  1.0000
  O   O27       1.0  0.22000  0.04140  0.63000  1.0000
  O   O28       1.0  0.72000  0.45900  0.63000  1.0000
  O   O29       1.0  0.39000  0.16700  0.74000  1.0000
  O   O30       1.0  0.89000  0.33300  0.74000  1.0000
  O   O31       1.0  0.60200  0.15600  0.77100  1.0000
  O   O32       1.0  0.10200  0.34400  0.77100  1.0000
  O   O33       1.0  0.98800  0.00775  0.87000  1.0000
  O   O34       1.0  0.48800  0.49200  0.87000  1.0000
  O   O35       1.0  0.77600  0.03070  0.87600  1.0000
  O   O36       1.0  0.27600  0.46900  0.87600  1.0000
  O   O37       1.0  0.22800  0.05370  0.88600  1.0000
  O   O38       1.0  0.72800  0.44600  0.88600  1.0000
  O   O39       1.0  0.89200  0.69800  0.96000  1.0000
  O   O40       1.0  0.39200  0.80200  0.96000  1.0000
  Rb  Rb1       1.0  0.61100  0.22000  0.16700  1.0000
  Rb  Rb2       1.0  0.11100  0.28000  0.16700  1.0000
  Rb  Rb3       1.0  0.39000  0.19800  0.42800  1.0000
  Rb  Rb4       1.0  0.89000  0.30200  0.42800  1.0000
  Rb  Rb5       1.0  0.88900  0.72000  0.66700  1.0000
  Rb  Rb6       1.0  0.38900  0.78000  0.66700  1.0000
  Rb  Rb7       1.0  0.11000  0.69800  0.92800  1.0000
  Rb  Rb8       1.0  0.61000  0.80200  0.92800  1.0000
  Sb  Sb1       1.0  0.38300  0.50600  0.00034  1.0000
  Sb  Sb2       1.0  0.88300  0.99400  0.00034  1.0000
  Sb  Sb3       1.0  0.75400  0.74500  0.25500  1.0000
  Sb  Sb4       1.0  0.25400  0.75500  0.25500  1.0000
  Sb  Sb5       1.0  0.11700  0.00622  0.50000  1.0000
  Sb  Sb6       1.0  0.61700  0.49400  0.50000  1.0000
  Sb  Sb7       1.0  0.74600  0.24500  0.75500  1.0000
  Sb  Sb8       1.0  0.24600  0.25500  0.75500  1.0000
