data_image0
_chemical_formula_structural       K8O40P8Sn8
_chemical_formula_sum              "K8 O40 P8 Sn8"
_cell_length_a       13.1339
_cell_length_b       6.51765
_cell_length_c       10.6661
_cell_angle_alpha    90
_cell_angle_beta     90
_cell_angle_gamma    90

_space_group_name_H-M_alt    "P 1"
_space_group_IT_number       1

loop_
  _space_group_symop_operation_xyz
  'x, y, z'

loop_
  _atom_site_type_symbol
  _atom_site_label
  _atom_site_symmetry_multiplicity
  _atom_site_fract_x
  _atom_site_fract_y
  _atom_site_fract_z
  _atom_site_occupancy
  K   K1        1.0  0.62100  0.22300  0.19900  1.0000
  K   K2        1.0  0.12100  0.27700  0.19900  1.0000
  K   K3        1.0  0.39100  0.19000  0.44100  1.0000
  K   K4        1.0  0.89100  0.31000  0.44100  1.0000
  K   K5        1.0  0.87900  0.72300  0.69900  1.0000
  K   K6        1.0  0.37900  0.77700  0.69900  1.0000
  K   K7        1.0  0.10900  0.69000  0.94100  1.0000
  K   K8        1.0  0.60900  0.81000  0.94100  1.0000
  O   O1        1.0  0.39700  0.18500  0.02280  1.0000
  O   O2        1.0  0.89700  0.31500  0.02280  1.0000
  O   O3        1.0  0.74900  0.52800  0.10700  1.0000
  O   O4        1.0  0.24900  0.97200  0.10700  1.0000
  O   O5        1.0  0.26200  0.53000  0.12500  1.0000
  O   O6        1.0  0.76200  0.97000  0.12500  1.0000
  O   O7        1.0  0.48800  0.52400  0.13500  1.0000
  O   O8        1.0  0.98800  0.97600  0.13500  1.0000
  O   O9        1.0  0.09140  0.69700  0.23200  1.0000
  O   O10       1.0  0.59100  0.80300  0.23200  1.0000
  O   O11       1.0  0.90700  0.69200  0.27400  1.0000
  O   O12       1.0  0.40700  0.80800  0.27400  1.0000
  O   O13       1.0  0.72700  0.50700  0.36100  1.0000
  O   O14       1.0  0.22700  0.99300  0.36100  1.0000
  O   O15       1.0  0.50900  0.51400  0.36500  1.0000
  O   O16       1.0  0.00885  0.98600  0.36500  1.0000
  O   O17       1.0  0.24600  0.52500  0.38300  1.0000
  O   O18       1.0  0.74600  0.97500  0.38300  1.0000
  O   O19       1.0  0.60300  0.18300  0.47600  1.0000
  O   O20       1.0  0.10300  0.31700  0.47600  1.0000
  O   O21       1.0  0.10300  0.68500  0.52300  1.0000
  O   O22       1.0  0.60300  0.81500  0.52300  1.0000
  O   O23       1.0  0.75100  0.02760  0.60700  1.0000
  O   O24       1.0  0.25100  0.47200  0.60700  1.0000
  O   O25       1.0  0.23800  0.02980  0.62500  1.0000
  O   O26       1.0  0.73800  0.47000  0.62500  1.0000
  O   O27       1.0  0.01190  0.02370  0.63500  1.0000
  O   O28       1.0  0.51200  0.47600  0.63500  1.0000
  O   O29       1.0  0.40900  0.19700  0.73200  1.0000
  O   O30       1.0  0.90900  0.30300  0.73200  1.0000
  O   O31       1.0  0.59300  0.19200  0.77400  1.0000
  O   O32       1.0  0.09290  0.30800  0.77400  1.0000
  O   O33       1.0  0.77300  0.00700  0.86100  1.0000
  O   O34       1.0  0.27300  0.49300  0.86100  1.0000
  O   O35       1.0  0.99100  0.01400  0.86500  1.0000
  O   O36       1.0  0.49100  0.48600  0.86500  1.0000
  O   O37       1.0  0.25400  0.02460  0.88300  1.0000
  O   O38       1.0  0.75400  0.47500  0.88300  1.0000
  O   O39       1.0  0.89700  0.68300  0.97600  1.0000
  O   O40       1.0  0.39700  0.81700  0.97600  1.0000
  P   P1        1.0  0.49800  0.66300  0.25300  1.0000
  P   P2        1.0  0.99800  0.83700  0.25300  1.0000
  P   P3        1.0  0.17500  0.50100  0.49800  1.0000
  P   P4        1.0  0.67500  0.99900  0.49800  1.0000
  P   P5        1.0  0.00189  0.16300  0.75300  1.0000
  P   P6        1.0  0.50200  0.33700  0.75300  1.0000
  P   P7        1.0  0.32500  0.00139  0.99800  1.0000
  P   P8        1.0  0.82500  0.49900  0.99800  1.0000
  Sn  Sn1       1.0  0.87400  0.00222  0.00117  1.0000
  Sn  Sn2       1.0  0.37400  0.49800  0.00117  1.0000
  Sn  Sn3       1.0  0.75100  0.74500  0.25000  1.0000
  Sn  Sn4       1.0  0.25100  0.75500  0.25000  1.0000
  Sn  Sn5       1.0  0.62600  0.50200  0.50100  1.0000
  Sn  Sn6       1.0  0.12600  0.99800  0.50100  1.0000
  Sn  Sn7       1.0  0.74900  0.24500  0.75000  1.0000
  Sn  Sn8       1.0  0.24900  0.25500  0.75000  1.0000
