data_image0
_chemical_formula_structural       Na40Sb24Sn8
_chemical_formula_sum              "Na40 Sb24 Sn8"
_cell_length_a       18.437
_cell_length_b       9.18769
_cell_length_c       12.4094
_cell_angle_alpha    90
_cell_angle_beta     98.122
_cell_angle_gamma    90

_space_group_name_H-M_alt    "P 1"
_space_group_IT_number       1

loop_
  _space_group_symop_operation_xyz
  'x, y, z'

loop_
  _atom_site_type_symbol
  _atom_site_label
  _atom_site_symmetry_multiplicity
  _atom_site_fract_x
  _atom_site_fract_y
  _atom_site_fract_z
  _atom_site_occupancy
  Na  Na1       1.0  0.34800  0.43500  0.01270  1.0000
  Na  Na2       1.0  0.30100  0.82400  0.05510  1.0000
  Na  Na3       1.0  0.02760  0.33800  0.08400  1.0000
  Na  Na4       1.0  0.53100  0.31800  0.09440  1.0000
  Na  Na5       1.0  0.80500  0.84500  0.09630  1.0000
  Na  Na6       1.0  0.48500  0.94100  0.12800  1.0000
  Na  Na7       1.0  0.99500  0.93000  0.13500  1.0000
  Na  Na8       1.0  0.18100  0.06940  0.17400  1.0000
  Na  Na9       1.0  0.12800  0.68100  0.22300  1.0000
  Na  Na10      1.0  0.37000  0.18700  0.24400  1.0000
  Na  Na11      1.0  0.63000  0.68700  0.25600  1.0000
  Na  Na12      1.0  0.87200  0.18100  0.27700  1.0000
  Na  Na13      1.0  0.81900  0.56900  0.32600  1.0000
  Na  Na14      1.0  0.00541  0.43000  0.36500  1.0000
  Na  Na15      1.0  0.51500  0.44100  0.37200  1.0000
  Na  Na16      1.0  0.19500  0.34500  0.40400  1.0000
  Na  Na17      1.0  0.46900  0.81800  0.40600  1.0000
  Na  Na18      1.0  0.97200  0.83800  0.41600  1.0000
  Na  Na19      1.0  0.69900  0.32400  0.44500  1.0000
  Na  Na20      1.0  0.65200  0.93500  0.48700  1.0000
  Na  Na21      1.0  0.34800  0.06540  0.51300  1.0000
  Na  Na22      1.0  0.30100  0.67600  0.55500  1.0000
  Na  Na23      1.0  0.02760  0.16200  0.58400  1.0000
  Na  Na24      1.0  0.53100  0.18200  0.59400  1.0000
  Na  Na25      1.0  0.80500  0.65500  0.59600  1.0000
  Na  Na26      1.0  0.48500  0.55900  0.62800  1.0000
  Na  Na27      1.0  0.99500  0.57000  0.63500  1.0000
  Na  Na28      1.0  0.18100  0.43100  0.67400  1.0000
  Na  Na29      1.0  0.12800  0.81900  0.72300  1.0000
  Na  Na30      1.0  0.37000  0.31300  0.74400  1.0000
  Na  Na31      1.0  0.63000  0.81300  0.75600  1.0000
  Na  Na32      1.0  0.87200  0.31900  0.77700  1.0000
  Na  Na33      1.0  0.81900  0.93100  0.82600  1.0000
  Na  Na34      1.0  0.00540  0.07020  0.86500  1.0000
  Na  Na35      1.0  0.51500  0.05910  0.87200  1.0000
  Na  Na36      1.0  0.19500  0.15500  0.90400  1.0000
  Na  Na37      1.0  0.46900  0.68200  0.90600  1.0000
  Na  Na38      1.0  0.97200  0.66200  0.91600  1.0000
  Na  Na39      1.0  0.69900  0.17600  0.94500  1.0000
  Na  Na40      1.0  0.65200  0.56500  0.98700  1.0000
  Sb  Sb1       1.0  0.88200  0.13900  0.01380  1.0000
  Sb  Sb2       1.0  0.63300  0.88700  0.03210  1.0000
  Sb  Sb3       1.0  0.21400  0.41200  0.14400  1.0000
  Sb  Sb4       1.0  0.93600  0.61000  0.16400  1.0000
  Sb  Sb5       1.0  0.45500  0.62200  0.16900  1.0000
  Sb  Sb6       1.0  0.70600  0.37000  0.18300  1.0000
  Sb  Sb7       1.0  0.29400  0.87000  0.31700  1.0000
  Sb  Sb8       1.0  0.54500  0.12200  0.33100  1.0000
  Sb  Sb9       1.0  0.06400  0.11000  0.33600  1.0000
  Sb  Sb10      1.0  0.78600  0.91200  0.35600  1.0000
  Sb  Sb11      1.0  0.36700  0.38700  0.46800  1.0000
  Sb  Sb12      1.0  0.11800  0.63900  0.48600  1.0000
  Sb  Sb13      1.0  0.88200  0.36100  0.51400  1.0000
  Sb  Sb14      1.0  0.63300  0.61300  0.53200  1.0000
  Sb  Sb15      1.0  0.21400  0.08810  0.64400  1.0000
  Sb  Sb16      1.0  0.93600  0.89000  0.66400  1.0000
  Sb  Sb17      1.0  0.45500  0.87800  0.66900  1.0000
  Sb  Sb18      1.0  0.70600  0.13000  0.68300  1.0000
  Sb  Sb19      1.0  0.29400  0.63000  0.81700  1.0000
  Sb  Sb20      1.0  0.54500  0.37800  0.83100  1.0000
  Sb  Sb21      1.0  0.06400  0.39000  0.83600  1.0000
  Sb  Sb22      1.0  0.78600  0.58800  0.85600  1.0000
  Sb  Sb23      1.0  0.36700  0.11300  0.96800  1.0000
  Sb  Sb24      1.0  0.11800  0.86100  0.98600  1.0000
  Sn  Sn1       1.0  0.82800  0.42000  0.05510  1.0000
  Sn  Sn2       1.0  0.66900  0.06620  0.22100  1.0000
  Sn  Sn3       1.0  0.33100  0.56600  0.27900  1.0000
  Sn  Sn4       1.0  0.17200  0.92000  0.44500  1.0000
  Sn  Sn5       1.0  0.82800  0.07950  0.55500  1.0000
  Sn  Sn6       1.0  0.66900  0.43400  0.72100  1.0000
  Sn  Sn7       1.0  0.33100  0.93400  0.77900  1.0000
  Sn  Sn8       1.0  0.17200  0.58000  0.94500  1.0000
