data_image0
_chemical_formula_structural       Cd32I24Sb16
_chemical_formula_sum              "Cd32 I24 Sb16"
_cell_length_a       13.6513
_cell_length_b       13.6513
_cell_length_c       13.6513
_cell_angle_alpha    90
_cell_angle_beta     90
_cell_angle_gamma    90

_space_group_name_H-M_alt    "P 1"
_space_group_IT_number       1

loop_
  _space_group_symop_operation_xyz
  'x, y, z'

loop_
  _atom_site_type_symbol
  _atom_site_label
  _atom_site_symmetry_multiplicity
  _atom_site_fract_x
  _atom_site_fract_y
  _atom_site_fract_z
  _atom_site_occupancy
  Cd  Cd1       1.0  0.25500  0.02540  0.01850  1.0000
  Cd  Cd2       1.0  0.24500  0.52500  0.01850  1.0000
  Cd  Cd3       1.0  0.01850  0.25500  0.02540  1.0000
  Cd  Cd4       1.0  0.48200  0.75500  0.02540  1.0000
  Cd  Cd5       1.0  0.78000  0.28000  0.22000  1.0000
  Cd  Cd6       1.0  0.72000  0.78000  0.22000  1.0000
  Cd  Cd7       1.0  0.52500  0.01850  0.24500  1.0000
  Cd  Cd8       1.0  0.97500  0.51800  0.24500  1.0000
  Cd  Cd9       1.0  0.02540  0.01850  0.25500  1.0000
  Cd  Cd10      1.0  0.47500  0.51800  0.25500  1.0000
  Cd  Cd11      1.0  0.28000  0.28000  0.28000  1.0000
  Cd  Cd12      1.0  0.22000  0.78000  0.28000  1.0000
  Cd  Cd13      1.0  0.51800  0.25500  0.47500  1.0000
  Cd  Cd14      1.0  0.98200  0.75500  0.47500  1.0000
  Cd  Cd15      1.0  0.75500  0.02540  0.48200  1.0000
  Cd  Cd16      1.0  0.74500  0.52500  0.48200  1.0000
  Cd  Cd17      1.0  0.25500  0.47500  0.51800  1.0000
  Cd  Cd18      1.0  0.24500  0.97500  0.51800  1.0000
  Cd  Cd19      1.0  0.01850  0.24500  0.52500  1.0000
  Cd  Cd20      1.0  0.48200  0.74500  0.52500  1.0000
  Cd  Cd21      1.0  0.78000  0.22000  0.72000  1.0000
  Cd  Cd22      1.0  0.72000  0.72000  0.72000  1.0000
  Cd  Cd23      1.0  0.52500  0.48200  0.74500  1.0000
  Cd  Cd24      1.0  0.97500  0.98200  0.74500  1.0000
  Cd  Cd25      1.0  0.02540  0.48200  0.75500  1.0000
  Cd  Cd26      1.0  0.47500  0.98200  0.75500  1.0000
  Cd  Cd27      1.0  0.28000  0.22000  0.78000  1.0000
  Cd  Cd28      1.0  0.22000  0.72000  0.78000  1.0000
  Cd  Cd29      1.0  0.51800  0.24500  0.97500  1.0000
  Cd  Cd30      1.0  0.98200  0.74500  0.97500  1.0000
  Cd  Cd31      1.0  0.75500  0.47500  0.98200  1.0000
  Cd  Cd32      1.0  0.74500  0.97500  0.98200  1.0000
  I   I1        1.0  0.24000  0.31200  0.06740  1.0000
  I   I2        1.0  0.26000  0.81200  0.06740  1.0000
  I   I3        1.0  0.56700  0.24000  0.18800  1.0000
  I   I4        1.0  0.93300  0.74000  0.18800  1.0000
  I   I5        1.0  0.31200  0.06740  0.24000  1.0000
  I   I6        1.0  0.18800  0.56700  0.24000  1.0000
  I   I7        1.0  0.81200  0.06740  0.26000  1.0000
  I   I8        1.0  0.68800  0.56700  0.26000  1.0000
  I   I9        1.0  0.06740  0.24000  0.31200  1.0000
  I   I10       1.0  0.43300  0.74000  0.31200  1.0000
  I   I11       1.0  0.74000  0.31200  0.43300  1.0000
  I   I12       1.0  0.76000  0.81200  0.43300  1.0000
  I   I13       1.0  0.24000  0.18800  0.56700  1.0000
  I   I14       1.0  0.26000  0.68800  0.56700  1.0000
  I   I15       1.0  0.56700  0.26000  0.68800  1.0000
  I   I16       1.0  0.93300  0.76000  0.68800  1.0000
  I   I17       1.0  0.31200  0.43300  0.74000  1.0000
  I   I18       1.0  0.18800  0.93300  0.74000  1.0000
  I   I19       1.0  0.81200  0.43300  0.76000  1.0000
  I   I20       1.0  0.68800  0.93300  0.76000  1.0000
  I   I21       1.0  0.06740  0.26000  0.81200  1.0000
  I   I22       1.0  0.43300  0.76000  0.81200  1.0000
  I   I23       1.0  0.74000  0.18800  0.93300  1.0000
  I   I24       1.0  0.76000  0.68800  0.93300  1.0000
  Sb  Sb1       1.0  0.05900  0.05900  0.05900  1.0000
  Sb  Sb2       1.0  0.44100  0.55900  0.05900  1.0000
  Sb  Sb3       1.0  0.89800  0.39800  0.10200  1.0000
  Sb  Sb4       1.0  0.60200  0.89800  0.10200  1.0000
  Sb  Sb5       1.0  0.39800  0.39800  0.39800  1.0000
  Sb  Sb6       1.0  0.10200  0.89800  0.39800  1.0000
  Sb  Sb7       1.0  0.55900  0.05900  0.44100  1.0000
  Sb  Sb8       1.0  0.94100  0.55900  0.44100  1.0000
  Sb  Sb9       1.0  0.05900  0.44100  0.55900  1.0000
  Sb  Sb10      1.0  0.44100  0.94100  0.55900  1.0000
  Sb  Sb11      1.0  0.89800  0.10200  0.60200  1.0000
  Sb  Sb12      1.0  0.60200  0.60200  0.60200  1.0000
  Sb  Sb13      1.0  0.39800  0.10200  0.89800  1.0000
  Sb  Sb14      1.0  0.10200  0.60200  0.89800  1.0000
  Sb  Sb15      1.0  0.55900  0.44100  0.94100  1.0000
  Sb  Sb16      1.0  0.94100  0.94100  0.94100  1.0000
