data_image0
_chemical_formula_structural       B2Cl40Cs6Zr14
_chemical_formula_sum              "B2 Cl40 Cs6 Zr14"
_cell_length_a       13.0301
_cell_length_b       13.0301
_cell_length_c       13.9709
_cell_angle_alpha    117.797
_cell_angle_beta     117.797
_cell_angle_gamma    60

_space_group_name_H-M_alt    "P 1"
_space_group_IT_number       1

loop_
  _space_group_symop_operation_xyz
  'x, y, z'

loop_
  _atom_site_type_symbol
  _atom_site_label
  _atom_site_symmetry_multiplicity
  _atom_site_fract_x
  _atom_site_fract_y
  _atom_site_fract_z
  _atom_site_occupancy
  B   B1        1.0  0.00000  0.00000  0.00000  1.0000
  B   B2        1.0  0.50000  0.50000  0.50000  1.0000
  Cl  Cl1       1.0  0.32100  0.82600  0.00122  1.0000
  Cl  Cl2       1.0  0.85400  0.32100  0.00122  1.0000
  Cl  Cl3       1.0  0.82600  0.85400  0.00122  1.0000
  Cl  Cl4       1.0  0.68000  0.68000  0.03990  1.0000
  Cl  Cl5       1.0  0.42600  0.25100  0.24900  1.0000
  Cl  Cl6       1.0  0.25100  0.57100  0.24900  1.0000
  Cl  Cl7       1.0  0.57100  0.42600  0.24900  1.0000
  Cl  Cl8       1.0  0.10700  0.39300  0.25000  1.0000
  Cl  Cl9       1.0  0.75000  0.10700  0.25000  1.0000
  Cl  Cl10      1.0  0.39300  0.75000  0.25000  1.0000
  Cl  Cl11      1.0  0.75000  0.56600  0.25000  1.0000
  Cl  Cl12      1.0  0.56600  0.93400  0.25000  1.0000
  Cl  Cl13      1.0  0.93400  0.75000  0.25000  1.0000
  Cl  Cl14      1.0  0.24900  0.07360  0.25100  1.0000
  Cl  Cl15      1.0  0.07360  0.92900  0.25100  1.0000
  Cl  Cl16      1.0  0.92900  0.24900  0.25100  1.0000
  Cl  Cl17      1.0  0.82000  0.82000  0.46000  1.0000
  Cl  Cl18      1.0  0.17900  0.64600  0.49900  1.0000
  Cl  Cl19      1.0  0.67400  0.17900  0.49900  1.0000
  Cl  Cl20      1.0  0.64600  0.67400  0.49900  1.0000
  Cl  Cl21      1.0  0.35400  0.32600  0.50100  1.0000
  Cl  Cl22      1.0  0.32600  0.82100  0.50100  1.0000
  Cl  Cl23      1.0  0.82100  0.35400  0.50100  1.0000
  Cl  Cl24      1.0  0.18000  0.18000  0.54000  1.0000
  Cl  Cl25      1.0  0.07090  0.75100  0.74900  1.0000
  Cl  Cl26      1.0  0.92600  0.07090  0.74900  1.0000
  Cl  Cl27      1.0  0.75100  0.92600  0.74900  1.0000
  Cl  Cl28      1.0  0.06640  0.25000  0.75000  1.0000
  Cl  Cl29      1.0  0.43400  0.06640  0.75000  1.0000
  Cl  Cl30      1.0  0.25000  0.43400  0.75000  1.0000
  Cl  Cl31      1.0  0.60700  0.25000  0.75000  1.0000
  Cl  Cl32      1.0  0.25000  0.89300  0.75000  1.0000
  Cl  Cl33      1.0  0.89300  0.60700  0.75000  1.0000
  Cl  Cl34      1.0  0.42900  0.57400  0.75100  1.0000
  Cl  Cl35      1.0  0.74900  0.42900  0.75100  1.0000
  Cl  Cl36      1.0  0.57400  0.74900  0.75100  1.0000
  Cl  Cl37      1.0  0.32000  0.32000  0.96000  1.0000
  Cl  Cl38      1.0  0.17400  0.14600  0.99900  1.0000
  Cl  Cl39      1.0  0.14600  0.67900  0.99900  1.0000
  Cl  Cl40      1.0  0.67900  0.17400  0.99900  1.0000
  Cs  Cs1       1.0  0.50000  0.00000  0.00000  1.0000
  Cs  Cs2       1.0  0.00000  0.50000  0.00000  1.0000
  Cs  Cs3       1.0  0.50000  0.50000  0.00000  1.0000
  Cs  Cs4       1.0  0.00000  0.00000  0.50000  1.0000
  Cs  Cs5       1.0  0.50000  0.00000  0.50000  1.0000
  Cs  Cs6       1.0  0.00000  0.50000  0.50000  1.0000
  Zr  Zr1       1.0  0.04790  0.17900  0.11500  1.0000
  Zr  Zr2       1.0  0.88800  0.04790  0.11500  1.0000
  Zr  Zr3       1.0  0.17900  0.88800  0.11500  1.0000
  Zr  Zr4       1.0  0.75000  0.75000  0.25000  1.0000
  Zr  Zr5       1.0  0.32100  0.45200  0.38500  1.0000
  Zr  Zr6       1.0  0.61200  0.32100  0.38500  1.0000
  Zr  Zr7       1.0  0.45200  0.61200  0.38500  1.0000
  Zr  Zr8       1.0  0.54800  0.38800  0.61500  1.0000
  Zr  Zr9       1.0  0.38800  0.67900  0.61500  1.0000
  Zr  Zr10      1.0  0.67900  0.54800  0.61500  1.0000
  Zr  Zr11      1.0  0.25000  0.25000  0.75000  1.0000
  Zr  Zr12      1.0  0.82100  0.11200  0.88500  1.0000
  Zr  Zr13      1.0  0.11200  0.95200  0.88500  1.0000
  Zr  Zr14      1.0  0.95200  0.82100  0.88500  1.0000
