data_image0
_chemical_formula_structural       Ba4Cr4O40Si16
_chemical_formula_sum              "Ba4 Cr4 O40 Si16"
_cell_length_a       7.56841
_cell_length_b       7.56841
_cell_length_c       15.9624
_cell_angle_alpha    90
_cell_angle_beta     90
_cell_angle_gamma    90

_space_group_name_H-M_alt    "P 1"
_space_group_IT_number       1

loop_
  _space_group_symop_operation_xyz
  'x, y, z'

loop_
  _atom_site_type_symbol
  _atom_site_label
  _atom_site_symmetry_multiplicity
  _atom_site_fract_x
  _atom_site_fract_y
  _atom_site_fract_z
  _atom_site_occupancy
  Ba  Ba1       1.0  0.75000  0.25000  0.00000  1.0000
  Ba  Ba2       1.0  0.25000  0.75000  0.00000  1.0000
  Ba  Ba3       1.0  0.75000  0.25000  0.50000  1.0000
  Ba  Ba4       1.0  0.25000  0.75000  0.50000  1.0000
  Cr  Cr1       1.0  0.25000  0.25000  0.08980  1.0000
  Cr  Cr2       1.0  0.75000  0.75000  0.41000  1.0000
  Cr  Cr3       1.0  0.25000  0.25000  0.59000  1.0000
  Cr  Cr4       1.0  0.75000  0.75000  0.91000  1.0000
  O   O1        1.0  0.38700  0.02390  0.08690  1.0000
  O   O2        1.0  0.02390  0.11300  0.08690  1.0000
  O   O3        1.0  0.47600  0.38700  0.08690  1.0000
  O   O4        1.0  0.11300  0.47600  0.08690  1.0000
  O   O5        1.0  0.77900  0.50300  0.13500  1.0000
  O   O6        1.0  0.50300  0.72100  0.13500  1.0000
  O   O7        1.0  0.99700  0.77900  0.13500  1.0000
  O   O8        1.0  0.72100  0.99700  0.13500  1.0000
  O   O9        1.0  0.97200  0.02760  0.25000  1.0000
  O   O10       1.0  0.52800  0.47200  0.25000  1.0000
  O   O11       1.0  0.02760  0.52800  0.25000  1.0000
  O   O12       1.0  0.47200  0.97200  0.25000  1.0000
  O   O13       1.0  0.22100  0.00292  0.36500  1.0000
  O   O14       1.0  0.49700  0.22100  0.36500  1.0000
  O   O15       1.0  0.00292  0.27900  0.36500  1.0000
  O   O16       1.0  0.27900  0.49700  0.36500  1.0000
  O   O17       1.0  0.61300  0.52400  0.41300  1.0000
  O   O18       1.0  0.97600  0.61300  0.41300  1.0000
  O   O19       1.0  0.52400  0.88700  0.41300  1.0000
  O   O20       1.0  0.88700  0.97600  0.41300  1.0000
  O   O21       1.0  0.11300  0.02390  0.58700  1.0000
  O   O22       1.0  0.47600  0.11300  0.58700  1.0000
  O   O23       1.0  0.02390  0.38700  0.58700  1.0000
  O   O24       1.0  0.38700  0.47600  0.58700  1.0000
  O   O25       1.0  0.72100  0.50300  0.63500  1.0000
  O   O26       1.0  0.99700  0.72100  0.63500  1.0000
  O   O27       1.0  0.50300  0.77900  0.63500  1.0000
  O   O28       1.0  0.77900  0.99700  0.63500  1.0000
  O   O29       1.0  0.52800  0.02760  0.75000  1.0000
  O   O30       1.0  0.97200  0.47200  0.75000  1.0000
  O   O31       1.0  0.47200  0.52800  0.75000  1.0000
  O   O32       1.0  0.02760  0.97200  0.75000  1.0000
  O   O33       1.0  0.27900  0.00292  0.86500  1.0000
  O   O34       1.0  0.00292  0.22100  0.86500  1.0000
  O   O35       1.0  0.49700  0.27900  0.86500  1.0000
  O   O36       1.0  0.22100  0.49700  0.86500  1.0000
  O   O37       1.0  0.88700  0.52400  0.91300  1.0000
  O   O38       1.0  0.52400  0.61300  0.91300  1.0000
  O   O39       1.0  0.97600  0.88700  0.91300  1.0000
  O   O40       1.0  0.61300  0.97600  0.91300  1.0000
  Si  Si1       1.0  0.56500  0.51800  0.15300  1.0000
  Si  Si2       1.0  0.98200  0.56500  0.15300  1.0000
  Si  Si3       1.0  0.51800  0.93500  0.15300  1.0000
  Si  Si4       1.0  0.93500  0.98200  0.15300  1.0000
  Si  Si5       1.0  0.43500  0.01800  0.34700  1.0000
  Si  Si6       1.0  0.01800  0.06540  0.34700  1.0000
  Si  Si7       1.0  0.48200  0.43500  0.34700  1.0000
  Si  Si8       1.0  0.06540  0.48200  0.34700  1.0000
  Si  Si9       1.0  0.93500  0.51800  0.65300  1.0000
  Si  Si10      1.0  0.51800  0.56500  0.65300  1.0000
  Si  Si11      1.0  0.98200  0.93500  0.65300  1.0000
  Si  Si12      1.0  0.56500  0.98200  0.65300  1.0000
  Si  Si13      1.0  0.06540  0.01800  0.84700  1.0000
  Si  Si14      1.0  0.48200  0.06540  0.84700  1.0000
  Si  Si15      1.0  0.01800  0.43500  0.84700  1.0000
  Si  Si16      1.0  0.43500  0.48200  0.84700  1.0000
