data_image0
_chemical_formula_structural       Au8F44H4Mg4
_chemical_formula_sum              "Au8 F44 H4 Mg4"
_cell_length_a       5.07109
_cell_length_b       14.7207
_cell_length_c       9.68664
_cell_angle_alpha    90
_cell_angle_beta     90.5176
_cell_angle_gamma    90

_space_group_name_H-M_alt    "P 1"
_space_group_IT_number       1

loop_
  _space_group_symop_operation_xyz
  'x, y, z'

loop_
  _atom_site_type_symbol
  _atom_site_label
  _atom_site_symmetry_multiplicity
  _atom_site_fract_x
  _atom_site_fract_y
  _atom_site_fract_z
  _atom_site_occupancy
  Au  Au1       1.0  0.46800  0.71400  0.14700  1.0000
  Au  Au2       1.0  0.70400  0.98000  0.24600  1.0000
  Au  Au3       1.0  0.29600  0.48000  0.25400  1.0000
  Au  Au4       1.0  0.53200  0.21400  0.35300  1.0000
  Au  Au5       1.0  0.46800  0.78600  0.64700  1.0000
  Au  Au6       1.0  0.70400  0.52000  0.74600  1.0000
  Au  Au7       1.0  0.29600  0.01960  0.75400  1.0000
  Au  Au8       1.0  0.53200  0.28600  0.85300  1.0000
  F   F1        1.0  0.97100  0.15000  0.01630  1.0000
  F   F2        1.0  0.69500  0.30600  0.03170  1.0000
  F   F3        1.0  0.79400  0.67600  0.06140  1.0000
  F   F4        1.0  0.55300  0.89100  0.12000  1.0000
  F   F5        1.0  0.00643  0.00728  0.12600  1.0000
  F   F6        1.0  0.14200  0.56600  0.12700  1.0000
  F   F7        1.0  0.57900  0.46000  0.12800  1.0000
  F   F8        1.0  0.49600  0.07210  0.15700  1.0000
  F   F9        1.0  0.05870  0.39200  0.16900  1.0000
  F   F10       1.0  0.36000  0.23200  0.17500  1.0000
  F   F11       1.0  0.13000  0.74800  0.22500  1.0000
  F   F12       1.0  0.87000  0.24800  0.27500  1.0000
  F   F13       1.0  0.64000  0.73200  0.32500  1.0000
  F   F14       1.0  0.94100  0.89200  0.33100  1.0000
  F   F15       1.0  0.50400  0.57200  0.34300  1.0000
  F   F16       1.0  0.42100  0.96000  0.37200  1.0000
  F   F17       1.0  0.85800  0.06650  0.37300  1.0000
  F   F18       1.0  0.99400  0.50700  0.37400  1.0000
  F   F19       1.0  0.44700  0.39100  0.38000  1.0000
  F   F20       1.0  0.20600  0.17600  0.43900  1.0000
  F   F21       1.0  0.30500  0.80600  0.46800  1.0000
  F   F22       1.0  0.02880  0.65000  0.48400  1.0000
  F   F23       1.0  0.97100  0.35000  0.51600  1.0000
  F   F24       1.0  0.69500  0.19400  0.53200  1.0000
  F   F25       1.0  0.79400  0.82400  0.56100  1.0000
  F   F26       1.0  0.55300  0.60900  0.62000  1.0000
  F   F27       1.0  0.00644  0.49300  0.62600  1.0000
  F   F28       1.0  0.14200  0.93400  0.62700  1.0000
  F   F29       1.0  0.57900  0.04000  0.62800  1.0000
  F   F30       1.0  0.49600  0.42800  0.65700  1.0000
  F   F31       1.0  0.05870  0.10800  0.66900  1.0000
  F   F32       1.0  0.36000  0.26800  0.67500  1.0000
  F   F33       1.0  0.13000  0.75200  0.72500  1.0000
  F   F34       1.0  0.87000  0.25200  0.77500  1.0000
  F   F35       1.0  0.64000  0.76800  0.82500  1.0000
  F   F36       1.0  0.94100  0.60800  0.83100  1.0000
  F   F37       1.0  0.50400  0.92800  0.84300  1.0000
  F   F38       1.0  0.42100  0.54000  0.87200  1.0000
  F   F39       1.0  0.85800  0.43400  0.87300  1.0000
  F   F40       1.0  0.99400  0.99300  0.87400  1.0000
  F   F41       1.0  0.44700  0.10900  0.88000  1.0000
  F   F42       1.0  0.20600  0.32400  0.93900  1.0000
  F   F43       1.0  0.30500  0.69400  0.96800  1.0000
  F   F44       1.0  0.02880  0.85000  0.98400  1.0000
  H   H1        1.0  0.98700  0.08820  0.06110  1.0000
  H   H2        1.0  0.01250  0.58800  0.43900  1.0000
  H   H3        1.0  0.98700  0.41200  0.56100  1.0000
  H   H4        1.0  0.01250  0.91200  0.93900  1.0000
  Mg  Mg1       1.0  0.03250  0.26900  0.09690  1.0000
  Mg  Mg2       1.0  0.96800  0.76900  0.40300  1.0000
  Mg  Mg3       1.0  0.03250  0.23100  0.59700  1.0000
  Mg  Mg4       1.0  0.96800  0.73100  0.90300  1.0000
