data_image0
_chemical_formula_structural       In4O44P12Pb8
_chemical_formula_sum              "In4 O44 P12 Pb8"
_cell_length_a       6.61079
_cell_length_b       6.97198
_cell_length_c       19.9113
_cell_angle_alpha    90
_cell_angle_beta     99.4491
_cell_angle_gamma    90

_space_group_name_H-M_alt    "P 1"
_space_group_IT_number       1

loop_
  _space_group_symop_operation_xyz
  'x, y, z'

loop_
  _atom_site_type_symbol
  _atom_site_label
  _atom_site_symmetry_multiplicity
  _atom_site_fract_x
  _atom_site_fract_y
  _atom_site_fract_z
  _atom_site_occupancy
  In  In1       1.0  0.94300  0.86600  0.12000  1.0000
  In  In2       1.0  0.05690  0.36600  0.38000  1.0000
  In  In3       1.0  0.94300  0.63400  0.62000  1.0000
  In  In4       1.0  0.05690  0.13400  0.88000  1.0000
  O   O1        1.0  0.89700  0.71300  0.02480  1.0000
  O   O2        1.0  0.31100  0.01720  0.03390  1.0000
  O   O3        1.0  0.47800  0.69300  0.04800  1.0000
  O   O4        1.0  0.99600  0.14100  0.07960  1.0000
  O   O5        1.0  0.31800  0.34300  0.09290  1.0000
  O   O6        1.0  0.62700  0.96600  0.12500  1.0000
  O   O7        1.0  0.28100  0.82400  0.13900  1.0000
  O   O8        1.0  0.91200  0.58800  0.16200  1.0000
  O   O9        1.0  0.69100  0.34300  0.20400  1.0000
  O   O10       1.0  0.98800  0.98000  0.22000  1.0000
  O   O11       1.0  0.31800  0.17500  0.25000  1.0000
  O   O12       1.0  0.68200  0.67500  0.25000  1.0000
  O   O13       1.0  0.01230  0.48000  0.28000  1.0000
  O   O14       1.0  0.30900  0.84300  0.29600  1.0000
  O   O15       1.0  0.08770  0.08810  0.33800  1.0000
  O   O16       1.0  0.71900  0.32400  0.36100  1.0000
  O   O17       1.0  0.37300  0.46600  0.37500  1.0000
  O   O18       1.0  0.68200  0.84300  0.40700  1.0000
  O   O19       1.0  0.00392  0.64100  0.42000  1.0000
  O   O20       1.0  0.52200  0.19300  0.45200  1.0000
  O   O21       1.0  0.68900  0.51700  0.46600  1.0000
  O   O22       1.0  0.10300  0.21300  0.47500  1.0000
  O   O23       1.0  0.89700  0.78700  0.52500  1.0000
  O   O24       1.0  0.31100  0.48300  0.53400  1.0000
  O   O25       1.0  0.47800  0.80700  0.54800  1.0000
  O   O26       1.0  0.99600  0.35900  0.58000  1.0000
  O   O27       1.0  0.31800  0.15700  0.59300  1.0000
  O   O28       1.0  0.62700  0.53400  0.62500  1.0000
  O   O29       1.0  0.28100  0.67600  0.63900  1.0000
  O   O30       1.0  0.91200  0.91200  0.66200  1.0000
  O   O31       1.0  0.69100  0.15700  0.70400  1.0000
  O   O32       1.0  0.98800  0.52000  0.72000  1.0000
  O   O33       1.0  0.31800  0.32500  0.75000  1.0000
  O   O34       1.0  0.68200  0.82500  0.75000  1.0000
  O   O35       1.0  0.01230  0.01990  0.78000  1.0000
  O   O36       1.0  0.30900  0.65700  0.79600  1.0000
  O   O37       1.0  0.08770  0.41200  0.83800  1.0000
  O   O38       1.0  0.71900  0.17600  0.86100  1.0000
  O   O39       1.0  0.37300  0.03400  0.87500  1.0000
  O   O40       1.0  0.68200  0.65700  0.90700  1.0000
  O   O41       1.0  0.00391  0.85900  0.92000  1.0000
  O   O42       1.0  0.52200  0.30700  0.95200  1.0000
  O   O43       1.0  0.68900  0.98300  0.96600  1.0000
  O   O44       1.0  0.10300  0.28700  0.97500  1.0000
  P   P1        1.0  0.18000  0.20900  0.04700  1.0000
  P   P2        1.0  0.43000  0.86600  0.08900  1.0000
  P   P3        1.0  0.82100  0.52300  0.22700  1.0000
  P   P4        1.0  0.17900  0.02320  0.27300  1.0000
  P   P5        1.0  0.57000  0.36600  0.41100  1.0000
  P   P6        1.0  0.82000  0.70900  0.45300  1.0000
  P   P7        1.0  0.18000  0.29100  0.54700  1.0000
  P   P8        1.0  0.43000  0.63400  0.58900  1.0000
  P   P9        1.0  0.82100  0.97700  0.72700  1.0000
  P   P10       1.0  0.17900  0.47700  0.77300  1.0000
  P   P11       1.0  0.57000  0.13400  0.91100  1.0000
  P   P12       1.0  0.82000  0.79100  0.95300  1.0000
  Pb  Pb1       1.0  0.67700  0.37100  0.07570  1.0000
  Pb  Pb2       1.0  0.33000  0.52000  0.22500  1.0000
  Pb  Pb3       1.0  0.67000  0.01960  0.27500  1.0000
  Pb  Pb4       1.0  0.32300  0.87100  0.42400  1.0000
  Pb  Pb5       1.0  0.67700  0.12900  0.57600  1.0000
  Pb  Pb6       1.0  0.33000  0.98000  0.72500  1.0000
  Pb  Pb7       1.0  0.67000  0.48000  0.77500  1.0000
  Pb  Pb8       1.0  0.32300  0.62900  0.92400  1.0000
