data_image0
_chemical_formula_structural       Ag4Ba2
_chemical_formula_sum              "Ag4 Ba2"
_cell_length_a       4.98593
_cell_length_b       6.34894
_cell_length_c       6.34894
_cell_angle_alpha    96.4282
_cell_angle_beta     113.12
_cell_angle_gamma    66.88

_space_group_name_H-M_alt    "P 1"
_space_group_IT_number       1

loop_
  _space_group_symop_operation_xyz
  'x, y, z'

loop_
  _atom_site_type_symbol
  _atom_site_label
  _atom_site_symmetry_multiplicity
  _atom_site_fract_x
  _atom_site_fract_y
  _atom_site_fract_z
  _atom_site_occupancy
  Ag  Ag1       1.0  0.55600  0.10800  0.21900  1.0000
  Ag  Ag2       1.0  0.05600  0.28100  0.39200  1.0000
  Ag  Ag3       1.0  0.94400  0.71900  0.60800  1.0000
  Ag  Ag4       1.0  0.44400  0.89200  0.78100  1.0000
  Ba  Ba1       1.0  0.25000  0.70800  0.20800  1.0000
  Ba  Ba2       1.0  0.75000  0.29200  0.79200  1.0000
