data_image0
_chemical_formula_structural       B20Co4O40Y4
_chemical_formula_sum              "B20 Co4 O40 Y4"
_cell_length_a       8.47789
_cell_length_b       7.57416
_cell_length_c       9.38703
_cell_angle_alpha    90
_cell_angle_beta     94.0938
_cell_angle_gamma    90

_space_group_name_H-M_alt    "P 1"
_space_group_IT_number       1

loop_
  _space_group_symop_operation_xyz
  'x, y, z'

loop_
  _atom_site_type_symbol
  _atom_site_label
  _atom_site_symmetry_multiplicity
  _atom_site_fract_x
  _atom_site_fract_y
  _atom_site_fract_z
  _atom_site_occupancy
  B   B1        1.0  0.16100  0.39900  0.00935  1.0000
  B   B2        1.0  0.77700  0.03320  0.05610  1.0000
  B   B3        1.0  0.56600  0.81100  0.08920  1.0000
  B   B4        1.0  0.02070  0.82400  0.10400  1.0000
  B   B5        1.0  0.58400  0.07300  0.24700  1.0000
  B   B6        1.0  0.91600  0.57300  0.25300  1.0000
  B   B7        1.0  0.47900  0.32400  0.39600  1.0000
  B   B8        1.0  0.93400  0.31100  0.41100  1.0000
  B   B9        1.0  0.72300  0.53300  0.44400  1.0000
  B   B10       1.0  0.33900  0.89900  0.49100  1.0000
  B   B11       1.0  0.66100  0.10100  0.50900  1.0000
  B   B12       1.0  0.27700  0.46700  0.55600  1.0000
  B   B13       1.0  0.06580  0.68900  0.58900  1.0000
  B   B14       1.0  0.52100  0.67600  0.60400  1.0000
  B   B15       1.0  0.08430  0.42700  0.74700  1.0000
  B   B16       1.0  0.41600  0.92700  0.75300  1.0000
  B   B17       1.0  0.97900  0.17600  0.89600  1.0000
  B   B18       1.0  0.43400  0.18900  0.91100  1.0000
  B   B19       1.0  0.22300  0.96700  0.94400  1.0000
  B   B20       1.0  0.83900  0.60100  0.99100  1.0000
  Co  Co1       1.0  0.59900  0.40300  0.13100  1.0000
  Co  Co2       1.0  0.90100  0.90300  0.36900  1.0000
  Co  Co3       1.0  0.09880  0.09670  0.63100  1.0000
  Co  Co4       1.0  0.40100  0.59700  0.86900  1.0000
  O   O1        1.0  0.68100  0.87500  0.00917  1.0000
  O   O2        1.0  0.04470  0.27100  0.02200  1.0000
  O   O3        1.0  0.49300  0.65000  0.07170  1.0000
  O   O4        1.0  0.18000  0.88900  0.08050  1.0000
  O   O5        1.0  0.81400  0.53200  0.12200  1.0000
  O   O6        1.0  0.24500  0.44400  0.13100  1.0000
  O   O7        1.0  0.68300  0.14900  0.14100  1.0000
  O   O8        1.0  0.91900  0.97300  0.14800  1.0000
  O   O9        1.0  0.51200  0.90600  0.20000  1.0000
  O   O10       1.0  0.03850  0.70500  0.22800  1.0000
  O   O11       1.0  0.46200  0.20500  0.27200  1.0000
  O   O12       1.0  0.98800  0.40600  0.30000  1.0000
  O   O13       1.0  0.58100  0.47300  0.35200  1.0000
  O   O14       1.0  0.81700  0.64900  0.35900  1.0000
  O   O15       1.0  0.25500  0.94400  0.36900  1.0000
  O   O16       1.0  0.68600  0.03210  0.37800  1.0000
  O   O17       1.0  0.32000  0.38900  0.42000  1.0000
  O   O18       1.0  0.00746  0.15000  0.42800  1.0000
  O   O19       1.0  0.45500  0.77100  0.47800  1.0000
  O   O20       1.0  0.81900  0.37500  0.49100  1.0000
  O   O21       1.0  0.18100  0.62500  0.50900  1.0000
  O   O22       1.0  0.54500  0.22900  0.52200  1.0000
  O   O23       1.0  0.99300  0.85000  0.57200  1.0000
  O   O24       1.0  0.68000  0.61100  0.58000  1.0000
  O   O25       1.0  0.31400  0.96800  0.62200  1.0000
  O   O26       1.0  0.74500  0.05620  0.63100  1.0000
  O   O27       1.0  0.18300  0.35100  0.64100  1.0000
  O   O28       1.0  0.41900  0.52700  0.64800  1.0000
  O   O29       1.0  0.01190  0.59400  0.70000  1.0000
  O   O30       1.0  0.53800  0.79500  0.72800  1.0000
  O   O31       1.0  0.96200  0.29500  0.77200  1.0000
  O   O32       1.0  0.48800  0.09380  0.80000  1.0000
  O   O33       1.0  0.08090  0.02700  0.85200  1.0000
  O   O34       1.0  0.31700  0.85100  0.85900  1.0000
  O   O35       1.0  0.75500  0.55600  0.86900  1.0000
  O   O36       1.0  0.18600  0.46800  0.87800  1.0000
  O   O37       1.0  0.82000  0.11100  0.92000  1.0000
  O   O38       1.0  0.50700  0.35000  0.92800  1.0000
  O   O39       1.0  0.95500  0.72900  0.97800  1.0000
  O   O40       1.0  0.31900  0.12500  0.99100  1.0000
  Y   Y1        1.0  0.18000  0.18100  0.23900  1.0000
  Y   Y2        1.0  0.32000  0.68100  0.26100  1.0000
  Y   Y3        1.0  0.68000  0.31900  0.73900  1.0000
  Y   Y4        1.0  0.82000  0.81900  0.76100  1.0000
