data_image0
_chemical_formula_structural       H16N8O24Rb8S8
_chemical_formula_sum              "H16 N8 O24 Rb8 S8"
_cell_length_a       7.31423
_cell_length_b       7.66211
_cell_length_c       14.3077
_cell_angle_alpha    90
_cell_angle_beta     90
_cell_angle_gamma    90

_space_group_name_H-M_alt    "P 1"
_space_group_IT_number       1

loop_
  _space_group_symop_operation_xyz
  'x, y, z'

loop_
  _atom_site_type_symbol
  _atom_site_label
  _atom_site_symmetry_multiplicity
  _atom_site_fract_x
  _atom_site_fract_y
  _atom_site_fract_z
  _atom_site_occupancy
  H   H1        1.0  0.58800  0.11100  0.19700  1.0000
  H   H2        1.0  0.91200  0.61100  0.19700  1.0000
  H   H3        1.0  0.08270  0.47100  0.22800  1.0000
  H   H4        1.0  0.41700  0.97100  0.22800  1.0000
  H   H5        1.0  0.58300  0.47100  0.27200  1.0000
  H   H6        1.0  0.91700  0.97100  0.27200  1.0000
  H   H7        1.0  0.08780  0.11100  0.30300  1.0000
  H   H8        1.0  0.41200  0.61100  0.30300  1.0000
  H   H9        1.0  0.58800  0.38900  0.69700  1.0000
  H   H10       1.0  0.91200  0.88900  0.69700  1.0000
  H   H11       1.0  0.08270  0.02910  0.72800  1.0000
  H   H12       1.0  0.41700  0.52900  0.72800  1.0000
  H   H13       1.0  0.58300  0.02910  0.77200  1.0000
  H   H14       1.0  0.91700  0.52900  0.77200  1.0000
  H   H15       1.0  0.08780  0.38900  0.80300  1.0000
  H   H16       1.0  0.41200  0.88900  0.80300  1.0000
  N   N1        1.0  0.50100  0.01260  0.17400  1.0000
  N   N2        1.0  0.99900  0.51300  0.17400  1.0000
  N   N3        1.0  0.00079  0.01260  0.32600  1.0000
  N   N4        1.0  0.49900  0.51300  0.32600  1.0000
  N   N5        1.0  0.50100  0.48700  0.67400  1.0000
  N   N6        1.0  0.99900  0.98700  0.67400  1.0000
  N   N7        1.0  0.00079  0.48700  0.82600  1.0000
  N   N8        1.0  0.49900  0.98700  0.82600  1.0000
  O   O1        1.0  0.77200  0.40800  0.05620  1.0000
  O   O2        1.0  0.72800  0.90800  0.05620  1.0000
  O   O3        1.0  0.00755  0.20800  0.11500  1.0000
  O   O4        1.0  0.49200  0.70800  0.11500  1.0000
  O   O5        1.0  0.75000  0.29400  0.21500  1.0000
  O   O6        1.0  0.75000  0.79400  0.21500  1.0000
  O   O7        1.0  0.25000  0.29400  0.28500  1.0000
  O   O8        1.0  0.25000  0.79400  0.28500  1.0000
  O   O9        1.0  0.50800  0.20800  0.38500  1.0000
  O   O10       1.0  0.99200  0.70800  0.38500  1.0000
  O   O11       1.0  0.27200  0.40800  0.44400  1.0000
  O   O12       1.0  0.22800  0.90800  0.44400  1.0000
  O   O13       1.0  0.77200  0.09200  0.55600  1.0000
  O   O14       1.0  0.72800  0.59200  0.55600  1.0000
  O   O15       1.0  0.00755  0.29200  0.61500  1.0000
  O   O16       1.0  0.49200  0.79200  0.61500  1.0000
  O   O17       1.0  0.75000  0.20600  0.71500  1.0000
  O   O18       1.0  0.75000  0.70600  0.71500  1.0000
  O   O19       1.0  0.25000  0.20600  0.78500  1.0000
  O   O20       1.0  0.25000  0.70600  0.78500  1.0000
  O   O21       1.0  0.50800  0.29200  0.88500  1.0000
  O   O22       1.0  0.99200  0.79200  0.88500  1.0000
  O   O23       1.0  0.27200  0.09200  0.94400  1.0000
  O   O24       1.0  0.22800  0.59200  0.94400  1.0000
  Rb  Rb1       1.0  0.36900  0.35700  0.08370  1.0000
  Rb  Rb2       1.0  0.13100  0.85700  0.08370  1.0000
  Rb  Rb3       1.0  0.86900  0.35700  0.41600  1.0000
  Rb  Rb4       1.0  0.63100  0.85700  0.41600  1.0000
  Rb  Rb5       1.0  0.36900  0.14300  0.58400  1.0000
  Rb  Rb6       1.0  0.13100  0.64300  0.58400  1.0000
  Rb  Rb7       1.0  0.86900  0.14300  0.91600  1.0000
  Rb  Rb8       1.0  0.63100  0.64300  0.91600  1.0000
  S   S1        1.0  0.87500  0.34500  0.13700  1.0000
  S   S2        1.0  0.62500  0.84500  0.13700  1.0000
  S   S3        1.0  0.37500  0.34500  0.36300  1.0000
  S   S4        1.0  0.12500  0.84500  0.36300  1.0000
  S   S5        1.0  0.87500  0.15500  0.63700  1.0000
  S   S6        1.0  0.62500  0.65500  0.63700  1.0000
  S   S7        1.0  0.37500  0.15500  0.86300  1.0000
  S   S8        1.0  0.12500  0.65500  0.86300  1.0000
