data_image0
_chemical_formula_structural       O28S12Si8Yb16
_chemical_formula_sum              "O28 S12 Si8 Yb16"
_cell_length_a       10.8731
_cell_length_b       10.8731
_cell_length_c       10.8731
_cell_angle_alpha    96.1194
_cell_angle_beta     116.532
_cell_angle_gamma    116.532

_space_group_name_H-M_alt    "P 1"
_space_group_IT_number       1

loop_
  _space_group_symop_operation_xyz
  'x, y, z'

loop_
  _atom_site_type_symbol
  _atom_site_label
  _atom_site_symmetry_multiplicity
  _atom_site_fract_x
  _atom_site_fract_y
  _atom_site_fract_z
  _atom_site_occupancy
  O   O1        1.0  0.23400  0.57500  0.09190  1.0000
  O   O2        1.0  0.51600  0.85800  0.09190  1.0000
  O   O3        1.0  0.75000  0.38900  0.13900  1.0000
  O   O4        1.0  0.23400  0.15900  0.14200  1.0000
  O   O5        1.0  0.98400  0.90800  0.14200  1.0000
  O   O6        1.0  0.01650  0.42500  0.15900  1.0000
  O   O7        1.0  0.73400  0.14200  0.15900  1.0000
  O   O8        1.0  0.52000  0.18500  0.16600  1.0000
  O   O9        1.0  0.98000  0.64600  0.16600  1.0000
  O   O10       1.0  0.01960  0.16600  0.18500  1.0000
  O   O11       1.0  0.52000  0.83400  0.35400  1.0000
  O   O12       1.0  0.25000  0.13900  0.38900  1.0000
  O   O13       1.0  0.51600  0.15900  0.42500  1.0000
  O   O14       1.0  0.26600  0.90800  0.42500  1.0000
  O   O15       1.0  0.48400  0.84100  0.57500  1.0000
  O   O16       1.0  0.73400  0.09190  0.57500  1.0000
  O   O17       1.0  0.75000  0.86100  0.61100  1.0000
  O   O18       1.0  0.48000  0.16600  0.64600  1.0000
  O   O19       1.0  0.98000  0.83400  0.81500  1.0000
  O   O20       1.0  0.01960  0.35400  0.83400  1.0000
  O   O21       1.0  0.48000  0.81500  0.83400  1.0000
  O   O22       1.0  0.26600  0.85800  0.84100  1.0000
  O   O23       1.0  0.98400  0.57500  0.84100  1.0000
  O   O24       1.0  0.01650  0.09190  0.85800  1.0000
  O   O25       1.0  0.76600  0.84100  0.85800  1.0000
  O   O26       1.0  0.25000  0.61100  0.86100  1.0000
  O   O27       1.0  0.48400  0.14200  0.90800  1.0000
  O   O28       1.0  0.76600  0.42500  0.90800  1.0000
  S   S1        1.0  0.41200  0.41200  0.00000  1.0000
  S   S2        1.0  0.58800  0.58800  0.00000  1.0000
  S   S3        1.0  0.25000  0.87500  0.12500  1.0000
  S   S4        1.0  0.75000  0.62500  0.37500  1.0000
  S   S5        1.0  0.41200  0.50000  0.41200  1.0000
  S   S6        1.0  0.91200  1.00000  0.41200  1.0000
  S   S7        1.0  0.08830  0.58800  0.50000  1.0000
  S   S8        1.0  0.91200  0.41200  0.50000  1.0000
  S   S9        1.0  0.08830  0.00000  0.58800  1.0000
  S   S10       1.0  0.58800  0.50000  0.58800  1.0000
  S   S11       1.0  0.25000  0.37500  0.62500  1.0000
  S   S12       1.0  0.75000  0.12500  0.87500  1.0000
  Si  Si1       1.0  0.62200  0.20900  0.08740  1.0000
  Si  Si2       1.0  0.87800  0.46600  0.08740  1.0000
  Si  Si3       1.0  0.12200  0.08740  0.20900  1.0000
  Si  Si4       1.0  0.37800  0.08740  0.46600  1.0000
  Si  Si5       1.0  0.62200  0.91300  0.53400  1.0000
  Si  Si6       1.0  0.87800  0.91300  0.79100  1.0000
  Si  Si7       1.0  0.12200  0.53400  0.91300  1.0000
  Si  Si8       1.0  0.37800  0.79100  0.91300  1.0000
  Yb  Yb1       1.0  0.08990  0.29500  0.04500  1.0000
  Yb  Yb2       1.0  0.75000  0.95500  0.04500  1.0000
  Yb  Yb3       1.0  0.50400  0.68600  0.18900  1.0000
  Yb  Yb4       1.0  0.25000  0.70500  0.29500  1.0000
  Yb  Yb5       1.0  0.59000  0.04500  0.29500  1.0000
  Yb  Yb6       1.0  0.99600  0.81100  0.31400  1.0000
  Yb  Yb7       1.0  0.50400  0.31800  0.31400  1.0000
  Yb  Yb8       1.0  0.00385  0.31400  0.31800  1.0000
  Yb  Yb9       1.0  0.99600  0.68600  0.68200  1.0000
  Yb  Yb10      1.0  0.00385  0.18900  0.68600  1.0000
  Yb  Yb11      1.0  0.49600  0.68200  0.68600  1.0000
  Yb  Yb12      1.0  0.75000  0.29500  0.70500  1.0000
  Yb  Yb13      1.0  0.41000  0.95500  0.70500  1.0000
  Yb  Yb14      1.0  0.49600  0.31400  0.81100  1.0000
  Yb  Yb15      1.0  0.25000  0.04500  0.95500  1.0000
  Yb  Yb16      1.0  0.91000  0.70500  0.95500  1.0000
