data_image0
_chemical_formula_structural       Mn22O42Ta8
_chemical_formula_sum              "Mn22 O42 Ta8"
_cell_length_a       5.38959
_cell_length_b       5.38959
_cell_length_c       33.8921
_cell_angle_alpha    90
_cell_angle_beta     90
_cell_angle_gamma    120

_space_group_name_H-M_alt    "P 1"
_space_group_IT_number       1

loop_
  _space_group_symop_operation_xyz
  'x, y, z'

loop_
  _atom_site_type_symbol
  _atom_site_label
  _atom_site_symmetry_multiplicity
  _atom_site_fract_x
  _atom_site_fract_y
  _atom_site_fract_z
  _atom_site_occupancy
  Mn  Mn1       1.0  0.00000  0.00000  0.00000  1.0000
  Mn  Mn2       1.0  0.66700  0.33300  0.02000  1.0000
  Mn  Mn3       1.0  0.00000  0.00000  0.08750  1.0000
  Mn  Mn4       1.0  0.66700  0.33300  0.13500  1.0000
  Mn  Mn5       1.0  0.33300  0.66700  0.15700  1.0000
  Mn  Mn6       1.0  0.66700  0.33300  0.22600  1.0000
  Mn  Mn7       1.0  0.33300  0.66700  0.27400  1.0000
  Mn  Mn8       1.0  0.66700  0.33300  0.34300  1.0000
  Mn  Mn9       1.0  0.33300  0.66700  0.36500  1.0000
  Mn  Mn10      1.0  0.00000  0.00000  0.41200  1.0000
  Mn  Mn11      1.0  0.33300  0.66700  0.48000  1.0000
  Mn  Mn12      1.0  0.00000  0.00000  0.50000  1.0000
  Mn  Mn13      1.0  0.66700  0.33300  0.52000  1.0000
  Mn  Mn14      1.0  0.00000  0.00000  0.58800  1.0000
  Mn  Mn15      1.0  0.66700  0.33300  0.63500  1.0000
  Mn  Mn16      1.0  0.33300  0.66700  0.65700  1.0000
  Mn  Mn17      1.0  0.66700  0.33300  0.72600  1.0000
  Mn  Mn18      1.0  0.33300  0.66700  0.77400  1.0000
  Mn  Mn19      1.0  0.66700  0.33300  0.84300  1.0000
  Mn  Mn20      1.0  0.33300  0.66700  0.86500  1.0000
  Mn  Mn21      1.0  0.00000  0.00000  0.91200  1.0000
  Mn  Mn22      1.0  0.33300  0.66700  0.98000  1.0000
  O   O1        1.0  0.65000  0.69700  0.03640  1.0000
  O   O2        1.0  0.04680  0.35000  0.03640  1.0000
  O   O3        1.0  0.30300  0.95300  0.03640  1.0000
  O   O4        1.0  0.62000  0.96600  0.10700  1.0000
  O   O5        1.0  0.34600  0.38000  0.10700  1.0000
  O   O6        1.0  0.03400  0.65400  0.10700  1.0000
  O   O7        1.0  0.96700  0.30300  0.18100  1.0000
  O   O8        1.0  0.69700  0.66400  0.18100  1.0000
  O   O9        1.0  0.33600  0.03270  0.18100  1.0000
  O   O10       1.0  0.72300  0.00000  0.25000  1.0000
  O   O11       1.0  0.00000  0.72300  0.25000  1.0000
  O   O12       1.0  0.27700  0.27700  0.25000  1.0000
  O   O13       1.0  0.66400  0.69700  0.31900  1.0000
  O   O14       1.0  0.30300  0.96700  0.31900  1.0000
  O   O15       1.0  0.03270  0.33600  0.31900  1.0000
  O   O16       1.0  0.96600  0.62000  0.39300  1.0000
  O   O17       1.0  0.65400  0.03400  0.39300  1.0000
  O   O18       1.0  0.38000  0.34600  0.39300  1.0000
  O   O19       1.0  0.69700  0.65000  0.46400  1.0000
  O   O20       1.0  0.95300  0.30300  0.46400  1.0000
  O   O21       1.0  0.35000  0.04680  0.46400  1.0000
  O   O22       1.0  0.65000  0.95300  0.53600  1.0000
  O   O23       1.0  0.04680  0.69700  0.53600  1.0000
  O   O24       1.0  0.30300  0.35000  0.53600  1.0000
  O   O25       1.0  0.34600  0.96600  0.60700  1.0000
  O   O26       1.0  0.62000  0.65400  0.60700  1.0000
  O   O27       1.0  0.03400  0.38000  0.60700  1.0000
  O   O28       1.0  0.96700  0.66400  0.68100  1.0000
  O   O29       1.0  0.33600  0.30300  0.68100  1.0000
  O   O30       1.0  0.69700  0.03270  0.68100  1.0000
  O   O31       1.0  0.72300  0.72300  0.75000  1.0000
  O   O32       1.0  0.27700  0.00000  0.75000  1.0000
  O   O33       1.0  0.00000  0.27700  0.75000  1.0000
  O   O34       1.0  0.66400  0.96700  0.81900  1.0000
  O   O35       1.0  0.30300  0.33600  0.81900  1.0000
  O   O36       1.0  0.03270  0.69700  0.81900  1.0000
  O   O37       1.0  0.96600  0.34600  0.89300  1.0000
  O   O38       1.0  0.38000  0.03400  0.89300  1.0000
  O   O39       1.0  0.65400  0.62000  0.89300  1.0000
  O   O40       1.0  0.69700  0.04680  0.96400  1.0000
  O   O41       1.0  0.95300  0.65000  0.96400  1.0000
  O   O42       1.0  0.35000  0.30300  0.96400  1.0000
  Ta  Ta1       1.0  0.33300  0.66700  0.07100  1.0000
  Ta  Ta2       1.0  0.00000  0.00000  0.20500  1.0000
  Ta  Ta3       1.0  0.00000  0.00000  0.29500  1.0000
  Ta  Ta4       1.0  0.66700  0.33300  0.42900  1.0000
  Ta  Ta5       1.0  0.33300  0.66700  0.57100  1.0000
  Ta  Ta6       1.0  0.00000  0.00000  0.70500  1.0000
  Ta  Ta7       1.0  0.00000  0.00000  0.79500  1.0000
  Ta  Ta8       1.0  0.66700  0.33300  0.92900  1.0000
