data_image0
_chemical_formula_structural       Bi4Na4O48P16
_chemical_formula_sum              "Bi4 Na4 O48 P16"
_cell_length_a       7.14753
_cell_length_b       12.9817
_cell_length_c       9.76312
_cell_angle_alpha    90
_cell_angle_beta     90.6494
_cell_angle_gamma    90

_space_group_name_H-M_alt    "P 1"
_space_group_IT_number       1

loop_
  _space_group_symop_operation_xyz
  'x, y, z'

loop_
  _atom_site_type_symbol
  _atom_site_label
  _atom_site_symmetry_multiplicity
  _atom_site_fract_x
  _atom_site_fract_y
  _atom_site_fract_z
  _atom_site_occupancy
  Bi  Bi1       1.0  0.98500  0.78800  0.02460  1.0000
  Bi  Bi2       1.0  0.51500  0.28800  0.47500  1.0000
  Bi  Bi3       1.0  0.48500  0.71200  0.52500  1.0000
  Bi  Bi4       1.0  0.01500  0.21200  0.97500  1.0000
  Na  Na1       1.0  0.50100  0.22000  0.06460  1.0000
  Na  Na2       1.0  0.99900  0.72000  0.43500  1.0000
  Na  Na3       1.0  0.00121  0.28000  0.56500  1.0000
  Na  Na4       1.0  0.49900  0.78000  0.93500  1.0000
  O   O1        1.0  0.24600  0.33700  0.07780  1.0000
  O   O2        1.0  0.78200  0.10000  0.09200  1.0000
  O   O3        1.0  0.68900  0.85900  0.09760  1.0000
  O   O4        1.0  0.28700  0.71800  0.10400  1.0000
  O   O5        1.0  0.28100  0.52500  0.12200  1.0000
  O   O6        1.0  0.86400  0.30600  0.15300  1.0000
  O   O7        1.0  0.18900  0.12900  0.15800  1.0000
  O   O8        1.0  0.57300  0.62700  0.16600  1.0000
  O   O9        1.0  0.78800  0.48600  0.20000  1.0000
  O   O10       1.0  0.91300  0.66700  0.20900  1.0000
  O   O11       1.0  0.40600  0.92100  0.21200  1.0000
  O   O12       1.0  0.05790  0.89800  0.21600  1.0000
  O   O13       1.0  0.44200  0.39800  0.28400  1.0000
  O   O14       1.0  0.09440  0.42100  0.28800  1.0000
  O   O15       1.0  0.58700  0.16700  0.29100  1.0000
  O   O16       1.0  0.71200  0.98600  0.30000  1.0000
  O   O17       1.0  0.92700  0.12700  0.33400  1.0000
  O   O18       1.0  0.31100  0.62900  0.34200  1.0000
  O   O19       1.0  0.63600  0.80600  0.34700  1.0000
  O   O20       1.0  0.21900  0.02500  0.37800  1.0000
  O   O21       1.0  0.21300  0.21800  0.39600  1.0000
  O   O22       1.0  0.81100  0.35900  0.40200  1.0000
  O   O23       1.0  0.71800  0.60000  0.40800  1.0000
  O   O24       1.0  0.25400  0.83700  0.42200  1.0000
  O   O25       1.0  0.74600  0.16300  0.57800  1.0000
  O   O26       1.0  0.28200  0.40000  0.59200  1.0000
  O   O27       1.0  0.18900  0.64100  0.59800  1.0000
  O   O28       1.0  0.78700  0.78200  0.60400  1.0000
  O   O29       1.0  0.78100  0.97500  0.62200  1.0000
  O   O30       1.0  0.36400  0.19400  0.65300  1.0000
  O   O31       1.0  0.68900  0.37100  0.65800  1.0000
  O   O32       1.0  0.07290  0.87300  0.66600  1.0000
  O   O33       1.0  0.28800  0.01380  0.70000  1.0000
  O   O34       1.0  0.41300  0.83300  0.70900  1.0000
  O   O35       1.0  0.90600  0.57900  0.71200  1.0000
  O   O36       1.0  0.55800  0.60200  0.71600  1.0000
  O   O37       1.0  0.94200  0.10200  0.78400  1.0000
  O   O38       1.0  0.59400  0.07880  0.78800  1.0000
  O   O39       1.0  0.08650  0.33300  0.79100  1.0000
  O   O40       1.0  0.21200  0.51400  0.80000  1.0000
  O   O41       1.0  0.42700  0.37300  0.83400  1.0000
  O   O42       1.0  0.81100  0.87100  0.84200  1.0000
  O   O43       1.0  0.13600  0.69400  0.84700  1.0000
  O   O44       1.0  0.71900  0.47500  0.87800  1.0000
  O   O45       1.0  0.71300  0.28200  0.89600  1.0000
  O   O46       1.0  0.31100  0.14100  0.90200  1.0000
  O   O47       1.0  0.21800  0.90000  0.90800  1.0000
  O   O48       1.0  0.75400  0.66300  0.92200  1.0000
  P   P1        1.0  0.35200  0.63000  0.19200  1.0000
  P   P2        1.0  0.27400  0.41200  0.19200  1.0000
  P   P3        1.0  0.61800  0.88500  0.23700  1.0000
  P   P4        1.0  0.74600  0.10000  0.24400  1.0000
  P   P5        1.0  0.75400  0.60000  0.25600  1.0000
  P   P6        1.0  0.88200  0.38500  0.26300  1.0000
  P   P7        1.0  0.22600  0.91200  0.30800  1.0000
  P   P8        1.0  0.14800  0.13000  0.30800  1.0000
  P   P9        1.0  0.85200  0.87000  0.69200  1.0000
  P   P10       1.0  0.77400  0.08780  0.69200  1.0000
  P   P11       1.0  0.11800  0.61500  0.73700  1.0000
  P   P12       1.0  0.24600  0.40000  0.74400  1.0000
  P   P13       1.0  0.25400  0.90000  0.75600  1.0000
  P   P14       1.0  0.38200  0.11500  0.76300  1.0000
  P   P15       1.0  0.72600  0.58800  0.80800  1.0000
  P   P16       1.0  0.64800  0.37000  0.80800  1.0000
