data_image0
_chemical_formula_structural       B4Co32Dy8Fe24
_chemical_formula_sum              "B4 Co32 Dy8 Fe24"
_cell_length_a       8.66049
_cell_length_b       8.66049
_cell_length_c       11.6076
_cell_angle_alpha    90
_cell_angle_beta     90
_cell_angle_gamma    90

_space_group_name_H-M_alt    "P 1"
_space_group_IT_number       1

loop_
  _space_group_symop_operation_xyz
  'x, y, z'

loop_
  _atom_site_type_symbol
  _atom_site_label
  _atom_site_symmetry_multiplicity
  _atom_site_fract_x
  _atom_site_fract_y
  _atom_site_fract_z
  _atom_site_occupancy
  B   B1        1.0  0.62400  0.37600  0.00000  1.0000
  B   B2        1.0  0.37600  0.62400  0.00000  1.0000
  B   B3        1.0  0.12400  0.12400  0.50000  1.0000
  B   B4        1.0  0.87600  0.87600  0.50000  1.0000
  Co  Co1       1.0  0.35800  0.03520  0.17700  1.0000
  Co  Co2       1.0  0.03520  0.35800  0.17700  1.0000
  Co  Co3       1.0  0.96500  0.64200  0.17700  1.0000
  Co  Co4       1.0  0.64200  0.96500  0.17700  1.0000
  Co  Co5       1.0  0.09850  0.09850  0.20200  1.0000
  Co  Co6       1.0  0.90100  0.90100  0.20200  1.0000
  Co  Co7       1.0  0.31700  0.31700  0.24800  1.0000
  Co  Co8       1.0  0.68300  0.68300  0.24800  1.0000
  Co  Co9       1.0  0.81700  0.18300  0.25200  1.0000
  Co  Co10      1.0  0.18300  0.81700  0.25200  1.0000
  Co  Co11      1.0  0.59900  0.40100  0.29800  1.0000
  Co  Co12      1.0  0.40100  0.59900  0.29800  1.0000
  Co  Co13      1.0  0.53500  0.14200  0.32300  1.0000
  Co  Co14      1.0  0.85800  0.46500  0.32300  1.0000
  Co  Co15      1.0  0.14200  0.53500  0.32300  1.0000
  Co  Co16      1.0  0.46500  0.85800  0.32300  1.0000
  Co  Co17      1.0  0.53500  0.14200  0.67700  1.0000
  Co  Co18      1.0  0.85800  0.46500  0.67700  1.0000
  Co  Co19      1.0  0.14200  0.53500  0.67700  1.0000
  Co  Co20      1.0  0.46500  0.85800  0.67700  1.0000
  Co  Co21      1.0  0.59900  0.40100  0.70200  1.0000
  Co  Co22      1.0  0.40100  0.59900  0.70200  1.0000
  Co  Co23      1.0  0.81700  0.18300  0.74800  1.0000
  Co  Co24      1.0  0.18300  0.81700  0.74800  1.0000
  Co  Co25      1.0  0.31700  0.31700  0.75200  1.0000
  Co  Co26      1.0  0.68300  0.68300  0.75200  1.0000
  Co  Co27      1.0  0.09850  0.09850  0.79800  1.0000
  Co  Co28      1.0  0.90100  0.90100  0.79800  1.0000
  Co  Co29      1.0  0.35800  0.03520  0.82300  1.0000
  Co  Co30      1.0  0.03520  0.35800  0.82300  1.0000
  Co  Co31      1.0  0.96500  0.64200  0.82300  1.0000
  Co  Co32      1.0  0.64200  0.96500  0.82300  1.0000
  Dy  Dy1       1.0  0.85500  0.14500  0.00000  1.0000
  Dy  Dy2       1.0  0.26900  0.26900  0.00000  1.0000
  Dy  Dy3       1.0  0.73100  0.73100  0.00000  1.0000
  Dy  Dy4       1.0  0.14500  0.85500  0.00000  1.0000
  Dy  Dy5       1.0  0.76900  0.23100  0.50000  1.0000
  Dy  Dy6       1.0  0.35500  0.35500  0.50000  1.0000
  Dy  Dy7       1.0  0.64500  0.64500  0.50000  1.0000
  Dy  Dy8       1.0  0.23100  0.76900  0.50000  1.0000
  Fe  Fe1       1.0  0.50000  0.00000  0.00000  1.0000
  Fe  Fe2       1.0  0.00000  0.50000  0.00000  1.0000
  Fe  Fe3       1.0  0.50000  0.50000  0.11800  1.0000
  Fe  Fe4       1.0  0.56600  0.22400  0.12800  1.0000
  Fe  Fe5       1.0  0.77600  0.43400  0.12800  1.0000
  Fe  Fe6       1.0  0.22400  0.56600  0.12800  1.0000
  Fe  Fe7       1.0  0.43400  0.77600  0.12800  1.0000
  Fe  Fe8       1.0  0.27600  0.06560  0.37200  1.0000
  Fe  Fe9       1.0  0.06560  0.27600  0.37200  1.0000
  Fe  Fe10      1.0  0.93400  0.72400  0.37200  1.0000
  Fe  Fe11      1.0  0.72400  0.93400  0.37200  1.0000
  Fe  Fe12      1.0  0.00000  0.00000  0.38200  1.0000
  Fe  Fe13      1.0  0.50000  0.00000  0.50000  1.0000
  Fe  Fe14      1.0  0.00000  0.50000  0.50000  1.0000
  Fe  Fe15      1.0  0.00000  0.00000  0.61800  1.0000
  Fe  Fe16      1.0  0.27600  0.06560  0.62800  1.0000
  Fe  Fe17      1.0  0.06560  0.27600  0.62800  1.0000
  Fe  Fe18      1.0  0.93400  0.72400  0.62800  1.0000
  Fe  Fe19      1.0  0.72400  0.93400  0.62800  1.0000
  Fe  Fe20      1.0  0.56600  0.22400  0.87200  1.0000
  Fe  Fe21      1.0  0.77600  0.43400  0.87200  1.0000
  Fe  Fe22      1.0  0.22400  0.56600  0.87200  1.0000
  Fe  Fe23      1.0  0.43400  0.77600  0.87200  1.0000
  Fe  Fe24      1.0  0.50000  0.50000  0.88200  1.0000
