data_image0
_chemical_formula_structural       F8Mg2Sr2
_chemical_formula_sum              "F8 Mg2 Sr2"
_cell_length_a       3.94118
_cell_length_b       5.50106
_cell_length_c       7.31494
_cell_angle_alpha    90
_cell_angle_beta     74.3719
_cell_angle_gamma    90

_space_group_name_H-M_alt    "P 1"
_space_group_IT_number       1

loop_
  _space_group_symop_operation_xyz
  'x, y, z'

loop_
  _atom_site_type_symbol
  _atom_site_label
  _atom_site_symmetry_multiplicity
  _atom_site_fract_x
  _atom_site_fract_y
  _atom_site_fract_z
  _atom_site_occupancy
  F   F1        1.0  0.00000  0.00000  0.00000  1.0000
  F   F2        1.0  0.00000  0.50000  0.00000  1.0000
  F   F3        1.0  0.40500  0.25000  0.19000  1.0000
  F   F4        1.0  0.81100  0.99900  0.37800  1.0000
  F   F5        1.0  0.81100  0.50100  0.37800  1.0000
  F   F6        1.0  0.18900  0.00125  0.62200  1.0000
  F   F7        1.0  0.18900  0.49900  0.62200  1.0000
  F   F8        1.0  0.59500  0.75000  0.81000  1.0000
  Mg  Mg1       1.0  0.90700  0.25000  0.18600  1.0000
  Mg  Mg2       1.0  0.09300  0.75000  0.81400  1.0000
  Sr  Sr1       1.0  0.34500  0.75000  0.31000  1.0000
  Sr  Sr2       1.0  0.65500  0.25000  0.69000  1.0000
