data_image0
_chemical_formula_structural       Fe8K36Se28
_chemical_formula_sum              "Fe8 K36 Se28"
_cell_length_a       13.1812
_cell_length_b       13.1812
_cell_length_c       13.1812
_cell_angle_alpha    90
_cell_angle_beta     90
_cell_angle_gamma    90

_space_group_name_H-M_alt    "P 1"
_space_group_IT_number       1

loop_
  _space_group_symop_operation_xyz
  'x, y, z'

loop_
  _atom_site_type_symbol
  _atom_site_label
  _atom_site_symmetry_multiplicity
  _atom_site_fract_x
  _atom_site_fract_y
  _atom_site_fract_z
  _atom_site_occupancy
  Fe  Fe1       1.0  0.93000  0.43000  0.07040  1.0000
  Fe  Fe2       1.0  0.39900  0.60100  0.10100  1.0000
  Fe  Fe3       1.0  0.60100  0.10100  0.39900  1.0000
  Fe  Fe4       1.0  0.07040  0.93000  0.43000  1.0000
  Fe  Fe5       1.0  0.57000  0.57000  0.57000  1.0000
  Fe  Fe6       1.0  0.10100  0.39900  0.60100  1.0000
  Fe  Fe7       1.0  0.89900  0.89900  0.89900  1.0000
  Fe  Fe8       1.0  0.43000  0.07040  0.93000  1.0000
  K   K1        1.0  0.30200  0.83200  0.00251  1.0000
  K   K2        1.0  0.79400  0.18000  0.04200  1.0000
  K   K3        1.0  0.05650  0.05650  0.05650  1.0000
  K   K4        1.0  0.58200  0.91800  0.08180  1.0000
  K   K5        1.0  0.50300  0.19800  0.16800  1.0000
  K   K6        1.0  0.04200  0.79400  0.18000  1.0000
  K   K7        1.0  0.16800  0.50300  0.19800  1.0000
  K   K8        1.0  0.68000  0.45800  0.20600  1.0000
  K   K9        1.0  0.24100  0.24100  0.24100  1.0000
  K   K10       1.0  0.75900  0.74100  0.25900  1.0000
  K   K11       1.0  0.32000  0.95800  0.29400  1.0000
  K   K12       1.0  0.83200  0.00251  0.30200  1.0000
  K   K13       1.0  0.95800  0.29400  0.32000  1.0000
  K   K14       1.0  0.49700  0.69800  0.33200  1.0000
  K   K15       1.0  0.41800  0.41800  0.41800  1.0000
  K   K16       1.0  0.94300  0.55700  0.44300  1.0000
  K   K17       1.0  0.20600  0.68000  0.45800  1.0000
  K   K18       1.0  0.69800  0.33200  0.49700  1.0000
  K   K19       1.0  0.19800  0.16800  0.50300  1.0000
  K   K20       1.0  0.70600  0.82000  0.54200  1.0000
  K   K21       1.0  0.44300  0.94300  0.55700  1.0000
  K   K22       1.0  0.91800  0.08180  0.58200  1.0000
  K   K23       1.0  0.99700  0.80200  0.66800  1.0000
  K   K24       1.0  0.45800  0.20600  0.68000  1.0000
  K   K25       1.0  0.33200  0.49700  0.69800  1.0000
  K   K26       1.0  0.82000  0.54200  0.70600  1.0000
  K   K27       1.0  0.25900  0.75900  0.74100  1.0000
  K   K28       1.0  0.74100  0.25900  0.75900  1.0000
  K   K29       1.0  0.18000  0.04200  0.79400  1.0000
  K   K30       1.0  0.66800  0.99700  0.80200  1.0000
  K   K31       1.0  0.54200  0.70600  0.82000  1.0000
  K   K32       1.0  0.00251  0.30200  0.83200  1.0000
  K   K33       1.0  0.08180  0.58200  0.91800  1.0000
  K   K34       1.0  0.55700  0.44300  0.94300  1.0000
  K   K35       1.0  0.29400  0.32000  0.95800  1.0000
  K   K36       1.0  0.80200  0.66800  0.99700  1.0000
  Se  Se1       1.0  0.31000  0.07500  0.06210  1.0000
  Se  Se2       1.0  0.83200  0.91400  0.06960  1.0000
  Se  Se3       1.0  0.06210  0.31000  0.07500  1.0000
  Se  Se4       1.0  0.57000  0.66800  0.08600  1.0000
  Se  Se5       1.0  0.41400  0.43000  0.16800  1.0000
  Se  Se6       1.0  0.92500  0.56200  0.19000  1.0000
  Se  Se7       1.0  0.29000  0.71000  0.21000  1.0000
  Se  Se8       1.0  0.71000  0.21000  0.29000  1.0000
  Se  Se9       1.0  0.07500  0.06210  0.31000  1.0000
  Se  Se10      1.0  0.58600  0.93000  0.33200  1.0000
  Se  Se11      1.0  0.43000  0.16800  0.41400  1.0000
  Se  Se12      1.0  0.93800  0.81000  0.42500  1.0000
  Se  Se13      1.0  0.16800  0.41400  0.43000  1.0000
  Se  Se14      1.0  0.69000  0.57500  0.43800  1.0000
  Se  Se15      1.0  0.19000  0.92500  0.56200  1.0000
  Se  Se16      1.0  0.66800  0.08600  0.57000  1.0000
  Se  Se17      1.0  0.43800  0.69000  0.57500  1.0000
  Se  Se18      1.0  0.93000  0.33200  0.58600  1.0000
  Se  Se19      1.0  0.08600  0.57000  0.66800  1.0000
  Se  Se20      1.0  0.57500  0.43800  0.69000  1.0000
  Se  Se21      1.0  0.21000  0.29000  0.71000  1.0000
  Se  Se22      1.0  0.79000  0.79000  0.79000  1.0000
  Se  Se23      1.0  0.42500  0.93800  0.81000  1.0000
  Se  Se24      1.0  0.91400  0.06960  0.83200  1.0000
  Se  Se25      1.0  0.06960  0.83200  0.91400  1.0000
  Se  Se26      1.0  0.56200  0.19000  0.92500  1.0000
  Se  Se27      1.0  0.33200  0.58600  0.93000  1.0000
  Se  Se28      1.0  0.81000  0.42500  0.93800  1.0000
