data_image0
_chemical_formula_structural       Ca8F8Na16O32P8
_chemical_formula_sum              "Ca8 F8 Na16 O32 P8"
_cell_length_a       13.2089
_cell_length_b       7.04056
_cell_length_c       10.5264
_cell_angle_alpha    90
_cell_angle_beta     113.411
_cell_angle_gamma    90

_space_group_name_H-M_alt    "P 1"
_space_group_IT_number       1

loop_
  _space_group_symop_operation_xyz
  'x, y, z'

loop_
  _atom_site_type_symbol
  _atom_site_label
  _atom_site_symmetry_multiplicity
  _atom_site_fract_x
  _atom_site_fract_y
  _atom_site_fract_z
  _atom_site_occupancy
  Ca  Ca1       1.0  0.82700  0.00638  0.04910  1.0000
  Ca  Ca2       1.0  0.66900  0.48800  0.19700  1.0000
  Ca  Ca3       1.0  0.33100  0.98800  0.30300  1.0000
  Ca  Ca4       1.0  0.17300  0.50600  0.45100  1.0000
  Ca  Ca5       1.0  0.82700  0.49400  0.54900  1.0000
  Ca  Ca6       1.0  0.66900  0.01200  0.69700  1.0000
  Ca  Ca7       1.0  0.33100  0.51200  0.80300  1.0000
  Ca  Ca8       1.0  0.17300  0.99400  0.95100  1.0000
  F   F1        1.0  0.24100  0.77100  0.12000  1.0000
  F   F2        1.0  0.73500  0.23000  0.12000  1.0000
  F   F3        1.0  0.26500  0.73000  0.38000  1.0000
  F   F4        1.0  0.75900  0.27100  0.38000  1.0000
  F   F5        1.0  0.24100  0.72900  0.62000  1.0000
  F   F6        1.0  0.73500  0.27000  0.62000  1.0000
  F   F7        1.0  0.26500  0.77000  0.88000  1.0000
  F   F8        1.0  0.75900  0.22900  0.88000  1.0000
  Na  Na1       1.0  0.83600  0.47700  0.04560  1.0000
  Na  Na2       1.0  0.41200  0.77500  0.08870  1.0000
  Na  Na3       1.0  0.09050  0.74600  0.17700  1.0000
  Na  Na4       1.0  0.67000  0.01910  0.23900  1.0000
  Na  Na5       1.0  0.33000  0.51900  0.26100  1.0000
  Na  Na6       1.0  0.90900  0.24600  0.32300  1.0000
  Na  Na7       1.0  0.58800  0.27500  0.41100  1.0000
  Na  Na8       1.0  0.16400  0.97700  0.45400  1.0000
  Na  Na9       1.0  0.83600  0.02330  0.54600  1.0000
  Na  Na10      1.0  0.41200  0.72500  0.58900  1.0000
  Na  Na11      1.0  0.09050  0.75400  0.67700  1.0000
  Na  Na12      1.0  0.67000  0.48100  0.73900  1.0000
  Na  Na13      1.0  0.33000  0.98100  0.76100  1.0000
  Na  Na14      1.0  0.90900  0.25400  0.82300  1.0000
  Na  Na15      1.0  0.58800  0.22500  0.91100  1.0000
  Na  Na16      1.0  0.16400  0.52300  0.95400  1.0000
  O   O1        1.0  0.91600  0.75000  0.00437  1.0000
  O   O2        1.0  0.35500  0.45200  0.04930  1.0000
  O   O3        1.0  0.58600  0.77900  0.08700  1.0000
  O   O4        1.0  0.35000  0.09750  0.09720  1.0000
  O   O5        1.0  0.96400  0.23600  0.13300  1.0000
  O   O6        1.0  0.53300  0.26600  0.17000  1.0000
  O   O7        1.0  0.14700  0.06550  0.22000  1.0000
  O   O8        1.0  0.14300  0.42600  0.22400  1.0000
  O   O9        1.0  0.85700  0.92600  0.27600  1.0000
  O   O10       1.0  0.85300  0.56500  0.28000  1.0000
  O   O11       1.0  0.46700  0.76600  0.33000  1.0000
  O   O12       1.0  0.03650  0.73600  0.36700  1.0000
  O   O13       1.0  0.65000  0.59800  0.40300  1.0000
  O   O14       1.0  0.41400  0.27900  0.41300  1.0000
  O   O15       1.0  0.64500  0.95200  0.45100  1.0000
  O   O16       1.0  0.08360  0.25000  0.49600  1.0000
  O   O17       1.0  0.91600  0.75000  0.50400  1.0000
  O   O18       1.0  0.35500  0.04810  0.54900  1.0000
  O   O19       1.0  0.58600  0.72100  0.58700  1.0000
  O   O20       1.0  0.35000  0.40200  0.59700  1.0000
  O   O21       1.0  0.96400  0.26400  0.63300  1.0000
  O   O22       1.0  0.53300  0.23400  0.67000  1.0000
  O   O23       1.0  0.14700  0.43500  0.72000  1.0000
  O   O24       1.0  0.14300  0.07450  0.72400  1.0000
  O   O25       1.0  0.85700  0.57400  0.77600  1.0000
  O   O26       1.0  0.85300  0.93500  0.78000  1.0000
  O   O27       1.0  0.46700  0.73400  0.83000  1.0000
  O   O28       1.0  0.03650  0.76400  0.86700  1.0000
  O   O29       1.0  0.65000  0.90200  0.90300  1.0000
  O   O30       1.0  0.41400  0.22100  0.91300  1.0000
  O   O31       1.0  0.64500  0.54800  0.95100  1.0000
  O   O32       1.0  0.08360  0.25000  0.99600  1.0000
  P   P1        1.0  0.41400  0.25800  0.05900  1.0000
  P   P2        1.0  0.08410  0.24500  0.14400  1.0000
  P   P3        1.0  0.91600  0.74500  0.35600  1.0000
  P   P4        1.0  0.58600  0.75800  0.44100  1.0000
  P   P5        1.0  0.41400  0.24200  0.55900  1.0000
  P   P6        1.0  0.08410  0.25500  0.64400  1.0000
  P   P7        1.0  0.91600  0.75500  0.85600  1.0000
  P   P8        1.0  0.58600  0.74200  0.94100  1.0000
