data_image0
_chemical_formula_structural       Ce8P48Si16
_chemical_formula_sum              "Ce8 P48 Si16"
_cell_length_a       10.1831
_cell_length_b       10.4315
_cell_length_c       15.0097
_cell_angle_alpha    90
_cell_angle_beta     70.1708
_cell_angle_gamma    90

_space_group_name_H-M_alt    "P 1"
_space_group_IT_number       1

loop_
  _space_group_symop_operation_xyz
  'x, y, z'

loop_
  _atom_site_type_symbol
  _atom_site_label
  _atom_site_symmetry_multiplicity
  _atom_site_fract_x
  _atom_site_fract_y
  _atom_site_fract_z
  _atom_site_occupancy
  Ce  Ce1       1.0  0.45900  0.57600  0.08150  1.0000
  Ce  Ce2       1.0  0.91900  0.49900  0.16100  1.0000
  Ce  Ce3       1.0  0.81100  0.09250  0.37800  1.0000
  Ce  Ce4       1.0  0.26600  0.11400  0.46800  1.0000
  Ce  Ce5       1.0  0.73400  0.61400  0.53200  1.0000
  Ce  Ce6       1.0  0.18900  0.59200  0.62200  1.0000
  Ce  Ce7       1.0  0.08050  0.99900  0.83900  1.0000
  Ce  Ce8       1.0  0.54100  0.07590  0.91800  1.0000
  P   P1        1.0  0.17200  0.67000  0.05870  1.0000
  P   P2        1.0  0.77000  0.67000  0.05870  1.0000
  P   P3        1.0  0.96900  0.96100  0.06140  1.0000
  P   P4        1.0  0.45800  0.27800  0.08420  1.0000
  P   P5        1.0  0.11700  0.25200  0.08450  1.0000
  P   P6        1.0  0.79800  0.25200  0.08450  1.0000
  P   P7        1.0  0.30000  0.97800  0.09380  1.0000
  P   P8        1.0  0.60600  0.97800  0.09380  1.0000
  P   P9        1.0  0.92500  0.13700  0.15000  1.0000
  P   P10       1.0  0.42200  0.85400  0.15600  1.0000
  P   P11       1.0  0.17200  0.53700  0.24400  1.0000
  P   P12       1.0  0.58500  0.53700  0.24400  1.0000
  P   P13       1.0  0.00774  0.85300  0.29200  1.0000
  P   P14       1.0  0.70000  0.85300  0.29200  1.0000
  P   P15       1.0  0.84500  0.70500  0.30900  1.0000
  P   P16       1.0  0.34400  0.85300  0.31300  1.0000
  P   P17       1.0  0.13800  0.17700  0.31400  1.0000
  P   P18       1.0  0.54800  0.17700  0.31400  1.0000
  P   P19       1.0  0.81900  0.37500  0.36300  1.0000
  P   P20       1.0  0.27300  0.40200  0.45400  1.0000
  P   P21       1.0  0.60300  0.38700  0.46600  1.0000
  P   P22       1.0  0.93200  0.38700  0.46600  1.0000
  P   P23       1.0  0.04960  0.68800  0.48500  1.0000
  P   P24       1.0  0.46500  0.68800  0.48500  1.0000
  P   P25       1.0  0.53500  0.18800  0.51500  1.0000
  P   P26       1.0  0.95000  0.18800  0.51500  1.0000
  P   P27       1.0  0.06820  0.88700  0.53400  1.0000
  P   P28       1.0  0.39700  0.88700  0.53400  1.0000
  P   P29       1.0  0.72700  0.90200  0.54600  1.0000
  P   P30       1.0  0.18100  0.87500  0.63700  1.0000
  P   P31       1.0  0.45200  0.67700  0.68600  1.0000
  P   P32       1.0  0.86200  0.67700  0.68600  1.0000
  P   P33       1.0  0.65600  0.35300  0.68700  1.0000
  P   P34       1.0  0.15500  0.20500  0.69100  1.0000
  P   P35       1.0  0.30000  0.35300  0.70800  1.0000
  P   P36       1.0  0.99200  0.35300  0.70800  1.0000
  P   P37       1.0  0.41500  0.03690  0.75600  1.0000
  P   P38       1.0  0.82800  0.03690  0.75600  1.0000
  P   P39       1.0  0.57800  0.35400  0.84400  1.0000
  P   P40       1.0  0.07500  0.63700  0.85000  1.0000
  P   P41       1.0  0.39400  0.47800  0.90600  1.0000
  P   P42       1.0  0.70000  0.47800  0.90600  1.0000
  P   P43       1.0  0.20200  0.75200  0.91600  1.0000
  P   P44       1.0  0.88300  0.75200  0.91600  1.0000
  P   P45       1.0  0.54200  0.77800  0.91600  1.0000
  P   P46       1.0  0.03070  0.46100  0.93900  1.0000
  P   P47       1.0  0.23000  0.17000  0.94100  1.0000
  P   P48       1.0  0.82800  0.17000  0.94100  1.0000
  Si  Si1       1.0  0.10400  0.85700  0.13300  1.0000
  Si  Si2       1.0  0.76300  0.85700  0.13300  1.0000
  Si  Si3       1.0  0.25900  0.17600  0.16200  1.0000
  Si  Si4       1.0  0.58000  0.17600  0.16200  1.0000
  Si  Si5       1.0  0.15700  0.71800  0.33100  1.0000
  Si  Si6       1.0  0.51200  0.71800  0.33100  1.0000
  Si  Si7       1.0  0.15100  0.38500  0.35600  1.0000
  Si  Si8       1.0  0.49300  0.38500  0.35600  1.0000
  Si  Si9       1.0  0.50700  0.88500  0.64400  1.0000
  Si  Si10      1.0  0.84900  0.88500  0.64400  1.0000
  Si  Si11      1.0  0.48800  0.21800  0.66900  1.0000
  Si  Si12      1.0  0.84300  0.21800  0.66900  1.0000
  Si  Si13      1.0  0.42000  0.67600  0.83800  1.0000
  Si  Si14      1.0  0.74100  0.67600  0.83800  1.0000
  Si  Si15      1.0  0.23700  0.35700  0.86700  1.0000
  Si  Si16      1.0  0.89600  0.35700  0.86700  1.0000
