data_image0
_chemical_formula_structural       As4K12P12Se36
_chemical_formula_sum              "As4 K12 P12 Se36"
_cell_length_a       8.31468
_cell_length_b       23.6094
_cell_length_c       12.439
_cell_angle_alpha    90
_cell_angle_beta     123.52
_cell_angle_gamma    90

_space_group_name_H-M_alt    "P 1"
_space_group_IT_number       1

loop_
  _space_group_symop_operation_xyz
  'x, y, z'

loop_
  _atom_site_type_symbol
  _atom_site_label
  _atom_site_symmetry_multiplicity
  _atom_site_fract_x
  _atom_site_fract_y
  _atom_site_fract_z
  _atom_site_occupancy
  As  As1       1.0  0.02500  0.07500  0.22700  1.0000
  As  As2       1.0  0.97500  0.57500  0.27300  1.0000
  As  As3       1.0  0.02500  0.42500  0.72700  1.0000
  As  As4       1.0  0.97500  0.92500  0.77300  1.0000
  K   K1        1.0  0.35300  0.97500  0.22000  1.0000
  K   K2        1.0  0.10200  0.33400  0.22000  1.0000
  K   K3        1.0  0.62500  0.19400  0.24600  1.0000
  K   K4        1.0  0.37500  0.69400  0.25400  1.0000
  K   K5        1.0  0.89800  0.83400  0.28000  1.0000
  K   K6        1.0  0.64700  0.47500  0.28000  1.0000
  K   K7        1.0  0.35300  0.52500  0.72000  1.0000
  K   K8        1.0  0.10200  0.16600  0.72000  1.0000
  K   K9        1.0  0.62500  0.30600  0.74600  1.0000
  K   K10       1.0  0.37500  0.80600  0.75400  1.0000
  K   K11       1.0  0.89800  0.66600  0.78000  1.0000
  K   K12       1.0  0.64700  0.02450  0.78000  1.0000
  P   P1        1.0  0.05150  0.16400  0.02760  1.0000
  P   P2        1.0  0.26700  0.82400  0.04300  1.0000
  P   P3        1.0  0.12000  0.52800  0.07890  1.0000
  P   P4        1.0  0.88000  0.02780  0.42100  1.0000
  P   P5        1.0  0.73300  0.32400  0.45700  1.0000
  P   P6        1.0  0.94800  0.66400  0.47200  1.0000
  P   P7        1.0  0.05150  0.33600  0.52800  1.0000
  P   P8        1.0  0.26700  0.67600  0.54300  1.0000
  P   P9        1.0  0.12000  0.97200  0.57900  1.0000
  P   P10       1.0  0.88000  0.47200  0.92100  1.0000
  P   P11       1.0  0.73300  0.17600  0.95700  1.0000
  P   P12       1.0  0.94800  0.83600  0.97200  1.0000
  Se  Se1       1.0  0.69200  0.25600  0.02490  1.0000
  Se  Se2       1.0  0.90700  0.91900  0.02700  1.0000
  Se  Se3       1.0  0.85500  0.76300  0.02780  1.0000
  Se  Se4       1.0  0.31600  0.55600  0.02810  1.0000
  Se  Se5       1.0  0.69100  0.09840  0.05420  1.0000
  Se  Se6       1.0  0.95000  0.60500  0.07600  1.0000
  Se  Se7       1.0  0.77400  0.98400  0.23800  1.0000
  Se  Se8       1.0  0.18700  0.16700  0.24400  1.0000
  Se  Se9       1.0  0.55300  0.33700  0.25000  1.0000
  Se  Se10      1.0  0.44700  0.83700  0.25000  1.0000
  Se  Se11      1.0  0.81300  0.66700  0.25600  1.0000
  Se  Se12      1.0  0.22600  0.48400  0.26200  1.0000
  Se  Se13      1.0  0.05030  0.10500  0.42400  1.0000
  Se  Se14      1.0  0.30900  0.59800  0.44600  1.0000
  Se  Se15      1.0  0.68400  0.05590  0.47200  1.0000
  Se  Se16      1.0  0.14500  0.26300  0.47200  1.0000
  Se  Se17      1.0  0.09260  0.41900  0.47300  1.0000
  Se  Se18      1.0  0.30800  0.75600  0.47500  1.0000
  Se  Se19      1.0  0.69200  0.24400  0.52500  1.0000
  Se  Se20      1.0  0.90700  0.58100  0.52700  1.0000
  Se  Se21      1.0  0.85500  0.73700  0.52800  1.0000
  Se  Se22      1.0  0.31600  0.94400  0.52800  1.0000
  Se  Se23      1.0  0.69100  0.40200  0.55400  1.0000
  Se  Se24      1.0  0.95000  0.89500  0.57600  1.0000
  Se  Se25      1.0  0.77400  0.51600  0.73800  1.0000
  Se  Se26      1.0  0.18700  0.33300  0.74400  1.0000
  Se  Se27      1.0  0.55300  0.16300  0.75000  1.0000
  Se  Se28      1.0  0.44700  0.66300  0.75000  1.0000
  Se  Se29      1.0  0.81300  0.83300  0.75600  1.0000
  Se  Se30      1.0  0.22600  0.01630  0.76200  1.0000
  Se  Se31      1.0  0.05030  0.39500  0.92400  1.0000
  Se  Se32      1.0  0.30900  0.90200  0.94600  1.0000
  Se  Se33      1.0  0.68400  0.44400  0.97200  1.0000
  Se  Se34      1.0  0.14500  0.23700  0.97200  1.0000
  Se  Se35      1.0  0.09260  0.08050  0.97300  1.0000
  Se  Se36      1.0  0.30800  0.74400  0.97500  1.0000
