data_image0
_chemical_formula_structural       Cu12K12P12Se36
_chemical_formula_sum              "Cu12 K12 P12 Se36"
_cell_length_a       8.83015
_cell_length_b       10.7964
_cell_length_c       20.1343
_cell_angle_alpha    90
_cell_angle_beta     92.9283
_cell_angle_gamma    90

_space_group_name_H-M_alt    "P 1"
_space_group_IT_number       1

loop_
  _space_group_symop_operation_xyz
  'x, y, z'

loop_
  _atom_site_type_symbol
  _atom_site_label
  _atom_site_symmetry_multiplicity
  _atom_site_fract_x
  _atom_site_fract_y
  _atom_site_fract_z
  _atom_site_occupancy
  Cu  Cu1       1.0  0.13500  0.79300  0.10800  1.0000
  Cu  Cu2       1.0  0.82300  0.99300  0.13700  1.0000
  Cu  Cu3       1.0  0.47000  0.85800  0.22600  1.0000
  Cu  Cu4       1.0  0.53000  0.35800  0.27400  1.0000
  Cu  Cu5       1.0  0.17700  0.49300  0.36300  1.0000
  Cu  Cu6       1.0  0.86500  0.29300  0.39200  1.0000
  Cu  Cu7       1.0  0.13500  0.70700  0.60800  1.0000
  Cu  Cu8       1.0  0.82300  0.50700  0.63700  1.0000
  Cu  Cu9       1.0  0.47000  0.64200  0.72600  1.0000
  Cu  Cu10      1.0  0.53000  0.14200  0.77400  1.0000
  Cu  Cu11      1.0  0.17700  0.00697  0.86300  1.0000
  Cu  Cu12      1.0  0.86500  0.20700  0.89200  1.0000
  K   K1        1.0  0.52300  0.20300  0.00820  1.0000
  K   K2        1.0  0.85300  0.49200  0.10200  1.0000
  K   K3        1.0  0.19500  0.17400  0.20700  1.0000
  K   K4        1.0  0.80500  0.67400  0.29300  1.0000
  K   K5        1.0  0.14700  0.99200  0.39800  1.0000
  K   K6        1.0  0.47700  0.70300  0.49200  1.0000
  K   K7        1.0  0.52300  0.29700  0.50800  1.0000
  K   K8        1.0  0.85300  0.00791  0.60200  1.0000
  K   K9        1.0  0.19500  0.32600  0.70700  1.0000
  K   K10       1.0  0.80500  0.82600  0.79300  1.0000
  K   K11       1.0  0.14700  0.50800  0.89800  1.0000
  K   K12       1.0  0.47700  0.79700  0.99200  1.0000
  P   P1        1.0  0.06950  0.08110  0.02180  1.0000
  P   P2        1.0  0.39500  0.55600  0.14300  1.0000
  P   P3        1.0  0.26700  0.59300  0.23700  1.0000
  P   P4        1.0  0.73300  0.09280  0.26300  1.0000
  P   P5        1.0  0.60500  0.05610  0.35700  1.0000
  P   P6        1.0  0.93100  0.58100  0.47800  1.0000
  P   P7        1.0  0.06950  0.41900  0.52200  1.0000
  P   P8        1.0  0.39500  0.94400  0.64300  1.0000
  P   P9        1.0  0.26700  0.90700  0.73700  1.0000
  P   P10       1.0  0.73300  0.40700  0.76300  1.0000
  P   P11       1.0  0.60500  0.44400  0.85700  1.0000
  P   P12       1.0  0.93100  0.91900  0.97800  1.0000
  Se  Se1       1.0  0.22900  0.59900  0.06000  1.0000
  Se  Se2       1.0  0.86700  0.81400  0.06880  1.0000
  Se  Se3       1.0  0.26300  0.99100  0.07690  1.0000
  Se  Se4       1.0  0.91700  0.18200  0.08680  1.0000
  Se  Se5       1.0  0.47200  0.36100  0.15100  1.0000
  Se  Se6       1.0  0.57900  0.69700  0.15100  1.0000
  Se  Se7       1.0  0.56300  0.05020  0.17800  1.0000
  Se  Se8       1.0  0.20300  0.79300  0.22700  1.0000
  Se  Se9       1.0  0.07400  0.46300  0.24200  1.0000
  Se  Se10      1.0  0.92600  0.96300  0.25800  1.0000
  Se  Se11      1.0  0.79700  0.29300  0.27300  1.0000
  Se  Se12      1.0  0.43700  0.55000  0.32200  1.0000
  Se  Se13      1.0  0.42100  0.19700  0.34900  1.0000
  Se  Se14      1.0  0.52800  0.86100  0.34900  1.0000
  Se  Se15      1.0  0.08310  0.68200  0.41300  1.0000
  Se  Se16      1.0  0.73700  0.49100  0.42300  1.0000
  Se  Se17      1.0  0.13300  0.31400  0.43100  1.0000
  Se  Se18      1.0  0.77100  0.09900  0.44000  1.0000
  Se  Se19      1.0  0.22900  0.90100  0.56000  1.0000
  Se  Se20      1.0  0.86700  0.68600  0.56900  1.0000
  Se  Se21      1.0  0.26300  0.50900  0.57700  1.0000
  Se  Se22      1.0  0.91700  0.31800  0.58700  1.0000
  Se  Se23      1.0  0.47200  0.13900  0.65100  1.0000
  Se  Se24      1.0  0.57900  0.80300  0.65100  1.0000
  Se  Se25      1.0  0.56300  0.45000  0.67800  1.0000
  Se  Se26      1.0  0.20300  0.70700  0.72700  1.0000
  Se  Se27      1.0  0.07400  0.03670  0.74200  1.0000
  Se  Se28      1.0  0.92600  0.53700  0.75800  1.0000
  Se  Se29      1.0  0.79700  0.20700  0.77300  1.0000
  Se  Se30      1.0  0.43700  0.95000  0.82200  1.0000
  Se  Se31      1.0  0.42100  0.30300  0.84900  1.0000
  Se  Se32      1.0  0.52800  0.63900  0.84900  1.0000
  Se  Se33      1.0  0.08310  0.81800  0.91300  1.0000
  Se  Se34      1.0  0.73700  0.00870  0.92300  1.0000
  Se  Se35      1.0  0.13300  0.18600  0.93100  1.0000
  Se  Se36      1.0  0.77100  0.40100  0.94000  1.0000
