data_image0
_chemical_formula_structural       C8Cs8O40Se4U4
_chemical_formula_sum              "C8 Cs8 O40 Se4 U4"
_cell_length_a       6.91068
_cell_length_b       7.70793
_cell_length_c       22.9633
_cell_angle_alpha    91.0702
_cell_angle_beta     92.3878
_cell_angle_gamma    63.3664

_space_group_name_H-M_alt    "P 1"
_space_group_IT_number       1

loop_
  _space_group_symop_operation_xyz
  'x, y, z'

loop_
  _atom_site_type_symbol
  _atom_site_label
  _atom_site_symmetry_multiplicity
  _atom_site_fract_x
  _atom_site_fract_y
  _atom_site_fract_z
  _atom_site_occupancy
  C   C1        1.0  0.64300  0.41100  0.06200  1.0000
  C   C2        1.0  0.43400  0.38900  0.07030  1.0000
  C   C3        1.0  0.17700  0.38900  0.43000  1.0000
  C   C4        1.0  0.94500  0.41100  0.43800  1.0000
  C   C5        1.0  0.05450  0.58900  0.56200  1.0000
  C   C6        1.0  0.82300  0.61100  0.57000  1.0000
  C   C7        1.0  0.56600  0.61100  0.93000  1.0000
  C   C8        1.0  0.35700  0.58900  0.93800  1.0000
  Cs  Cs1       1.0  0.82600  0.86500  0.03600  1.0000
  Cs  Cs2       1.0  0.05340  0.35600  0.16800  1.0000
  Cs  Cs3       1.0  0.59000  0.35600  0.33200  1.0000
  Cs  Cs4       1.0  0.30800  0.86500  0.46400  1.0000
  Cs  Cs5       1.0  0.69200  0.13500  0.53600  1.0000
  Cs  Cs6       1.0  0.41000  0.64400  0.66800  1.0000
  Cs  Cs7       1.0  0.94700  0.64400  0.83200  1.0000
  Cs  Cs8       1.0  0.17400  0.13500  0.96400  1.0000
  O   O1        1.0  0.79400  0.28900  0.03410  1.0000
  O   O2        1.0  0.41300  0.24800  0.04990  1.0000
  O   O3        1.0  0.64300  0.56400  0.08720  1.0000
  O   O4        1.0  0.29100  0.52800  0.10000  1.0000
  O   O5        1.0  0.22800  0.93600  0.10300  1.0000
  O   O6        1.0  0.63000  0.87700  0.16000  1.0000
  O   O7        1.0  0.77100  0.15300  0.16600  1.0000
  O   O8        1.0  0.04400  0.76300  0.18700  1.0000
  O   O9        1.0  0.52500  0.56300  0.20800  1.0000
  O   O10       1.0  0.27300  0.98300  0.23400  1.0000
  O   O11       1.0  0.74400  0.98300  0.26600  1.0000
  O   O12       1.0  0.91200  0.56300  0.29200  1.0000
  O   O13       1.0  0.19300  0.76300  0.31300  1.0000
  O   O14       1.0  0.07670  0.15300  0.33400  1.0000
  O   O15       1.0  0.49300  0.87700  0.34000  1.0000
  O   O16       1.0  0.83600  0.93600  0.39700  1.0000
  O   O17       1.0  0.18100  0.52800  0.40000  1.0000
  O   O18       1.0  0.79300  0.56400  0.41300  1.0000
  O   O19       1.0  0.33800  0.24800  0.45000  1.0000
  O   O20       1.0  0.91700  0.28900  0.46600  1.0000
  O   O21       1.0  0.08260  0.71100  0.53400  1.0000
  O   O22       1.0  0.66200  0.75200  0.55000  1.0000
  O   O23       1.0  0.20700  0.43600  0.58700  1.0000
  O   O24       1.0  0.81900  0.47200  0.60000  1.0000
  O   O25       1.0  0.16400  0.06450  0.60300  1.0000
  O   O26       1.0  0.50700  0.12300  0.66000  1.0000
  O   O27       1.0  0.92300  0.84700  0.66600  1.0000
  O   O28       1.0  0.80700  0.23700  0.68700  1.0000
  O   O29       1.0  0.08810  0.43700  0.70800  1.0000
  O   O30       1.0  0.25600  0.01690  0.73400  1.0000
  O   O31       1.0  0.72700  0.01690  0.76600  1.0000
  O   O32       1.0  0.47500  0.43700  0.79200  1.0000
  O   O33       1.0  0.95600  0.23700  0.81300  1.0000
  O   O34       1.0  0.22900  0.84700  0.83400  1.0000
  O   O35       1.0  0.37000  0.12300  0.84000  1.0000
  O   O36       1.0  0.77200  0.06450  0.89700  1.0000
  O   O37       1.0  0.70900  0.47200  0.90000  1.0000
  O   O38       1.0  0.35700  0.43600  0.91300  1.0000
  O   O39       1.0  0.58700  0.75200  0.95000  1.0000
  O   O40       1.0  0.20600  0.71100  0.96600  1.0000
  Se  Se1       1.0  0.79700  0.95100  0.19500  1.0000
  Se  Se2       1.0  0.25200  0.95100  0.30500  1.0000
  Se  Se3       1.0  0.74800  0.04930  0.69500  1.0000
  Se  Se4       1.0  0.20300  0.04930  0.80500  1.0000
  U   U1        1.0  0.37700  0.74800  0.15500  1.0000
  U   U2        1.0  0.87400  0.74800  0.34500  1.0000
  U   U3        1.0  0.12600  0.25200  0.65500  1.0000
  U   U4        1.0  0.62300  0.25200  0.84500  1.0000
