data_image0
_chemical_formula_structural       H8In8O40P8Rb8
_chemical_formula_sum              "H8 In8 O40 P8 Rb8"
_cell_length_a       9.35533
_cell_length_b       9.35533
_cell_length_c       11.1988
_cell_angle_alpha    90
_cell_angle_beta     90
_cell_angle_gamma    90

_space_group_name_H-M_alt    "P 1"
_space_group_IT_number       1

loop_
  _space_group_symop_operation_xyz
  'x, y, z'

loop_
  _atom_site_type_symbol
  _atom_site_label
  _atom_site_symmetry_multiplicity
  _atom_site_fract_x
  _atom_site_fract_y
  _atom_site_fract_z
  _atom_site_occupancy
  H   H1        1.0  0.94000  0.87600  0.09700  1.0000
  H   H2        1.0  0.44000  0.62400  0.15300  1.0000
  H   H3        1.0  0.37600  0.56000  0.34700  1.0000
  H   H4        1.0  0.12400  0.06000  0.40300  1.0000
  H   H5        1.0  0.06000  0.12400  0.59700  1.0000
  H   H6        1.0  0.56000  0.37600  0.65300  1.0000
  H   H7        1.0  0.62400  0.44000  0.84700  1.0000
  H   H8        1.0  0.87600  0.94000  0.90300  1.0000
  In  In1       1.0  0.09480  0.09480  0.00000  1.0000
  In  In2       1.0  0.65100  0.65100  0.00000  1.0000
  In  In3       1.0  0.59500  0.40500  0.25000  1.0000
  In  In4       1.0  0.15100  0.84900  0.25000  1.0000
  In  In5       1.0  0.34900  0.34900  0.50000  1.0000
  In  In6       1.0  0.90500  0.90500  0.50000  1.0000
  In  In7       1.0  0.84900  0.15100  0.75000  1.0000
  In  In8       1.0  0.40500  0.59500  0.75000  1.0000
  O   O1        1.0  0.50700  0.83500  0.01010  1.0000
  O   O2        1.0  0.96500  0.28000  0.03290  1.0000
  O   O3        1.0  0.71400  0.30300  0.10700  1.0000
  O   O4        1.0  0.28000  0.75100  0.11300  1.0000
  O   O5        1.0  0.50400  0.54900  0.12300  1.0000
  O   O6        1.0  0.00364  0.95100  0.12700  1.0000
  O   O7        1.0  0.78000  0.74900  0.13700  1.0000
  O   O8        1.0  0.21400  0.19700  0.14300  1.0000
  O   O9        1.0  0.46500  0.22000  0.21700  1.0000
  O   O10       1.0  0.00712  0.66500  0.24000  1.0000
  O   O11       1.0  0.33500  0.99300  0.26000  1.0000
  O   O12       1.0  0.78000  0.53500  0.28300  1.0000
  O   O13       1.0  0.80300  0.78600  0.35700  1.0000
  O   O14       1.0  0.25100  0.22000  0.36300  1.0000
  O   O15       1.0  0.04860  0.99600  0.37300  1.0000
  O   O16       1.0  0.45100  0.49600  0.37700  1.0000
  O   O17       1.0  0.24900  0.72000  0.38700  1.0000
  O   O18       1.0  0.69700  0.28600  0.39300  1.0000
  O   O19       1.0  0.72000  0.03460  0.46700  1.0000
  O   O20       1.0  0.16500  0.49300  0.49000  1.0000
  O   O21       1.0  0.49300  0.16500  0.51000  1.0000
  O   O22       1.0  0.03460  0.72000  0.53300  1.0000
  O   O23       1.0  0.28600  0.69700  0.60700  1.0000
  O   O24       1.0  0.72000  0.24900  0.61300  1.0000
  O   O25       1.0  0.49600  0.45100  0.62300  1.0000
  O   O26       1.0  0.99600  0.04860  0.62700  1.0000
  O   O27       1.0  0.22000  0.25100  0.63700  1.0000
  O   O28       1.0  0.78600  0.80300  0.64300  1.0000
  O   O29       1.0  0.53500  0.78000  0.71700  1.0000
  O   O30       1.0  0.99300  0.33500  0.74000  1.0000
  O   O31       1.0  0.66500  0.00712  0.76000  1.0000
  O   O32       1.0  0.22000  0.46500  0.78300  1.0000
  O   O33       1.0  0.19700  0.21400  0.85700  1.0000
  O   O34       1.0  0.74900  0.78000  0.86300  1.0000
  O   O35       1.0  0.95100  0.00364  0.87300  1.0000
  O   O36       1.0  0.54900  0.50400  0.87700  1.0000
  O   O37       1.0  0.75100  0.28000  0.88700  1.0000
  O   O38       1.0  0.30300  0.71400  0.89300  1.0000
  O   O39       1.0  0.28000  0.96500  0.96700  1.0000
  O   O40       1.0  0.83500  0.50700  0.99000  1.0000
  P   P1        1.0  0.81700  0.34300  0.00361  1.0000
  P   P2        1.0  0.31700  0.15700  0.24600  1.0000
  P   P3        1.0  0.84300  0.68300  0.25400  1.0000
  P   P4        1.0  0.65700  0.18300  0.49600  1.0000
  P   P5        1.0  0.18300  0.65700  0.50400  1.0000
  P   P6        1.0  0.68300  0.84300  0.74600  1.0000
  P   P7        1.0  0.15700  0.31700  0.75400  1.0000
  P   P8        1.0  0.34300  0.81700  0.99600  1.0000
  Rb  Rb1       1.0  0.18600  0.48300  0.04770  1.0000
  Rb  Rb2       1.0  0.68600  0.01700  0.20200  1.0000
  Rb  Rb3       1.0  0.98300  0.31400  0.29800  1.0000
  Rb  Rb4       1.0  0.51700  0.81400  0.45200  1.0000
  Rb  Rb5       1.0  0.81400  0.51700  0.54800  1.0000
  Rb  Rb6       1.0  0.31400  0.98300  0.70200  1.0000
  Rb  Rb7       1.0  0.01700  0.68600  0.79800  1.0000
  Rb  Rb8       1.0  0.48300  0.18600  0.95200  1.0000
