data_image0
_chemical_formula_structural       C4Fe56Gd8
_chemical_formula_sum              "C4 Fe56 Gd8"
_cell_length_a       8.72488
_cell_length_b       8.72488
_cell_length_c       11.7648
_cell_angle_alpha    90
_cell_angle_beta     90
_cell_angle_gamma    90

_space_group_name_H-M_alt    "P 1"
_space_group_IT_number       1

loop_
  _space_group_symop_operation_xyz
  'x, y, z'

loop_
  _atom_site_type_symbol
  _atom_site_label
  _atom_site_symmetry_multiplicity
  _atom_site_fract_x
  _atom_site_fract_y
  _atom_site_fract_z
  _atom_site_occupancy
  C   C1        1.0  0.62600  0.37400  0.00000  1.0000
  C   C2        1.0  0.37400  0.62600  0.00000  1.0000
  C   C3        1.0  0.12600  0.12600  0.50000  1.0000
  C   C4        1.0  0.87400  0.87400  0.50000  1.0000
  Fe  Fe1       1.0  0.50000  0.00000  0.00000  1.0000
  Fe  Fe2       1.0  0.00000  0.50000  0.00000  1.0000
  Fe  Fe3       1.0  0.50000  0.50000  0.10800  1.0000
  Fe  Fe4       1.0  0.56500  0.22500  0.12100  1.0000
  Fe  Fe5       1.0  0.77500  0.43500  0.12100  1.0000
  Fe  Fe6       1.0  0.22500  0.56500  0.12100  1.0000
  Fe  Fe7       1.0  0.43500  0.77500  0.12100  1.0000
  Fe  Fe8       1.0  0.35800  0.03610  0.17600  1.0000
  Fe  Fe9       1.0  0.03610  0.35800  0.17600  1.0000
  Fe  Fe10      1.0  0.96400  0.64200  0.17600  1.0000
  Fe  Fe11      1.0  0.64200  0.96400  0.17600  1.0000
  Fe  Fe12      1.0  0.09740  0.09740  0.20500  1.0000
  Fe  Fe13      1.0  0.90300  0.90300  0.20500  1.0000
  Fe  Fe14      1.0  0.31600  0.31600  0.24500  1.0000
  Fe  Fe15      1.0  0.68400  0.68400  0.24500  1.0000
  Fe  Fe16      1.0  0.81600  0.18400  0.25500  1.0000
  Fe  Fe17      1.0  0.18400  0.81600  0.25500  1.0000
  Fe  Fe18      1.0  0.59700  0.40300  0.29500  1.0000
  Fe  Fe19      1.0  0.40300  0.59700  0.29500  1.0000
  Fe  Fe20      1.0  0.53600  0.14200  0.32400  1.0000
  Fe  Fe21      1.0  0.85800  0.46400  0.32400  1.0000
  Fe  Fe22      1.0  0.14200  0.53600  0.32400  1.0000
  Fe  Fe23      1.0  0.46400  0.85800  0.32400  1.0000
  Fe  Fe24      1.0  0.27500  0.06510  0.37900  1.0000
  Fe  Fe25      1.0  0.06510  0.27500  0.37900  1.0000
  Fe  Fe26      1.0  0.93500  0.72500  0.37900  1.0000
  Fe  Fe27      1.0  0.72500  0.93500  0.37900  1.0000
  Fe  Fe28      1.0  0.00000  0.00000  0.39200  1.0000
  Fe  Fe29      1.0  0.50000  0.00000  0.50000  1.0000
  Fe  Fe30      1.0  0.00000  0.50000  0.50000  1.0000
  Fe  Fe31      1.0  0.00000  0.00000  0.60800  1.0000
  Fe  Fe32      1.0  0.27500  0.06510  0.62100  1.0000
  Fe  Fe33      1.0  0.06510  0.27500  0.62100  1.0000
  Fe  Fe34      1.0  0.93500  0.72500  0.62100  1.0000
  Fe  Fe35      1.0  0.72500  0.93500  0.62100  1.0000
  Fe  Fe36      1.0  0.53600  0.14200  0.67600  1.0000
  Fe  Fe37      1.0  0.85800  0.46400  0.67600  1.0000
  Fe  Fe38      1.0  0.14200  0.53600  0.67600  1.0000
  Fe  Fe39      1.0  0.46400  0.85800  0.67600  1.0000
  Fe  Fe40      1.0  0.59700  0.40300  0.70500  1.0000
  Fe  Fe41      1.0  0.40300  0.59700  0.70500  1.0000
  Fe  Fe42      1.0  0.81600  0.18400  0.74500  1.0000
  Fe  Fe43      1.0  0.18400  0.81600  0.74500  1.0000
  Fe  Fe44      1.0  0.31600  0.31600  0.75500  1.0000
  Fe  Fe45      1.0  0.68400  0.68400  0.75500  1.0000
  Fe  Fe46      1.0  0.09740  0.09740  0.79500  1.0000
  Fe  Fe47      1.0  0.90300  0.90300  0.79500  1.0000
  Fe  Fe48      1.0  0.35800  0.03610  0.82400  1.0000
  Fe  Fe49      1.0  0.03610  0.35800  0.82400  1.0000
  Fe  Fe50      1.0  0.96400  0.64200  0.82400  1.0000
  Fe  Fe51      1.0  0.64200  0.96400  0.82400  1.0000
  Fe  Fe52      1.0  0.56500  0.22500  0.87900  1.0000
  Fe  Fe53      1.0  0.77500  0.43500  0.87900  1.0000
  Fe  Fe54      1.0  0.22500  0.56500  0.87900  1.0000
  Fe  Fe55      1.0  0.43500  0.77500  0.87900  1.0000
  Fe  Fe56      1.0  0.50000  0.50000  0.89200  1.0000
  Gd  Gd1       1.0  0.85600  0.14400  0.00000  1.0000
  Gd  Gd2       1.0  0.26000  0.26000  0.00000  1.0000
  Gd  Gd3       1.0  0.74000  0.74000  0.00000  1.0000
  Gd  Gd4       1.0  0.14400  0.85600  0.00000  1.0000
  Gd  Gd5       1.0  0.76000  0.24000  0.50000  1.0000
  Gd  Gd6       1.0  0.35600  0.35600  0.50000  1.0000
  Gd  Gd7       1.0  0.64400  0.64400  0.50000  1.0000
  Gd  Gd8       1.0  0.24000  0.76000  0.50000  1.0000
