data_image0
_chemical_formula_structural       Co2H24O22P4Zn2
_chemical_formula_sum              "Co2 H24 O22 P4 Zn2"
_cell_length_a       7.29537
_cell_length_b       7.40512
_cell_length_c       9.29539
_cell_angle_alpha    88.6647
_cell_angle_beta     89.8132
_cell_angle_gamma    87.2448

_space_group_name_H-M_alt    "P 1"
_space_group_IT_number       1

loop_
  _space_group_symop_operation_xyz
  'x, y, z'

loop_
  _atom_site_type_symbol
  _atom_site_label
  _atom_site_symmetry_multiplicity
  _atom_site_fract_x
  _atom_site_fract_y
  _atom_site_fract_z
  _atom_site_occupancy
  Co  Co1       1.0  0.00000  0.00000  0.00000  1.0000
  Co  Co2       1.0  0.50000  0.50000  0.50000  1.0000
  H   H1        1.0  0.58900  0.31900  0.02720  1.0000
  H   H2        1.0  0.75200  0.76300  0.06490  1.0000
  H   H3        1.0  0.64900  0.94600  0.11100  1.0000
  H   H4        1.0  0.36600  0.02550  0.20200  1.0000
  H   H5        1.0  0.60400  0.59500  0.23800  1.0000
  H   H6        1.0  0.38800  0.59900  0.24700  1.0000
  H   H7        1.0  0.04460  0.08980  0.25800  1.0000
  H   H8        1.0  0.04600  0.87700  0.26900  1.0000
  H   H9        1.0  0.48600  0.88100  0.28900  1.0000
  H   H10       1.0  0.56500  0.17200  0.35600  1.0000
  H   H11       1.0  0.75500  0.25400  0.40400  1.0000
  H   H12       1.0  0.22200  0.09580  0.49200  1.0000
  H   H13       1.0  0.77800  0.90400  0.50800  1.0000
  H   H14       1.0  0.24500  0.74600  0.59600  1.0000
  H   H15       1.0  0.43500  0.82800  0.64400  1.0000
  H   H16       1.0  0.51400  0.11900  0.71100  1.0000
  H   H17       1.0  0.95400  0.12300  0.73100  1.0000
  H   H18       1.0  0.95500  0.91000  0.74200  1.0000
  H   H19       1.0  0.61200  0.40100  0.75300  1.0000
  H   H20       1.0  0.39600  0.40500  0.76200  1.0000
  H   H21       1.0  0.63400  0.97500  0.79800  1.0000
  H   H22       1.0  0.35100  0.05400  0.88900  1.0000
  H   H23       1.0  0.24800  0.23700  0.93500  1.0000
  H   H24       1.0  0.41100  0.68100  0.97300  1.0000
  O   O1        1.0  0.73500  0.89300  0.03780  1.0000
  O   O2        1.0  0.91500  0.25000  0.05360  1.0000
  O   O3        1.0  0.77200  0.54100  0.12900  1.0000
  O   O4        1.0  0.22800  0.53100  0.13900  1.0000
  O   O5        1.0  0.09720  0.97900  0.21100  1.0000
  O   O6        1.0  0.48900  0.00588  0.24600  1.0000
  O   O7        1.0  0.49900  0.64000  0.29900  1.0000
  O   O8        1.0  0.96000  0.71700  0.35900  1.0000
  O   O9        1.0  0.98200  0.26200  0.36800  1.0000
  O   O10       1.0  0.62100  0.25600  0.42300  1.0000
  O   O11       1.0  0.25100  0.41900  0.45200  1.0000
  O   O12       1.0  0.74900  0.58100  0.54800  1.0000
  O   O13       1.0  0.37900  0.74400  0.57700  1.0000
  O   O14       1.0  0.01820  0.73800  0.63200  1.0000
  O   O15       1.0  0.03990  0.28300  0.64100  1.0000
  O   O16       1.0  0.50100  0.36000  0.70100  1.0000
  O   O17       1.0  0.51100  0.99400  0.75400  1.0000
  O   O18       1.0  0.90300  0.02090  0.78900  1.0000
  O   O19       1.0  0.77200  0.46900  0.86100  1.0000
  O   O20       1.0  0.22800  0.45900  0.87100  1.0000
  O   O21       1.0  0.08550  0.75000  0.94600  1.0000
  O   O22       1.0  0.26500  0.10700  0.96200  1.0000
  P   P1        1.0  0.76400  0.39000  0.01560  1.0000
  P   P2        1.0  0.12800  0.26600  0.49100  1.0000
  P   P3        1.0  0.87200  0.73400  0.50900  1.0000
  P   P4        1.0  0.23600  0.61000  0.98400  1.0000
  Zn  Zn1       1.0  0.00346  0.49000  0.25000  1.0000
  Zn  Zn2       1.0  0.99700  0.51000  0.75000  1.0000
