data_image0
_chemical_formula_structural       H48Se8Si16
_chemical_formula_sum              "H48 Se8 Si16"
_cell_length_a       7.87173
_cell_length_b       7.87173
_cell_length_c       14.7684
_cell_angle_alpha    90
_cell_angle_beta     90
_cell_angle_gamma    90

_space_group_name_H-M_alt    "P 1"
_space_group_IT_number       1

loop_
  _space_group_symop_operation_xyz
  'x, y, z'

loop_
  _atom_site_type_symbol
  _atom_site_label
  _atom_site_symmetry_multiplicity
  _atom_site_fract_x
  _atom_site_fract_y
  _atom_site_fract_z
  _atom_site_occupancy
  H   H1        1.0  0.07260  0.25600  0.05430  1.0000
  H   H2        1.0  0.72700  0.81500  0.06650  1.0000
  H   H3        1.0  0.40800  0.11900  0.06770  1.0000
  H   H4        1.0  0.01320  0.60200  0.06870  1.0000
  H   H5        1.0  0.08340  0.90300  0.08860  1.0000
  H   H6        1.0  0.35300  0.41400  0.11900  1.0000
  H   H7        1.0  0.85300  0.08570  0.13100  1.0000
  H   H8        1.0  0.58300  0.59700  0.16100  1.0000
  H   H9        1.0  0.51300  0.89800  0.18100  1.0000
  H   H10       1.0  0.90800  0.38100  0.18200  1.0000
  H   H11       1.0  0.22700  0.68500  0.18400  1.0000
  H   H12       1.0  0.57300  0.24400  0.19600  1.0000
  H   H13       1.0  0.75600  0.42700  0.30400  1.0000
  H   H14       1.0  0.31500  0.77300  0.31600  1.0000
  H   H15       1.0  0.61900  0.09210  0.31800  1.0000
  H   H16       1.0  0.10200  0.48700  0.31900  1.0000
  H   H17       1.0  0.40300  0.41700  0.33900  1.0000
  H   H18       1.0  0.91400  0.14700  0.36900  1.0000
  H   H19       1.0  0.58600  0.64700  0.38100  1.0000
  H   H20       1.0  0.09730  0.91700  0.41100  1.0000
  H   H21       1.0  0.39800  0.98700  0.43100  1.0000
  H   H22       1.0  0.88100  0.59200  0.43200  1.0000
  H   H23       1.0  0.18500  0.27300  0.43400  1.0000
  H   H24       1.0  0.74400  0.92700  0.44600  1.0000
  H   H25       1.0  0.92700  0.74400  0.55400  1.0000
  H   H26       1.0  0.27300  0.18500  0.56600  1.0000
  H   H27       1.0  0.59200  0.88100  0.56800  1.0000
  H   H28       1.0  0.98700  0.39800  0.56900  1.0000
  H   H29       1.0  0.91700  0.09730  0.58900  1.0000
  H   H30       1.0  0.64700  0.58600  0.61900  1.0000
  H   H31       1.0  0.14700  0.91400  0.63100  1.0000
  H   H32       1.0  0.41700  0.40300  0.66100  1.0000
  H   H33       1.0  0.48700  0.10200  0.68100  1.0000
  H   H34       1.0  0.09210  0.61900  0.68200  1.0000
  H   H35       1.0  0.77300  0.31500  0.68400  1.0000
  H   H36       1.0  0.42700  0.75600  0.69600  1.0000
  H   H37       1.0  0.24400  0.57300  0.80400  1.0000
  H   H38       1.0  0.68500  0.22700  0.81600  1.0000
  H   H39       1.0  0.38100  0.90800  0.81800  1.0000
  H   H40       1.0  0.89800  0.51300  0.81900  1.0000
  H   H41       1.0  0.59700  0.58300  0.83900  1.0000
  H   H42       1.0  0.08570  0.85300  0.86900  1.0000
  H   H43       1.0  0.41400  0.35300  0.88100  1.0000
  H   H44       1.0  0.90300  0.08340  0.91100  1.0000
  H   H45       1.0  0.60200  0.01320  0.93100  1.0000
  H   H46       1.0  0.11900  0.40800  0.93200  1.0000
  H   H47       1.0  0.81500  0.72700  0.93400  1.0000
  H   H48       1.0  0.25600  0.07260  0.94600  1.0000
  Se  Se1       1.0  0.70400  0.37000  0.00800  1.0000
  Se  Se2       1.0  0.20400  0.13000  0.24200  1.0000
  Se  Se3       1.0  0.87000  0.79600  0.25800  1.0000
  Se  Se4       1.0  0.63000  0.29600  0.49200  1.0000
  Se  Se5       1.0  0.29600  0.63000  0.50800  1.0000
  Se  Se6       1.0  0.79600  0.87000  0.74200  1.0000
  Se  Se7       1.0  0.13000  0.20400  0.75800  1.0000
  Se  Se8       1.0  0.37000  0.70400  0.99200  1.0000
  Si  Si1       1.0  0.15000  0.72500  0.09410  1.0000
  Si  Si2       1.0  0.90900  0.26000  0.10500  1.0000
  Si  Si3       1.0  0.40900  0.24000  0.14500  1.0000
  Si  Si4       1.0  0.65000  0.77500  0.15600  1.0000
  Si  Si5       1.0  0.22500  0.35000  0.34400  1.0000
  Si  Si6       1.0  0.76000  0.59100  0.35500  1.0000
  Si  Si7       1.0  0.74000  0.09130  0.39500  1.0000
  Si  Si8       1.0  0.27500  0.85000  0.40600  1.0000
  Si  Si9       1.0  0.85000  0.27500  0.59400  1.0000
  Si  Si10      1.0  0.09130  0.74000  0.60500  1.0000
  Si  Si11      1.0  0.59100  0.76000  0.64500  1.0000
  Si  Si12      1.0  0.35000  0.22500  0.65600  1.0000
  Si  Si13      1.0  0.77500  0.65000  0.84400  1.0000
  Si  Si14      1.0  0.24000  0.40900  0.85500  1.0000
  Si  Si15      1.0  0.26000  0.90900  0.89500  1.0000
  Si  Si16      1.0  0.72500  0.15000  0.90600  1.0000
