data_image0
_chemical_formula_structural       Ge6O50P12Si4
_chemical_formula_sum              "Ge6 O50 P12 Si4"
_cell_length_a       7.93024
_cell_length_b       7.93025
_cell_length_c       16.4533
_cell_angle_alpha    90
_cell_angle_beta     90
_cell_angle_gamma    120

_space_group_name_H-M_alt    "P 1"
_space_group_IT_number       1

loop_
  _space_group_symop_operation_xyz
  'x, y, z'

loop_
  _atom_site_type_symbol
  _atom_site_label
  _atom_site_symmetry_multiplicity
  _atom_site_fract_x
  _atom_site_fract_y
  _atom_site_fract_z
  _atom_site_occupancy
  Ge  Ge1       1.0  0.33300  0.66700  0.02400  1.0000
  Ge  Ge2       1.0  0.66700  0.33300  0.25000  1.0000
  Ge  Ge3       1.0  0.33300  0.66700  0.47600  1.0000
  Ge  Ge4       1.0  0.66700  0.33300  0.52400  1.0000
  Ge  Ge5       1.0  0.33300  0.66700  0.75000  1.0000
  Ge  Ge6       1.0  0.66700  0.33300  0.97600  1.0000
  O   O1        1.0  0.80100  0.24000  0.04100  1.0000
  O   O2        1.0  0.44000  0.19900  0.04100  1.0000
  O   O3        1.0  0.76000  0.56000  0.04100  1.0000
  O   O4        1.0  0.45400  0.56700  0.09070  1.0000
  O   O5        1.0  0.11400  0.54600  0.09070  1.0000
  O   O6        1.0  0.43300  0.88600  0.09070  1.0000
  O   O7        1.0  0.05680  0.21200  0.11600  1.0000
  O   O8        1.0  0.78800  0.84500  0.11600  1.0000
  O   O9        1.0  0.15500  0.94300  0.11600  1.0000
  O   O10       1.0  0.46500  0.13500  0.19000  1.0000
  O   O11       1.0  0.67000  0.53500  0.19000  1.0000
  O   O12       1.0  0.86500  0.33000  0.19000  1.0000
  O   O13       1.0  0.00000  0.00000  0.25000  1.0000
  O   O14       1.0  0.67000  0.13500  0.31000  1.0000
  O   O15       1.0  0.46500  0.33000  0.31000  1.0000
  O   O16       1.0  0.86500  0.53500  0.31000  1.0000
  O   O17       1.0  0.15500  0.21200  0.38400  1.0000
  O   O18       1.0  0.78800  0.94300  0.38400  1.0000
  O   O19       1.0  0.05680  0.84500  0.38400  1.0000
  O   O20       1.0  0.43300  0.54600  0.40900  1.0000
  O   O21       1.0  0.11400  0.56700  0.40900  1.0000
  O   O22       1.0  0.45400  0.88600  0.40900  1.0000
  O   O23       1.0  0.76000  0.19900  0.45900  1.0000
  O   O24       1.0  0.80100  0.56000  0.45900  1.0000
  O   O25       1.0  0.44000  0.24000  0.45900  1.0000
  O   O26       1.0  0.19900  0.44000  0.54100  1.0000
  O   O27       1.0  0.56000  0.76000  0.54100  1.0000
  O   O28       1.0  0.24000  0.80100  0.54100  1.0000
  O   O29       1.0  0.88600  0.43300  0.59100  1.0000
  O   O30       1.0  0.54600  0.11400  0.59100  1.0000
  O   O31       1.0  0.56700  0.45400  0.59100  1.0000
  O   O32       1.0  0.94300  0.15500  0.61600  1.0000
  O   O33       1.0  0.21200  0.05680  0.61600  1.0000
  O   O34       1.0  0.84500  0.78800  0.61600  1.0000
  O   O35       1.0  0.13500  0.46500  0.69000  1.0000
  O   O36       1.0  0.53500  0.67000  0.69000  1.0000
  O   O37       1.0  0.33000  0.86500  0.69000  1.0000
  O   O38       1.0  0.00000  0.00000  0.75000  1.0000
  O   O39       1.0  0.33000  0.46500  0.81000  1.0000
  O   O40       1.0  0.53500  0.86500  0.81000  1.0000
  O   O41       1.0  0.13500  0.67000  0.81000  1.0000
  O   O42       1.0  0.84500  0.05680  0.88400  1.0000
  O   O43       1.0  0.21200  0.15500  0.88400  1.0000
  O   O44       1.0  0.94300  0.78800  0.88400  1.0000
  O   O45       1.0  0.56700  0.11400  0.90900  1.0000
  O   O46       1.0  0.88600  0.45400  0.90900  1.0000
  O   O47       1.0  0.54600  0.43300  0.90900  1.0000
  O   O48       1.0  0.24000  0.44000  0.95900  1.0000
  O   O49       1.0  0.56000  0.80100  0.95900  1.0000
  O   O50       1.0  0.19900  0.76000  0.95900  1.0000
  P   P1        1.0  0.38400  0.04550  0.10800  1.0000
  P   P2        1.0  0.95400  0.33800  0.10800  1.0000
  P   P3        1.0  0.66200  0.61600  0.10800  1.0000
  P   P4        1.0  0.38400  0.33800  0.39200  1.0000
  P   P5        1.0  0.66200  0.04550  0.39200  1.0000
  P   P6        1.0  0.95400  0.61600  0.39200  1.0000
  P   P7        1.0  0.61600  0.66200  0.60800  1.0000
  P   P8        1.0  0.04550  0.38400  0.60800  1.0000
  P   P9        1.0  0.33800  0.95400  0.60800  1.0000
  P   P10       1.0  0.33800  0.38400  0.89200  1.0000
  P   P11       1.0  0.04550  0.66200  0.89200  1.0000
  P   P12       1.0  0.61600  0.95400  0.89200  1.0000
  Si  Si1       1.0  0.00000  0.00000  0.15300  1.0000
  Si  Si2       1.0  0.00000  0.00000  0.34700  1.0000
  Si  Si3       1.0  0.00000  0.00000  0.65300  1.0000
  Si  Si4       1.0  0.00000  0.00000  0.84700  1.0000
