data_image0
_chemical_formula_structural       Cr20Hf24Si28
_chemical_formula_sum              "Cr20 Hf24 Si28"
_cell_length_a       16.27
_cell_length_b       5.08251
_cell_length_c       13.2029
_cell_angle_alpha    90
_cell_angle_beta     90
_cell_angle_gamma    90

_space_group_name_H-M_alt    "P 1"
_space_group_IT_number       1

loop_
  _space_group_symop_operation_xyz
  'x, y, z'

loop_
  _atom_site_type_symbol
  _atom_site_label
  _atom_site_symmetry_multiplicity
  _atom_site_fract_x
  _atom_site_fract_y
  _atom_site_fract_z
  _atom_site_occupancy
  Cr  Cr1       1.0  0.13000  0.51500  0.03950  1.0000
  Cr  Cr2       1.0  0.13000  0.98500  0.03950  1.0000
  Cr  Cr3       1.0  0.56500  0.25000  0.14500  1.0000
  Cr  Cr4       1.0  0.68400  0.50100  0.16100  1.0000
  Cr  Cr5       1.0  0.68400  0.99900  0.16100  1.0000
  Cr  Cr6       1.0  0.18400  0.50100  0.33900  1.0000
  Cr  Cr7       1.0  0.18400  0.99900  0.33900  1.0000
  Cr  Cr8       1.0  0.06450  0.25000  0.35500  1.0000
  Cr  Cr9       1.0  0.63000  0.51500  0.46000  1.0000
  Cr  Cr10      1.0  0.63000  0.98500  0.46000  1.0000
  Cr  Cr11      1.0  0.37000  0.01460  0.54000  1.0000
  Cr  Cr12      1.0  0.37000  0.48500  0.54000  1.0000
  Cr  Cr13      1.0  0.93500  0.75000  0.64500  1.0000
  Cr  Cr14      1.0  0.81600  0.00124  0.66100  1.0000
  Cr  Cr15      1.0  0.81600  0.49900  0.66100  1.0000
  Cr  Cr16      1.0  0.31600  0.00124  0.83900  1.0000
  Cr  Cr17      1.0  0.31600  0.49900  0.83900  1.0000
  Cr  Cr18      1.0  0.43500  0.75000  0.85500  1.0000
  Cr  Cr19      1.0  0.87000  0.01460  0.96000  1.0000
  Cr  Cr20      1.0  0.87000  0.48500  0.96000  1.0000
  Hf  Hf1       1.0  0.56300  0.75000  0.02810  1.0000
  Hf  Hf2       1.0  0.32500  0.75000  0.03200  1.0000
  Hf  Hf3       1.0  0.96500  0.25000  0.14900  1.0000
  Hf  Hf4       1.0  0.85000  0.75000  0.18200  1.0000
  Hf  Hf5       1.0  0.29000  0.25000  0.18200  1.0000
  Hf  Hf6       1.0  0.05690  0.75000  0.23100  1.0000
  Hf  Hf7       1.0  0.55700  0.75000  0.26900  1.0000
  Hf  Hf8       1.0  0.79000  0.25000  0.31800  1.0000
  Hf  Hf9       1.0  0.35000  0.75000  0.31800  1.0000
  Hf  Hf10      1.0  0.46500  0.25000  0.35100  1.0000
  Hf  Hf11      1.0  0.82500  0.75000  0.46800  1.0000
  Hf  Hf12      1.0  0.06270  0.75000  0.47200  1.0000
  Hf  Hf13      1.0  0.93700  0.25000  0.52800  1.0000
  Hf  Hf14      1.0  0.17500  0.25000  0.53200  1.0000
  Hf  Hf15      1.0  0.53500  0.75000  0.64900  1.0000
  Hf  Hf16      1.0  0.65000  0.25000  0.68200  1.0000
  Hf  Hf17      1.0  0.21000  0.75000  0.68200  1.0000
  Hf  Hf18      1.0  0.44300  0.25000  0.73100  1.0000
  Hf  Hf19      1.0  0.94300  0.25000  0.76900  1.0000
  Hf  Hf20      1.0  0.71000  0.75000  0.81800  1.0000
  Hf  Hf21      1.0  0.15000  0.25000  0.81800  1.0000
  Hf  Hf22      1.0  0.03520  0.75000  0.85100  1.0000
  Hf  Hf23      1.0  0.67500  0.25000  0.96800  1.0000
  Hf  Hf24      1.0  0.43700  0.25000  0.97200  1.0000
  Si  Si1       1.0  0.74100  0.75000  0.01960  1.0000
  Si  Si2       1.0  0.98400  0.75000  0.04800  1.0000
  Si  Si3       1.0  0.80400  0.25000  0.10700  1.0000
  Si  Si4       1.0  0.43900  0.50400  0.15900  1.0000
  Si  Si5       1.0  0.43900  0.99600  0.15900  1.0000
  Si  Si6       1.0  0.21500  0.75000  0.18100  1.0000
  Si  Si7       1.0  0.12600  0.25000  0.19300  1.0000
  Si  Si8       1.0  0.62600  0.25000  0.30700  1.0000
  Si  Si9       1.0  0.71500  0.75000  0.31900  1.0000
  Si  Si10      1.0  0.93900  0.50400  0.34100  1.0000
  Si  Si11      1.0  0.93900  0.99600  0.34100  1.0000
  Si  Si12      1.0  0.30400  0.25000  0.39300  1.0000
  Si  Si13      1.0  0.48400  0.75000  0.45200  1.0000
  Si  Si14      1.0  0.24100  0.75000  0.48000  1.0000
  Si  Si15      1.0  0.75900  0.25000  0.52000  1.0000
  Si  Si16      1.0  0.51600  0.25000  0.54800  1.0000
  Si  Si17      1.0  0.69600  0.75000  0.60700  1.0000
  Si  Si18      1.0  0.06140  0.00353  0.65900  1.0000
  Si  Si19      1.0  0.06140  0.49600  0.65900  1.0000
  Si  Si20      1.0  0.28500  0.25000  0.68100  1.0000
  Si  Si21      1.0  0.37400  0.75000  0.69300  1.0000
  Si  Si22      1.0  0.87400  0.75000  0.80700  1.0000
  Si  Si23      1.0  0.78500  0.25000  0.81900  1.0000
  Si  Si24      1.0  0.56100  0.00353  0.84100  1.0000
  Si  Si25      1.0  0.56100  0.49600  0.84100  1.0000
  Si  Si26      1.0  0.19600  0.75000  0.89300  1.0000
  Si  Si27      1.0  0.01580  0.25000  0.95200  1.0000
  Si  Si28      1.0  0.25900  0.25000  0.98000  1.0000
