data_image0
_chemical_formula_structural       Mg4O4Pb4Se4
_chemical_formula_sum              "Mg4 O4 Pb4 Se4"
_cell_length_a       6.36778
_cell_length_b       3.66412
_cell_length_c       14.0362
_cell_angle_alpha    90
_cell_angle_beta     90
_cell_angle_gamma    90

_space_group_name_H-M_alt    "P 1"
_space_group_IT_number       1

loop_
  _space_group_symop_operation_xyz
  'x, y, z'

loop_
  _atom_site_type_symbol
  _atom_site_label
  _atom_site_symmetry_multiplicity
  _atom_site_fract_x
  _atom_site_fract_y
  _atom_site_fract_z
  _atom_site_occupancy
  Mg  Mg1       1.0  0.32900  0.75000  0.03010  1.0000
  Mg  Mg2       1.0  0.82900  0.75000  0.47000  1.0000
  Mg  Mg3       1.0  0.17100  0.25000  0.53000  1.0000
  Mg  Mg4       1.0  0.67100  0.25000  0.97000  1.0000
  O   O1        1.0  0.44100  0.25000  0.07450  1.0000
  O   O2        1.0  0.94100  0.25000  0.42600  1.0000
  O   O3        1.0  0.05910  0.75000  0.57400  1.0000
  O   O4        1.0  0.55900  0.75000  0.92600  1.0000
  Pb  Pb1       1.0  0.65900  0.25000  0.20400  1.0000
  Pb  Pb2       1.0  0.15900  0.25000  0.29600  1.0000
  Pb  Pb3       1.0  0.84100  0.75000  0.70400  1.0000
  Pb  Pb4       1.0  0.34100  0.75000  0.79600  1.0000
  Se  Se1       1.0  0.92100  0.75000  0.10600  1.0000
  Se  Se2       1.0  0.42100  0.75000  0.39400  1.0000
  Se  Se3       1.0  0.57900  0.25000  0.60600  1.0000
  Se  Se4       1.0  0.07940  0.25000  0.89400  1.0000
