data_image0
_chemical_formula_structural       Cu2H32I4O32
_chemical_formula_sum              "Cu2 H32 I4 O32"
_cell_length_a       10.471
_cell_length_b       5.31411
_cell_length_c       11.1707
_cell_angle_alpha    90
_cell_angle_beta     110.988
_cell_angle_gamma    90

_space_group_name_H-M_alt    "P 1"
_space_group_IT_number       1

loop_
  _space_group_symop_operation_xyz
  'x, y, z'

loop_
  _atom_site_type_symbol
  _atom_site_label
  _atom_site_symmetry_multiplicity
  _atom_site_fract_x
  _atom_site_fract_y
  _atom_site_fract_z
  _atom_site_occupancy
  Cu  Cu1       1.0  0.00000  0.00000  0.00000  1.0000
  Cu  Cu2       1.0  0.00000  0.50000  0.50000  1.0000
  H   H1        1.0  0.81400  0.25700  0.03100  1.0000
  H   H2        1.0  0.24900  0.89500  0.10500  1.0000
  H   H3        1.0  0.10900  0.51100  0.10500  1.0000
  H   H4        1.0  0.63500  0.93800  0.10900  1.0000
  H   H5        1.0  0.20800  0.28800  0.16000  1.0000
  H   H6        1.0  0.88500  0.85400  0.16300  1.0000
  H   H7        1.0  0.47700  0.14700  0.17700  1.0000
  H   H8        1.0  0.04810  0.86800  0.22800  1.0000
  H   H9        1.0  0.95200  0.36800  0.27200  1.0000
  H   H10       1.0  0.52300  0.64700  0.32300  1.0000
  H   H11       1.0  0.11500  0.35400  0.33700  1.0000
  H   H12       1.0  0.79200  0.78800  0.34000  1.0000
  H   H13       1.0  0.36500  0.43800  0.39100  1.0000
  H   H14       1.0  0.89100  0.01080  0.39500  1.0000
  H   H15       1.0  0.75100  0.39500  0.39500  1.0000
  H   H16       1.0  0.18600  0.75700  0.46900  1.0000
  H   H17       1.0  0.81400  0.24300  0.53100  1.0000
  H   H18       1.0  0.24900  0.60500  0.60500  1.0000
  H   H19       1.0  0.10900  0.98900  0.60500  1.0000
  H   H20       1.0  0.63500  0.56200  0.60900  1.0000
  H   H21       1.0  0.20800  0.21200  0.66000  1.0000
  H   H22       1.0  0.88500  0.64600  0.66300  1.0000
  H   H23       1.0  0.47700  0.35300  0.67700  1.0000
  H   H24       1.0  0.04810  0.63200  0.72800  1.0000
  H   H25       1.0  0.95200  0.13200  0.77200  1.0000
  H   H26       1.0  0.52300  0.85300  0.82300  1.0000
  H   H27       1.0  0.11500  0.14600  0.83700  1.0000
  H   H28       1.0  0.79200  0.71200  0.84000  1.0000
  H   H29       1.0  0.36500  0.06160  0.89100  1.0000
  H   H30       1.0  0.89100  0.48900  0.89500  1.0000
  H   H31       1.0  0.75100  0.10500  0.89500  1.0000
  H   H32       1.0  0.18600  0.74300  0.96900  1.0000
  I   I1        1.0  0.62600  0.48400  0.12600  1.0000
  I   I2        1.0  0.37400  0.98400  0.37400  1.0000
  I   I3        1.0  0.62600  0.01610  0.62600  1.0000
  I   I4        1.0  0.37400  0.51600  0.87400  1.0000
  O   O1        1.0  0.16700  0.79900  0.04810  1.0000
  O   O2        1.0  0.43400  0.60500  0.06060  1.0000
  O   O3        1.0  0.68600  0.80100  0.08180  1.0000
  O   O4        1.0  0.11100  0.33700  0.13600  1.0000
  O   O5        1.0  0.97100  0.83200  0.14600  1.0000
  O   O6        1.0  0.79200  0.34600  0.15300  1.0000
  O   O7        1.0  0.56500  0.15700  0.15600  1.0000
  O   O8        1.0  0.35500  0.09280  0.21200  1.0000
  O   O9        1.0  0.64500  0.59300  0.28800  1.0000
  O   O10       1.0  0.43500  0.65700  0.34400  1.0000
  O   O11       1.0  0.20800  0.84600  0.34700  1.0000
  O   O12       1.0  0.02900  0.33200  0.35400  1.0000
  O   O13       1.0  0.88900  0.83700  0.36400  1.0000
  O   O14       1.0  0.31400  0.30000  0.41800  1.0000
  O   O15       1.0  0.56600  0.10500  0.43900  1.0000
  O   O16       1.0  0.83300  0.29900  0.45200  1.0000
  O   O17       1.0  0.16700  0.70100  0.54800  1.0000
  O   O18       1.0  0.43400  0.89500  0.56100  1.0000
  O   O19       1.0  0.68600  0.70000  0.58200  1.0000
  O   O20       1.0  0.11100  0.16300  0.63600  1.0000
  O   O21       1.0  0.97100  0.66800  0.64600  1.0000
  O   O22       1.0  0.79200  0.15400  0.65300  1.0000
  O   O23       1.0  0.56500  0.34300  0.65600  1.0000
  O   O24       1.0  0.35500  0.40700  0.71200  1.0000
  O   O25       1.0  0.64500  0.90700  0.78800  1.0000
  O   O26       1.0  0.43500  0.84300  0.84400  1.0000
  O   O27       1.0  0.20800  0.65400  0.84700  1.0000
  O   O28       1.0  0.02900  0.16800  0.85400  1.0000
  O   O29       1.0  0.88900  0.66300  0.86400  1.0000
  O   O30       1.0  0.31400  0.20000  0.91800  1.0000
  O   O31       1.0  0.56600  0.39500  0.93900  1.0000
  O   O32       1.0  0.83300  0.20100  0.95200  1.0000
