data_image0
_chemical_formula_structural       O48Se16V8
_chemical_formula_sum              "O48 Se16 V8"
_cell_length_a       11.232
_cell_length_b       11.232
_cell_length_c       7.59765
_cell_angle_alpha    90
_cell_angle_beta     90
_cell_angle_gamma    90

_space_group_name_H-M_alt    "P 1"
_space_group_IT_number       1

loop_
  _space_group_symop_operation_xyz
  'x, y, z'

loop_
  _atom_site_type_symbol
  _atom_site_label
  _atom_site_symmetry_multiplicity
  _atom_site_fract_x
  _atom_site_fract_y
  _atom_site_fract_z
  _atom_site_occupancy
  O   O1        1.0  0.12900  0.11900  0.13100  1.0000
  O   O2        1.0  0.88100  0.12900  0.13100  1.0000
  O   O3        1.0  0.11900  0.87100  0.13100  1.0000
  O   O4        1.0  0.87100  0.88100  0.13100  1.0000
  O   O5        1.0  0.65000  0.09630  0.15100  1.0000
  O   O6        1.0  0.09630  0.35000  0.15100  1.0000
  O   O7        1.0  0.90400  0.65000  0.15100  1.0000
  O   O8        1.0  0.35000  0.90400  0.15100  1.0000
  O   O9        1.0  0.40100  0.14400  0.16100  1.0000
  O   O10       1.0  0.85600  0.40100  0.16100  1.0000
  O   O11       1.0  0.14400  0.59900  0.16100  1.0000
  O   O12       1.0  0.59900  0.85600  0.16100  1.0000
  O   O13       1.0  0.50000  0.50000  0.20100  1.0000
  O   O14       1.0  0.00000  0.00000  0.38800  1.0000
  O   O15       1.0  0.50000  0.00000  0.39400  1.0000
  O   O16       1.0  0.00000  0.50000  0.39400  1.0000
  O   O17       1.0  0.74300  0.25500  0.42900  1.0000
  O   O18       1.0  0.25500  0.25700  0.42900  1.0000
  O   O19       1.0  0.74500  0.74300  0.42900  1.0000
  O   O20       1.0  0.25700  0.74500  0.42900  1.0000
  O   O21       1.0  0.51900  0.32400  0.45800  1.0000
  O   O22       1.0  0.32400  0.48100  0.45800  1.0000
  O   O23       1.0  0.67600  0.51900  0.45800  1.0000
  O   O24       1.0  0.48100  0.67600  0.45800  1.0000
  O   O25       1.0  0.87100  0.11900  0.63100  1.0000
  O   O26       1.0  0.11900  0.12900  0.63100  1.0000
  O   O27       1.0  0.88100  0.87100  0.63100  1.0000
  O   O28       1.0  0.12900  0.88100  0.63100  1.0000
  O   O29       1.0  0.35000  0.09630  0.65100  1.0000
  O   O30       1.0  0.90400  0.35000  0.65100  1.0000
  O   O31       1.0  0.09630  0.65000  0.65100  1.0000
  O   O32       1.0  0.65000  0.90400  0.65100  1.0000
  O   O33       1.0  0.59900  0.14400  0.66100  1.0000
  O   O34       1.0  0.14400  0.40100  0.66100  1.0000
  O   O35       1.0  0.85600  0.59900  0.66100  1.0000
  O   O36       1.0  0.40100  0.85600  0.66100  1.0000
  O   O37       1.0  0.50000  0.50000  0.70100  1.0000
  O   O38       1.0  0.00000  0.00000  0.88800  1.0000
  O   O39       1.0  0.50000  0.00000  0.89400  1.0000
  O   O40       1.0  0.00000  0.50000  0.89400  1.0000
  O   O41       1.0  0.25700  0.25500  0.92900  1.0000
  O   O42       1.0  0.74500  0.25700  0.92900  1.0000
  O   O43       1.0  0.25500  0.74300  0.92900  1.0000
  O   O44       1.0  0.74300  0.74500  0.92900  1.0000
  O   O45       1.0  0.48100  0.32400  0.95800  1.0000
  O   O46       1.0  0.67600  0.48100  0.95800  1.0000
  O   O47       1.0  0.32400  0.51900  0.95800  1.0000
  O   O48       1.0  0.51900  0.67600  0.95800  1.0000
  Se  Se1       1.0  0.36900  0.28400  0.10400  1.0000
  Se  Se2       1.0  0.71600  0.36900  0.10400  1.0000
  Se  Se3       1.0  0.28400  0.63100  0.10400  1.0000
  Se  Se4       1.0  0.63100  0.71600  0.10400  1.0000
  Se  Se5       1.0  0.24000  0.10200  0.49700  1.0000
  Se  Se6       1.0  0.89800  0.24000  0.49700  1.0000
  Se  Se7       1.0  0.10200  0.76000  0.49700  1.0000
  Se  Se8       1.0  0.76000  0.89800  0.49700  1.0000
  Se  Se9       1.0  0.63100  0.28400  0.60400  1.0000
  Se  Se10      1.0  0.28400  0.36900  0.60400  1.0000
  Se  Se11      1.0  0.71600  0.63100  0.60400  1.0000
  Se  Se12      1.0  0.36900  0.71600  0.60400  1.0000
  Se  Se13      1.0  0.76000  0.10200  0.99700  1.0000
  Se  Se14      1.0  0.10200  0.24000  0.99700  1.0000
  Se  Se15      1.0  0.89800  0.76000  0.99700  1.0000
  Se  Se16      1.0  0.24000  0.89800  0.99700  1.0000
  V   V1        1.0  0.50000  0.00000  0.11400  1.0000
  V   V2        1.0  0.00000  0.50000  0.11400  1.0000
  V   V3        1.0  0.00000  0.00000  0.16500  1.0000
  V   V4        1.0  0.50000  0.50000  0.42600  1.0000
  V   V5        1.0  0.50000  0.00000  0.61400  1.0000
  V   V6        1.0  0.00000  0.50000  0.61400  1.0000
  V   V7        1.0  0.00000  0.00000  0.66500  1.0000
  V   V8        1.0  0.50000  0.50000  0.92600  1.0000
