data_image0
_chemical_formula_structural       Mg6Ni16Si7
_chemical_formula_sum              "Mg6 Ni16 Si7"
_cell_length_a       7.98118
_cell_length_b       7.98118
_cell_length_c       7.98118
_cell_angle_alpha    120
_cell_angle_beta     90
_cell_angle_gamma    120

_space_group_name_H-M_alt    "P 1"
_space_group_IT_number       1

loop_
  _space_group_symop_operation_xyz
  'x, y, z'

loop_
  _atom_site_type_symbol
  _atom_site_label
  _atom_site_symmetry_multiplicity
  _atom_site_fract_x
  _atom_site_fract_y
  _atom_site_fract_z
  _atom_site_occupancy
  Mg  Mg1       1.0  0.20400  0.40800  0.20400  1.0000
  Mg  Mg2       1.0  0.20400  0.00000  0.20400  1.0000
  Mg  Mg3       1.0  0.79600  0.00000  0.20400  1.0000
  Mg  Mg4       1.0  0.20400  1.00000  0.79600  1.0000
  Mg  Mg5       1.0  0.79600  1.00000  0.79600  1.0000
  Mg  Mg6       1.0  0.79600  0.59200  0.79600  1.0000
  Ni  Ni1       1.0  0.38200  0.76400  0.14600  1.0000
  Ni  Ni2       1.0  0.83200  0.66500  0.16800  1.0000
  Ni  Ni3       1.0  0.50300  0.33500  0.16800  1.0000
  Ni  Ni4       1.0  0.83200  0.33500  0.16800  1.0000
  Ni  Ni5       1.0  0.14600  0.76400  0.38200  1.0000
  Ni  Ni6       1.0  0.61800  0.76400  0.38200  1.0000
  Ni  Ni7       1.0  0.61800  0.23600  0.38200  1.0000
  Ni  Ni8       1.0  0.83200  0.66500  0.49700  1.0000
  Ni  Ni9       1.0  0.16800  0.33500  0.50300  1.0000
  Ni  Ni10      1.0  0.38200  0.76400  0.61800  1.0000
  Ni  Ni11      1.0  0.38200  0.23600  0.61800  1.0000
  Ni  Ni12      1.0  0.85400  0.23600  0.61800  1.0000
  Ni  Ni13      1.0  0.16800  0.66500  0.83200  1.0000
  Ni  Ni14      1.0  0.49700  0.66500  0.83200  1.0000
  Ni  Ni15      1.0  0.16800  0.33500  0.83200  1.0000
  Ni  Ni16      1.0  0.61800  0.23600  0.85400  1.0000
  Si  Si1       1.0  0.00000  0.50000  0.00000  1.0000
  Si  Si2       1.0  0.50000  0.50000  0.00000  1.0000
  Si  Si3       1.0  0.50000  0.00000  0.00000  1.0000
  Si  Si4       1.0  0.00000  0.00000  0.50000  1.0000
  Si  Si5       1.0  0.00000  0.50000  0.50000  1.0000
  Si  Si6       1.0  0.50000  0.50000  0.50000  1.0000
  Si  Si7       1.0  0.50000  0.00000  0.50000  1.0000
