data_image0
_chemical_formula_structural       Fe4Mo10Na6O32
_chemical_formula_sum              "Fe4 Mo10 Na6 O32"
_cell_length_a       5.74563
_cell_length_b       5.74674
_cell_length_c       21.7284
_cell_angle_alpha    90.1116
_cell_angle_beta     89.7877
_cell_angle_gamma    119.954

_space_group_name_H-M_alt    "P 1"
_space_group_IT_number       1

loop_
  _space_group_symop_operation_xyz
  'x, y, z'

loop_
  _atom_site_type_symbol
  _atom_site_label
  _atom_site_symmetry_multiplicity
  _atom_site_fract_x
  _atom_site_fract_y
  _atom_site_fract_z
  _atom_site_occupancy
  Fe  Fe1       1.0  0.00110  0.99900  0.14700  1.0000
  Fe  Fe2       1.0  0.00000  0.00000  0.35400  1.0000
  Fe  Fe3       1.0  0.00034  0.00020  0.64600  1.0000
  Fe  Fe4       1.0  0.99900  0.00072  0.85300  1.0000
  Mo  Mo1       1.0  0.66700  0.33400  0.06310  1.0000
  Mo  Mo2       1.0  0.48200  0.96300  0.25600  1.0000
  Mo  Mo3       1.0  0.03710  0.51800  0.25600  1.0000
  Mo  Mo4       1.0  0.48200  0.51800  0.25600  1.0000
  Mo  Mo5       1.0  0.33300  0.66700  0.43300  1.0000
  Mo  Mo6       1.0  0.66700  0.33300  0.56700  1.0000
  Mo  Mo7       1.0  0.51800  0.48200  0.74400  1.0000
  Mo  Mo8       1.0  0.96300  0.48200  0.74400  1.0000
  Mo  Mo9       1.0  0.51800  0.03700  0.74400  1.0000
  Mo  Mo10      1.0  0.33300  0.66600  0.93700  1.0000
  Na  Na1       1.0  0.00000  0.00000  0.00000  1.0000
  Na  Na2       1.0  0.33200  0.66800  0.11700  1.0000
  Na  Na3       1.0  0.66600  0.33300  0.38600  1.0000
  Na  Na4       1.0  0.00000  0.00000  0.50000  1.0000
  Na  Na5       1.0  0.33400  0.66700  0.61400  1.0000
  Na  Na6       1.0  0.66800  0.33200  0.88300  1.0000
  O   O1        1.0  0.33300  0.66600  0.01770  1.0000
  O   O2        1.0  0.83800  0.16200  0.08700  1.0000
  O   O3        1.0  0.83800  0.67800  0.08730  1.0000
  O   O4        1.0  0.32200  0.16200  0.08740  1.0000
  O   O5        1.0  0.65800  0.82700  0.19900  1.0000
  O   O6        1.0  0.17300  0.34200  0.19900  1.0000
  O   O7        1.0  0.17000  0.83000  0.20000  1.0000
  O   O8        1.0  0.66800  0.33300  0.21000  1.0000
  O   O9        1.0  0.83100  0.16900  0.30600  1.0000
  O   O10       1.0  0.33800  0.16900  0.30600  1.0000
  O   O11       1.0  0.83100  0.66200  0.30600  1.0000
  O   O12       1.0  0.33300  0.66600  0.32200  1.0000
  O   O13       1.0  0.68800  0.84400  0.41500  1.0000
  O   O14       1.0  0.15600  0.31200  0.41500  1.0000
  O   O15       1.0  0.15600  0.84400  0.41500  1.0000
  O   O16       1.0  0.66700  0.33300  0.48600  1.0000
  O   O17       1.0  0.33300  0.66700  0.51400  1.0000
  O   O18       1.0  0.84400  0.15600  0.58500  1.0000
  O   O19       1.0  0.84400  0.68800  0.58500  1.0000
  O   O20       1.0  0.31200  0.15600  0.58500  1.0000
  O   O21       1.0  0.66700  0.33400  0.67800  1.0000
  O   O22       1.0  0.16900  0.33800  0.69400  1.0000
  O   O23       1.0  0.66200  0.83100  0.69400  1.0000
  O   O24       1.0  0.16900  0.83100  0.69400  1.0000
  O   O25       1.0  0.33200  0.66700  0.79000  1.0000
  O   O26       1.0  0.83000  0.17000  0.80000  1.0000
  O   O27       1.0  0.82700  0.65800  0.80100  1.0000
  O   O28       1.0  0.34200  0.17300  0.80100  1.0000
  O   O29       1.0  0.67800  0.83800  0.91300  1.0000
  O   O30       1.0  0.16200  0.32200  0.91300  1.0000
  O   O31       1.0  0.16200  0.83800  0.91300  1.0000
  O   O32       1.0  0.66700  0.33400  0.98200  1.0000
