data_image0
_chemical_formula_structural       Cl14Cu14P24S18
_chemical_formula_sum              "Cl14 Cu14 P24 S18"
_cell_length_a       16.6717
_cell_length_b       16.6717
_cell_length_c       6.17755
_cell_angle_alpha    90
_cell_angle_beta     90
_cell_angle_gamma    120

_space_group_name_H-M_alt    "P 1"
_space_group_IT_number       1

loop_
  _space_group_symop_operation_xyz
  'x, y, z'

loop_
  _atom_site_type_symbol
  _atom_site_label
  _atom_site_symmetry_multiplicity
  _atom_site_fract_x
  _atom_site_fract_y
  _atom_site_fract_z
  _atom_site_occupancy
  Cl  Cl1       1.0  0.33300  0.66700  0.10000  1.0000
  Cl  Cl2       1.0  0.85200  0.92600  0.14100  1.0000
  Cl  Cl3       1.0  0.07410  0.14800  0.14100  1.0000
  Cl  Cl4       1.0  0.07410  0.92600  0.14100  1.0000
  Cl  Cl5       1.0  0.46900  0.53100  0.41300  1.0000
  Cl  Cl6       1.0  0.06260  0.53100  0.41300  1.0000
  Cl  Cl7       1.0  0.46900  0.93700  0.41300  1.0000
  Cl  Cl8       1.0  0.66700  0.33300  0.60000  1.0000
  Cl  Cl9       1.0  0.14800  0.07410  0.64100  1.0000
  Cl  Cl10      1.0  0.92600  0.85200  0.64100  1.0000
  Cl  Cl11      1.0  0.92600  0.07410  0.64100  1.0000
  Cl  Cl12      1.0  0.53100  0.46900  0.91300  1.0000
  Cl  Cl13      1.0  0.53100  0.06260  0.91300  1.0000
  Cl  Cl14      1.0  0.93700  0.46900  0.91300  1.0000
  Cu  Cu1       1.0  0.92100  0.84200  0.01830  1.0000
  Cu  Cu2       1.0  0.15800  0.07920  0.01830  1.0000
  Cu  Cu3       1.0  0.92100  0.07920  0.01830  1.0000
  Cu  Cu4       1.0  0.45600  0.54400  0.04580  1.0000
  Cu  Cu5       1.0  0.08840  0.54400  0.04590  1.0000
  Cu  Cu6       1.0  0.45600  0.91200  0.04590  1.0000
  Cu  Cu7       1.0  0.33300  0.66700  0.46900  1.0000
  Cu  Cu8       1.0  0.84200  0.92100  0.51800  1.0000
  Cu  Cu9       1.0  0.07920  0.15800  0.51800  1.0000
  Cu  Cu10      1.0  0.07920  0.92100  0.51800  1.0000
  Cu  Cu11      1.0  0.54400  0.45600  0.54600  1.0000
  Cu  Cu12      1.0  0.54400  0.08840  0.54600  1.0000
  Cu  Cu13      1.0  0.91200  0.45600  0.54600  1.0000
  Cu  Cu14      1.0  0.66700  0.33300  0.96900  1.0000
  P   P1        1.0  0.73900  0.26100  0.11600  1.0000
  P   P2        1.0  0.52200  0.26100  0.11600  1.0000
  P   P3        1.0  0.73900  0.47800  0.11600  1.0000
  P   P4        1.0  0.29800  0.14900  0.14200  1.0000
  P   P5        1.0  0.85100  0.14900  0.14200  1.0000
  P   P6        1.0  0.85100  0.70200  0.14200  1.0000
  P   P7        1.0  0.83200  0.30800  0.41000  1.0000
  P   P8        1.0  0.47600  0.16800  0.41000  1.0000
  P   P9        1.0  0.69200  0.52400  0.41000  1.0000
  P   P10       1.0  0.47600  0.30800  0.41000  1.0000
  P   P11       1.0  0.69200  0.16800  0.41000  1.0000
  P   P12       1.0  0.83200  0.52400  0.41000  1.0000
  P   P13       1.0  0.26100  0.52200  0.61600  1.0000
  P   P14       1.0  0.26100  0.73900  0.61600  1.0000
  P   P15       1.0  0.47800  0.73900  0.61600  1.0000
  P   P16       1.0  0.14900  0.85100  0.64200  1.0000
  P   P17       1.0  0.14900  0.29800  0.64200  1.0000
  P   P18       1.0  0.70200  0.85100  0.64200  1.0000
  P   P19       1.0  0.16800  0.47600  0.91000  1.0000
  P   P20       1.0  0.30800  0.83200  0.91000  1.0000
  P   P21       1.0  0.52400  0.69200  0.91000  1.0000
  P   P22       1.0  0.30800  0.47600  0.91000  1.0000
  P   P23       1.0  0.16800  0.69200  0.91000  1.0000
  P   P24       1.0  0.52400  0.83200  0.91000  1.0000
  S   S1        1.0  0.92900  0.26800  0.33700  1.0000
  S   S2        1.0  0.33800  0.07060  0.33700  1.0000
  S   S3        1.0  0.73200  0.66200  0.33700  1.0000
  S   S4        1.0  0.33800  0.26800  0.33700  1.0000
  S   S5        1.0  0.73200  0.07060  0.33700  1.0000
  S   S6        1.0  0.92900  0.66200  0.33700  1.0000
  S   S7        1.0  0.20300  0.40700  0.41100  1.0000
  S   S8        1.0  0.20300  0.79700  0.41100  1.0000
  S   S9        1.0  0.59300  0.79700  0.41100  1.0000
  S   S10       1.0  0.07060  0.33800  0.83700  1.0000
  S   S11       1.0  0.26800  0.92900  0.83700  1.0000
  S   S12       1.0  0.66200  0.73200  0.83700  1.0000
  S   S13       1.0  0.26800  0.33800  0.83700  1.0000
  S   S14       1.0  0.07060  0.73200  0.83700  1.0000
  S   S15       1.0  0.66200  0.92900  0.83700  1.0000
  S   S16       1.0  0.40700  0.20300  0.91100  1.0000
  S   S17       1.0  0.79700  0.20300  0.91100  1.0000
  S   S18       1.0  0.79700  0.59300  0.91100  1.0000
