data_image0
_chemical_formula_structural       B16Ca8Mg8O40
_chemical_formula_sum              "B16 Ca8 Mg8 O40"
_cell_length_a       12.2951
_cell_length_b       5.45846
_cell_length_c       10.9856
_cell_angle_alpha    90
_cell_angle_beta     90
_cell_angle_gamma    78.5687

_space_group_name_H-M_alt    "P 1"
_space_group_IT_number       1

loop_
  _space_group_symop_operation_xyz
  'x, y, z'

loop_
  _atom_site_type_symbol
  _atom_site_label
  _atom_site_symmetry_multiplicity
  _atom_site_fract_x
  _atom_site_fract_y
  _atom_site_fract_z
  _atom_site_occupancy
  B   B1        1.0  0.82700  0.71200  0.11700  1.0000
  B   B2        1.0  0.48900  0.35200  0.12000  1.0000
  B   B3        1.0  0.99100  0.37300  0.12400  1.0000
  B   B4        1.0  0.32600  0.70200  0.12500  1.0000
  B   B5        1.0  0.32600  0.20200  0.37500  1.0000
  B   B6        1.0  0.99100  0.87300  0.37600  1.0000
  B   B7        1.0  0.48900  0.85200  0.38000  1.0000
  B   B8        1.0  0.82700  0.21200  0.38300  1.0000
  B   B9        1.0  0.17300  0.78800  0.61700  1.0000
  B   B10       1.0  0.51100  0.14800  0.62000  1.0000
  B   B11       1.0  0.00882  0.12700  0.62400  1.0000
  B   B12       1.0  0.67400  0.79800  0.62500  1.0000
  B   B13       1.0  0.67400  0.29800  0.87500  1.0000
  B   B14       1.0  0.00882  0.62700  0.87600  1.0000
  B   B15       1.0  0.51100  0.64800  0.88000  1.0000
  B   B16       1.0  0.17300  0.28800  0.88300  1.0000
  Ca  Ca1       1.0  0.09340  0.87000  0.11800  1.0000
  Ca  Ca2       1.0  0.59100  0.84600  0.12700  1.0000
  Ca  Ca3       1.0  0.59100  0.34600  0.37300  1.0000
  Ca  Ca4       1.0  0.09340  0.37000  0.38200  1.0000
  Ca  Ca5       1.0  0.90700  0.63000  0.61800  1.0000
  Ca  Ca6       1.0  0.40900  0.65400  0.62700  1.0000
  Ca  Ca7       1.0  0.40900  0.15400  0.87300  1.0000
  Ca  Ca8       1.0  0.90700  0.13000  0.88200  1.0000
  Mg  Mg1       1.0  0.26300  0.24800  0.12800  1.0000
  Mg  Mg2       1.0  0.76400  0.24600  0.12800  1.0000
  Mg  Mg3       1.0  0.76400  0.74600  0.37200  1.0000
  Mg  Mg4       1.0  0.26300  0.74800  0.37200  1.0000
  Mg  Mg5       1.0  0.73700  0.25200  0.62800  1.0000
  Mg  Mg6       1.0  0.23600  0.25400  0.62800  1.0000
  Mg  Mg7       1.0  0.23600  0.75400  0.87200  1.0000
  Mg  Mg8       1.0  0.73700  0.75200  0.87200  1.0000
  O   O1        1.0  0.77300  0.90000  0.04340  1.0000
  O   O2        1.0  0.26000  0.59500  0.04850  1.0000
  O   O3        1.0  0.43000  0.18100  0.08290  1.0000
  O   O4        1.0  0.93300  0.19500  0.09450  1.0000
  O   O5        1.0  0.94300  0.63200  0.11000  1.0000
  O   O6        1.0  0.44200  0.61200  0.12900  1.0000
  O   O7        1.0  0.59700  0.28500  0.15700  1.0000
  O   O8        1.0  0.09640  0.31600  0.16800  1.0000
  O   O9        1.0  0.76900  0.59500  0.19700  1.0000
  O   O10       1.0  0.28100  0.89500  0.19900  1.0000
  O   O11       1.0  0.28100  0.39500  0.30100  1.0000
  O   O12       1.0  0.76900  0.09460  0.30300  1.0000
  O   O13       1.0  0.09640  0.81600  0.33200  1.0000
  O   O14       1.0  0.59700  0.78500  0.34300  1.0000
  O   O15       1.0  0.44200  0.11200  0.37100  1.0000
  O   O16       1.0  0.94300  0.13200  0.39000  1.0000
  O   O17       1.0  0.93300  0.69500  0.40600  1.0000
  O   O18       1.0  0.43000  0.68100  0.41700  1.0000
  O   O19       1.0  0.26000  0.09540  0.45200  1.0000
  O   O20       1.0  0.77300  0.40000  0.45700  1.0000
  O   O21       1.0  0.22700  0.60000  0.54300  1.0000
  O   O22       1.0  0.74000  0.90500  0.54800  1.0000
  O   O23       1.0  0.57000  0.31900  0.58300  1.0000
  O   O24       1.0  0.06730  0.30500  0.59400  1.0000
  O   O25       1.0  0.05670  0.86800  0.61000  1.0000
  O   O26       1.0  0.55800  0.88800  0.62900  1.0000
  O   O27       1.0  0.40300  0.21500  0.65700  1.0000
  O   O28       1.0  0.90400  0.18400  0.66800  1.0000
  O   O29       1.0  0.23100  0.90500  0.69700  1.0000
  O   O30       1.0  0.71900  0.60500  0.69900  1.0000
  O   O31       1.0  0.71900  0.10500  0.80100  1.0000
  O   O32       1.0  0.23100  0.40500  0.80300  1.0000
  O   O33       1.0  0.90400  0.68400  0.83200  1.0000
  O   O34       1.0  0.40300  0.71500  0.84300  1.0000
  O   O35       1.0  0.55800  0.38800  0.87100  1.0000
  O   O36       1.0  0.05670  0.36800  0.89000  1.0000
  O   O37       1.0  0.06730  0.80500  0.90600  1.0000
  O   O38       1.0  0.57000  0.81900  0.91700  1.0000
  O   O39       1.0  0.74000  0.40500  0.95200  1.0000
  O   O40       1.0  0.22700  0.09970  0.95700  1.0000
