data_image0
_chemical_formula_structural       B16Ge4H4K8O38
_chemical_formula_sum              "B16 Ge4 H4 K8 O38"
_cell_length_a       6.76787
_cell_length_b       6.89466
_cell_length_c       19.5686
_cell_angle_alpha    92.9376
_cell_angle_beta     90
_cell_angle_gamma    119.394

_space_group_name_H-M_alt    "P 1"
_space_group_IT_number       1

loop_
  _space_group_symop_operation_xyz
  'x, y, z'

loop_
  _atom_site_type_symbol
  _atom_site_label
  _atom_site_symmetry_multiplicity
  _atom_site_fract_x
  _atom_site_fract_y
  _atom_site_fract_z
  _atom_site_occupancy
  B   B1        1.0  0.15700  0.23900  0.02590  1.0000
  B   B2        1.0  0.40400  0.21100  0.11400  1.0000
  B   B3        1.0  0.12200  0.30400  0.14800  1.0000
  B   B4        1.0  0.52700  0.59200  0.15100  1.0000
  B   B5        1.0  0.93400  0.40800  0.34900  1.0000
  B   B6        1.0  0.81800  0.69600  0.35200  1.0000
  B   B7        1.0  0.19200  0.78900  0.38600  1.0000
  B   B8        1.0  0.91800  0.76100  0.47400  1.0000
  B   B9        1.0  0.08210  0.23900  0.52600  1.0000
  B   B10       1.0  0.80800  0.21100  0.61400  1.0000
  B   B11       1.0  0.18200  0.30400  0.64800  1.0000
  B   B12       1.0  0.06560  0.59200  0.65100  1.0000
  B   B13       1.0  0.47300  0.40800  0.84900  1.0000
  B   B14       1.0  0.87800  0.69600  0.85200  1.0000
  B   B15       1.0  0.59600  0.78900  0.88600  1.0000
  B   B16       1.0  0.84300  0.76100  0.97400  1.0000
  Ge  Ge1       1.0  0.66800  0.04960  0.17400  1.0000
  Ge  Ge2       1.0  0.61800  0.95000  0.32600  1.0000
  Ge  Ge3       1.0  0.38200  0.04960  0.67400  1.0000
  Ge  Ge4       1.0  0.33200  0.95000  0.82600  1.0000
  H   H1        1.0  0.83600  0.79500  0.07750  1.0000
  H   H2        1.0  0.04060  0.20500  0.42300  1.0000
  H   H3        1.0  0.95900  0.79500  0.57700  1.0000
  H   H4        1.0  0.16400  0.20500  0.92300  1.0000
  K   K1        1.0  0.27800  0.72400  0.01260  1.0000
  K   K2        1.0  0.03720  0.72200  0.20200  1.0000
  K   K3        1.0  0.31500  0.27800  0.29800  1.0000
  K   K4        1.0  0.55500  0.27600  0.48700  1.0000
  K   K5        1.0  0.44500  0.72400  0.51300  1.0000
  K   K6        1.0  0.68500  0.72200  0.70200  1.0000
  K   K7        1.0  0.96300  0.27800  0.79800  1.0000
  K   K8        1.0  0.72200  0.27600  0.98700  1.0000
  O   O1        1.0  0.34300  0.22000  0.04000  1.0000
  O   O2        1.0  0.91500  0.76100  0.04030  1.0000
  O   O3        1.0  0.03620  0.28100  0.07560  1.0000
  O   O4        1.0  0.49000  0.05300  0.11000  1.0000
  O   O5        1.0  0.59300  0.43700  0.13800  1.0000
  O   O6        1.0  0.70100  0.81400  0.15000  1.0000
  O   O7        1.0  0.21100  0.15200  0.15700  1.0000
  O   O8        1.0  0.30700  0.54300  0.16100  1.0000
  O   O9        1.0  0.94000  0.27100  0.19500  1.0000
  O   O10       1.0  0.50900  0.00000  0.25000  1.0000
  O   O11       1.0  0.66900  0.72900  0.30500  1.0000
  O   O12       1.0  0.76400  0.45700  0.33900  1.0000
  O   O13       1.0  0.05860  0.84800  0.34300  1.0000
  O   O14       1.0  0.88700  0.18600  0.35000  1.0000
  O   O15       1.0  0.15600  0.56300  0.36200  1.0000
  O   O16       1.0  0.43700  0.94700  0.39000  1.0000
  O   O17       1.0  0.75600  0.71900  0.42400  1.0000
  O   O18       1.0  0.15400  0.23900  0.46000  1.0000
  O   O19       1.0  0.12300  0.78000  0.46000  1.0000
  O   O20       1.0  0.87700  0.22000  0.54000  1.0000
  O   O21       1.0  0.84600  0.76100  0.54000  1.0000
  O   O22       1.0  0.24400  0.28100  0.57600  1.0000
  O   O23       1.0  0.56300  0.05300  0.61000  1.0000
  O   O24       1.0  0.84400  0.43700  0.63800  1.0000
  O   O25       1.0  0.11300  0.81400  0.65000  1.0000
  O   O26       1.0  0.94100  0.15200  0.65700  1.0000
  O   O27       1.0  0.23600  0.54300  0.66100  1.0000
  O   O28       1.0  0.33100  0.27100  0.69500  1.0000
  O   O29       1.0  0.49100  0.00000  0.75000  1.0000
  O   O30       1.0  0.06000  0.72900  0.80500  1.0000
  O   O31       1.0  0.69300  0.45700  0.83900  1.0000
  O   O32       1.0  0.78900  0.84800  0.84300  1.0000
  O   O33       1.0  0.29900  0.18600  0.85000  1.0000
  O   O34       1.0  0.40700  0.56300  0.86200  1.0000
  O   O35       1.0  0.51000  0.94700  0.89000  1.0000
  O   O36       1.0  0.96400  0.71900  0.92400  1.0000
  O   O37       1.0  0.08490  0.23900  0.96000  1.0000
  O   O38       1.0  0.65700  0.78000  0.96000  1.0000
