data_image0
_chemical_formula_structural       F40K20Li8Pr4
_chemical_formula_sum              "F40 K20 Li8 Pr4"
_cell_length_a       18.6887
_cell_length_b       7.44806
_cell_length_c       6.41783
_cell_angle_alpha    90
_cell_angle_beta     90
_cell_angle_gamma    90

_space_group_name_H-M_alt    "P 1"
_space_group_IT_number       1

loop_
  _space_group_symop_operation_xyz
  'x, y, z'

loop_
  _atom_site_type_symbol
  _atom_site_label
  _atom_site_symmetry_multiplicity
  _atom_site_fract_x
  _atom_site_fract_y
  _atom_site_fract_z
  _atom_site_occupancy
  F   F1        1.0  0.00788  0.25000  0.04070  1.0000
  F   F2        1.0  0.49200  0.75000  0.54100  1.0000
  F   F3        1.0  0.50800  0.25000  0.45900  1.0000
  F   F4        1.0  0.99200  0.75000  0.95900  1.0000
  F   F5        1.0  0.01030  0.25000  0.48100  1.0000
  F   F6        1.0  0.49000  0.75000  0.98100  1.0000
  F   F7        1.0  0.51000  0.25000  0.01930  1.0000
  F   F8        1.0  0.99000  0.75000  0.51900  1.0000
  F   F9        1.0  0.09040  0.95900  0.16400  1.0000
  F   F10       1.0  0.41000  0.04090  0.66400  1.0000
  F   F11       1.0  0.59000  0.54100  0.33600  1.0000
  F   F12       1.0  0.91000  0.45900  0.83600  1.0000
  F   F13       1.0  0.91000  0.04090  0.83600  1.0000
  F   F14       1.0  0.59000  0.95900  0.33600  1.0000
  F   F15       1.0  0.41000  0.45900  0.66400  1.0000
  F   F16       1.0  0.09040  0.54100  0.16400  1.0000
  F   F17       1.0  0.15400  0.06500  0.52600  1.0000
  F   F18       1.0  0.34600  0.93500  0.02570  1.0000
  F   F19       1.0  0.65400  0.43500  0.97400  1.0000
  F   F20       1.0  0.84600  0.56500  0.47400  1.0000
  F   F21       1.0  0.84600  0.93500  0.47400  1.0000
  F   F22       1.0  0.65400  0.06500  0.97400  1.0000
  F   F23       1.0  0.34600  0.56500  0.02570  1.0000
  F   F24       1.0  0.15400  0.43500  0.52600  1.0000
  F   F25       1.0  0.23000  0.25000  0.17900  1.0000
  F   F26       1.0  0.27000  0.75000  0.67900  1.0000
  F   F27       1.0  0.73000  0.25000  0.32100  1.0000
  F   F28       1.0  0.77000  0.75000  0.82100  1.0000
  F   F29       1.0  0.37200  0.25000  0.31500  1.0000
  F   F30       1.0  0.12800  0.75000  0.81500  1.0000
  F   F31       1.0  0.87200  0.25000  0.18500  1.0000
  F   F32       1.0  0.62800  0.75000  0.68500  1.0000
  F   F33       1.0  0.77500  0.25000  0.79800  1.0000
  F   F34       1.0  0.72500  0.75000  0.29800  1.0000
  F   F35       1.0  0.27500  0.25000  0.70200  1.0000
  F   F36       1.0  0.22500  0.75000  0.20200  1.0000
  F   F37       1.0  0.63200  0.25000  0.60600  1.0000
  F   F38       1.0  0.86800  0.75000  0.10600  1.0000
  F   F39       1.0  0.13200  0.25000  0.89400  1.0000
  F   F40       1.0  0.36800  0.75000  0.39400  1.0000
  K   K1        1.0  0.37000  0.25000  0.95000  1.0000
  K   K2        1.0  0.13000  0.75000  0.45000  1.0000
  K   K3        1.0  0.87000  0.25000  0.55000  1.0000
  K   K4        1.0  0.63000  0.75000  0.05030  1.0000
  K   K5        1.0  0.28300  0.01920  0.41900  1.0000
  K   K6        1.0  0.21700  0.98100  0.91900  1.0000
  K   K7        1.0  0.78300  0.48100  0.08120  1.0000
  K   K8        1.0  0.71700  0.51900  0.58100  1.0000
  K   K9        1.0  0.71700  0.98100  0.58100  1.0000
  K   K10       1.0  0.78300  0.01920  0.08120  1.0000
  K   K11       1.0  0.21700  0.51900  0.91900  1.0000
  K   K12       1.0  0.28300  0.48100  0.41900  1.0000
  K   K13       1.0  0.45600  0.98100  0.25600  1.0000
  K   K14       1.0  0.04370  0.01900  0.75600  1.0000
  K   K15       1.0  0.95600  0.51900  0.24400  1.0000
  K   K16       1.0  0.54400  0.48100  0.74400  1.0000
  K   K17       1.0  0.54400  0.01900  0.74400  1.0000
  K   K18       1.0  0.95600  0.98100  0.24400  1.0000
  K   K19       1.0  0.04370  0.48100  0.75600  1.0000
  K   K20       1.0  0.45600  0.51900  0.25600  1.0000
  Li  Li1       1.0  0.91800  0.25000  0.95500  1.0000
  Li  Li2       1.0  0.58200  0.75000  0.45500  1.0000
  Li  Li3       1.0  0.41800  0.25000  0.54500  1.0000
  Li  Li4       1.0  0.08250  0.75000  0.04500  1.0000
  Li  Li5       1.0  0.68300  0.25000  0.83100  1.0000
  Li  Li6       1.0  0.81700  0.75000  0.33100  1.0000
  Li  Li7       1.0  0.18300  0.25000  0.66900  1.0000
  Li  Li8       1.0  0.31700  0.75000  0.16900  1.0000
  Pr  Pr1       1.0  0.11000  0.25000  0.25400  1.0000
  Pr  Pr2       1.0  0.39000  0.75000  0.75400  1.0000
  Pr  Pr3       1.0  0.61000  0.25000  0.24600  1.0000
  Pr  Pr4       1.0  0.89000  0.75000  0.74600  1.0000
