data_image0
_chemical_formula_structural       O48Re12Tl12
_chemical_formula_sum              "O48 Re12 Tl12"
_cell_length_a       5.57397
_cell_length_b       17.2172
_cell_length_c       13.1679
_cell_angle_alpha    90
_cell_angle_beta     90
_cell_angle_gamma    89.7818

_space_group_name_H-M_alt    "P 1"
_space_group_IT_number       1

loop_
  _space_group_symop_operation_xyz
  'x, y, z'

loop_
  _atom_site_type_symbol
  _atom_site_label
  _atom_site_symmetry_multiplicity
  _atom_site_fract_x
  _atom_site_fract_y
  _atom_site_fract_z
  _atom_site_occupancy
  O   O1        1.0  0.37200  0.41900  0.00063  1.0000
  O   O2        1.0  0.73800  0.78000  0.03830  1.0000
  O   O3        1.0  0.27300  0.04330  0.04670  1.0000
  O   O4        1.0  0.72200  0.12500  0.05390  1.0000
  O   O5        1.0  0.26800  0.71200  0.05630  1.0000
  O   O6        1.0  0.84400  0.42400  0.09040  1.0000
  O   O7        1.0  0.47900  0.32700  0.17600  1.0000
  O   O8        1.0  0.43900  0.49300  0.19300  1.0000
  O   O9        1.0  0.42000  0.83000  0.19500  1.0000
  O   O10       1.0  0.61800  0.00689  0.20000  1.0000
  O   O11       1.0  0.63600  0.67800  0.20300  1.0000
  O   O12       1.0  0.36100  0.15300  0.20500  1.0000
  O   O13       1.0  0.86100  0.15300  0.29500  1.0000
  O   O14       1.0  0.13600  0.67800  0.29700  1.0000
  O   O15       1.0  0.11800  0.00689  0.30000  1.0000
  O   O16       1.0  0.92000  0.83000  0.30500  1.0000
  O   O17       1.0  0.93900  0.49300  0.30700  1.0000
  O   O18       1.0  0.97900  0.32700  0.32400  1.0000
  O   O19       1.0  0.34400  0.42400  0.41000  1.0000
  O   O20       1.0  0.76800  0.71200  0.44400  1.0000
  O   O21       1.0  0.22200  0.12500  0.44600  1.0000
  O   O22       1.0  0.77300  0.04330  0.45300  1.0000
  O   O23       1.0  0.23800  0.78000  0.46200  1.0000
  O   O24       1.0  0.87200  0.41900  0.49900  1.0000
  O   O25       1.0  0.12800  0.58100  0.50100  1.0000
  O   O26       1.0  0.76200  0.22000  0.53800  1.0000
  O   O27       1.0  0.22700  0.95700  0.54700  1.0000
  O   O28       1.0  0.77800  0.87500  0.55400  1.0000
  O   O29       1.0  0.23200  0.28800  0.55600  1.0000
  O   O30       1.0  0.65600  0.57600  0.59000  1.0000
  O   O31       1.0  0.02120  0.67300  0.67600  1.0000
  O   O32       1.0  0.06070  0.50700  0.69300  1.0000
  O   O33       1.0  0.07950  0.17000  0.69500  1.0000
  O   O34       1.0  0.88200  0.99300  0.70000  1.0000
  O   O35       1.0  0.86400  0.32200  0.70300  1.0000
  O   O36       1.0  0.13900  0.84700  0.70500  1.0000
  O   O37       1.0  0.63900  0.84700  0.79500  1.0000
  O   O38       1.0  0.36400  0.32200  0.79700  1.0000
  O   O39       1.0  0.38200  0.99300  0.80000  1.0000
  O   O40       1.0  0.58000  0.17000  0.80500  1.0000
  O   O41       1.0  0.56100  0.50700  0.80700  1.0000
  O   O42       1.0  0.52100  0.67300  0.82400  1.0000
  O   O43       1.0  0.15600  0.57600  0.91000  1.0000
  O   O44       1.0  0.73200  0.28800  0.94400  1.0000
  O   O45       1.0  0.27800  0.87500  0.94600  1.0000
  O   O46       1.0  0.72700  0.95700  0.95300  1.0000
  O   O47       1.0  0.26200  0.22000  0.96200  1.0000
  O   O48       1.0  0.62800  0.58100  0.99900  1.0000
  Re  Re1       1.0  0.53400  0.41600  0.11500  1.0000
  Re  Re2       1.0  0.51400  0.75000  0.12300  1.0000
  Re  Re3       1.0  0.49500  0.08230  0.12700  1.0000
  Re  Re4       1.0  0.99500  0.08230  0.37300  1.0000
  Re  Re5       1.0  0.01450  0.75000  0.37700  1.0000
  Re  Re6       1.0  0.03410  0.41600  0.38500  1.0000
  Re  Re7       1.0  0.96600  0.58400  0.61500  1.0000
  Re  Re8       1.0  0.98600  0.25000  0.62300  1.0000
  Re  Re9       1.0  0.00530  0.91800  0.62700  1.0000
  Re  Re10      1.0  0.50500  0.91800  0.87300  1.0000
  Re  Re11      1.0  0.48600  0.25000  0.87700  1.0000
  Re  Re12      1.0  0.46600  0.58400  0.88500  1.0000
  Tl  Tl1       1.0  0.00603  0.91400  0.12400  1.0000
  Tl  Tl2       1.0  0.02570  0.58000  0.12900  1.0000
  Tl  Tl3       1.0  0.99000  0.25500  0.13100  1.0000
  Tl  Tl4       1.0  0.49000  0.25500  0.36900  1.0000
  Tl  Tl5       1.0  0.52600  0.58000  0.37100  1.0000
  Tl  Tl6       1.0  0.50600  0.91400  0.37600  1.0000
  Tl  Tl7       1.0  0.49400  0.08610  0.62400  1.0000
  Tl  Tl8       1.0  0.47400  0.42000  0.62900  1.0000
  Tl  Tl9       1.0  0.51000  0.74500  0.63100  1.0000
  Tl  Tl10      1.0  0.00962  0.74500  0.86900  1.0000
  Tl  Tl11      1.0  0.97400  0.42000  0.87100  1.0000
  Tl  Tl12      1.0  0.99400  0.08610  0.87600  1.0000
