data_image0
_chemical_formula_structural       Na4Nd4O48P16
_chemical_formula_sum              "Na4 Nd4 O48 P16"
_cell_length_a       9.79829
_cell_length_b       13.0139
_cell_length_c       7.15021
_cell_angle_alpha    90
_cell_angle_beta     90.6915
_cell_angle_gamma    89.9997

_space_group_name_H-M_alt    "P 1"
_space_group_IT_number       1

loop_
  _space_group_symop_operation_xyz
  'x, y, z'

loop_
  _atom_site_type_symbol
  _atom_site_label
  _atom_site_symmetry_multiplicity
  _atom_site_fract_x
  _atom_site_fract_y
  _atom_site_fract_z
  _atom_site_occupancy
  Na  Na1       1.0  0.56600  0.72100  0.00080  1.0000
  Na  Na2       1.0  0.93400  0.22100  0.49900  1.0000
  Na  Na3       1.0  0.06560  0.77900  0.50100  1.0000
  Na  Na4       1.0  0.43400  0.27900  0.99900  1.0000
  Nd  Nd1       1.0  0.97600  0.78500  0.01410  1.0000
  Nd  Nd2       1.0  0.52400  0.28500  0.48600  1.0000
  Nd  Nd3       1.0  0.47600  0.71500  0.51400  1.0000
  Nd  Nd4       1.0  0.02380  0.21500  0.98600  1.0000
  O   O1        1.0  0.21500  0.10600  0.06120  1.0000
  O   O2        1.0  0.66500  0.12600  0.07380  1.0000
  O   O3        1.0  0.79200  0.66600  0.08700  1.0000
  O   O4        1.0  0.29100  0.57900  0.09330  1.0000
  O   O5        1.0  0.84600  0.30700  0.13500  1.0000
  O   O6        1.0  0.15900  0.87000  0.18600  1.0000
  O   O7        1.0  0.59700  0.35700  0.19100  1.0000
  O   O8        1.0  0.79600  0.48600  0.21400  1.0000
  O   O9        1.0  0.39800  0.78500  0.21500  1.0000
  O   O10       1.0  0.90700  0.10300  0.21600  1.0000
  O   O11       1.0  0.37600  0.97700  0.21900  1.0000
  O   O12       1.0  0.07950  0.66300  0.24000  1.0000
  O   O13       1.0  0.42100  0.16300  0.26000  1.0000
  O   O14       1.0  0.12400  0.47700  0.28100  1.0000
  O   O15       1.0  0.59300  0.60300  0.28400  1.0000
  O   O16       1.0  0.10200  0.28500  0.28500  1.0000
  O   O17       1.0  0.70400  0.98600  0.28600  1.0000
  O   O18       1.0  0.90300  0.85700  0.30900  1.0000
  O   O19       1.0  0.34100  0.37000  0.31400  1.0000
  O   O20       1.0  0.65400  0.80700  0.36500  1.0000
  O   O21       1.0  0.20900  0.07930  0.40700  1.0000
  O   O22       1.0  0.70800  0.16600  0.41300  1.0000
  O   O23       1.0  0.83500  0.62600  0.42600  1.0000
  O   O24       1.0  0.28500  0.60600  0.43900  1.0000
  O   O25       1.0  0.71500  0.39400  0.56100  1.0000
  O   O26       1.0  0.16500  0.37400  0.57400  1.0000
  O   O27       1.0  0.29200  0.83400  0.58700  1.0000
  O   O28       1.0  0.79100  0.92100  0.59300  1.0000
  O   O29       1.0  0.34600  0.19300  0.63500  1.0000
  O   O30       1.0  0.65900  0.63000  0.68600  1.0000
  O   O31       1.0  0.09720  0.14300  0.69100  1.0000
  O   O32       1.0  0.29600  0.01450  0.71400  1.0000
  O   O33       1.0  0.89800  0.71500  0.71500  1.0000
  O   O34       1.0  0.40700  0.39700  0.71600  1.0000
  O   O35       1.0  0.87600  0.52300  0.71900  1.0000
  O   O36       1.0  0.57900  0.83700  0.74000  1.0000
  O   O37       1.0  0.92100  0.33700  0.76000  1.0000
  O   O38       1.0  0.62400  0.02320  0.78100  1.0000
  O   O39       1.0  0.09280  0.89700  0.78400  1.0000
  O   O40       1.0  0.60200  0.21500  0.78500  1.0000
  O   O41       1.0  0.20400  0.51400  0.78600  1.0000
  O   O42       1.0  0.40300  0.64300  0.80900  1.0000
  O   O43       1.0  0.84100  0.13000  0.81400  1.0000
  O   O44       1.0  0.15400  0.69300  0.86500  1.0000
  O   O45       1.0  0.70900  0.42100  0.90700  1.0000
  O   O46       1.0  0.20800  0.33400  0.91300  1.0000
  O   O47       1.0  0.33500  0.87400  0.92600  1.0000
  O   O48       1.0  0.78500  0.89400  0.93900  1.0000
  P   P1        1.0  0.73500  0.38500  0.11900  1.0000
  P   P2        1.0  0.30900  0.87100  0.14700  1.0000
  P   P3        1.0  0.30600  0.08900  0.22800  1.0000
  P   P4        1.0  0.74300  0.60000  0.24600  1.0000
  P   P5        1.0  0.75700  0.10000  0.25400  1.0000
  P   P6        1.0  0.19400  0.58900  0.27200  1.0000
  P   P7        1.0  0.19100  0.37100  0.35300  1.0000
  P   P8        1.0  0.76500  0.88500  0.38100  1.0000
  P   P9        1.0  0.23500  0.11500  0.61900  1.0000
  P   P10       1.0  0.80900  0.62900  0.64700  1.0000
  P   P11       1.0  0.80600  0.41100  0.72800  1.0000
  P   P12       1.0  0.24300  0.90000  0.74600  1.0000
  P   P13       1.0  0.25700  0.40000  0.75400  1.0000
  P   P14       1.0  0.69400  0.91100  0.77200  1.0000
  P   P15       1.0  0.69100  0.12900  0.85300  1.0000
  P   P16       1.0  0.26500  0.61500  0.88100  1.0000
