data_image0
_chemical_formula_structural       C12Cl12H36N8Si4
_chemical_formula_sum              "C12 Cl12 H36 N8 Si4"
_cell_length_a       7.4488
_cell_length_b       11.4221
_cell_length_c       10.6559
_cell_angle_alpha    90
_cell_angle_beta     105.084
_cell_angle_gamma    90

_space_group_name_H-M_alt    "P 1"
_space_group_IT_number       1

loop_
  _space_group_symop_operation_xyz
  'x, y, z'

loop_
  _atom_site_type_symbol
  _atom_site_label
  _atom_site_symmetry_multiplicity
  _atom_site_fract_x
  _atom_site_fract_y
  _atom_site_fract_z
  _atom_site_occupancy
  C   C1        1.0  0.97100  0.88200  0.09920  1.0000
  C   C2        1.0  0.80400  0.34700  0.11900  1.0000
  C   C3        1.0  0.85900  0.16600  0.24500  1.0000
  C   C4        1.0  0.14100  0.66600  0.25500  1.0000
  C   C5        1.0  0.19600  0.84700  0.38100  1.0000
  C   C6        1.0  0.02860  0.38200  0.40100  1.0000
  C   C7        1.0  0.97100  0.61800  0.59900  1.0000
  C   C8        1.0  0.80400  0.15300  0.61900  1.0000
  C   C9        1.0  0.85900  0.33400  0.74500  1.0000
  C   C10       1.0  0.14100  0.83400  0.75500  1.0000
  C   C11       1.0  0.19600  0.65300  0.88100  1.0000
  C   C12       1.0  0.02860  0.11800  0.90100  1.0000
  Cl  Cl1       1.0  0.28400  0.37600  0.07740  1.0000
  Cl  Cl2       1.0  0.51100  0.88400  0.10800  1.0000
  Cl  Cl3       1.0  0.35900  0.13200  0.24500  1.0000
  Cl  Cl4       1.0  0.64100  0.63200  0.25500  1.0000
  Cl  Cl5       1.0  0.48900  0.38400  0.39200  1.0000
  Cl  Cl6       1.0  0.71600  0.87600  0.42300  1.0000
  Cl  Cl7       1.0  0.28400  0.12400  0.57700  1.0000
  Cl  Cl8       1.0  0.51100  0.61600  0.60800  1.0000
  Cl  Cl9       1.0  0.35900  0.36800  0.74500  1.0000
  Cl  Cl10      1.0  0.64100  0.86800  0.75500  1.0000
  Cl  Cl11      1.0  0.48900  0.11600  0.89200  1.0000
  Cl  Cl12      1.0  0.71600  0.62400  0.92300  1.0000
  H   H1        1.0  0.84600  0.92300  0.03760  1.0000
  H   H2        1.0  0.71200  0.29900  0.03800  1.0000
  H   H3        1.0  0.02450  0.82000  0.03830  1.0000
  H   H4        1.0  0.87500  0.41600  0.07880  1.0000
  H   H5        1.0  0.07490  0.95100  0.13500  1.0000
  H   H6        1.0  0.76700  0.11900  0.16300  1.0000
  H   H7        1.0  0.71700  0.38700  0.17700  1.0000
  H   H8        1.0  0.22400  0.69400  0.18800  1.0000
  H   H9        1.0  0.03050  0.60700  0.20300  1.0000
  H   H10       1.0  0.96900  0.10700  0.29700  1.0000
  H   H11       1.0  0.77600  0.19400  0.31200  1.0000
  H   H12       1.0  0.28300  0.88700  0.32300  1.0000
  H   H13       1.0  0.23300  0.61900  0.33700  1.0000
  H   H14       1.0  0.92500  0.45100  0.36500  1.0000
  H   H15       1.0  0.12500  0.91600  0.42100  1.0000
  H   H16       1.0  0.97600  0.32000  0.46200  1.0000
  H   H17       1.0  0.28800  0.79900  0.46200  1.0000
  H   H18       1.0  0.15400  0.42300  0.46200  1.0000
  H   H19       1.0  0.84600  0.57700  0.53800  1.0000
  H   H20       1.0  0.71200  0.20100  0.53800  1.0000
  H   H21       1.0  0.02450  0.68000  0.53800  1.0000
  H   H22       1.0  0.87500  0.08380  0.57900  1.0000
  H   H23       1.0  0.07490  0.54900  0.63500  1.0000
  H   H24       1.0  0.76700  0.38100  0.66300  1.0000
  H   H25       1.0  0.71700  0.11300  0.67700  1.0000
  H   H26       1.0  0.22400  0.80600  0.68800  1.0000
  H   H27       1.0  0.03050  0.89300  0.70300  1.0000
  H   H28       1.0  0.96900  0.39300  0.79700  1.0000
  H   H29       1.0  0.77600  0.30600  0.81200  1.0000
  H   H30       1.0  0.28300  0.61300  0.82300  1.0000
  H   H31       1.0  0.23300  0.88100  0.83700  1.0000
  H   H32       1.0  0.92500  0.04860  0.86500  1.0000
  H   H33       1.0  0.12500  0.58400  0.92100  1.0000
  H   H34       1.0  0.97600  0.18000  0.96200  1.0000
  H   H35       1.0  0.28800  0.70100  0.96200  1.0000
  H   H36       1.0  0.15400  0.07730  0.96200  1.0000
  N   N1        1.0  0.94300  0.26500  0.19400  1.0000
  N   N2        1.0  0.92100  0.82400  0.20600  1.0000
  N   N3        1.0  0.07930  0.32400  0.29400  1.0000
  N   N4        1.0  0.05720  0.76500  0.30600  1.0000
  N   N5        1.0  0.94300  0.23500  0.69400  1.0000
  N   N6        1.0  0.92100  0.67600  0.70600  1.0000
  N   N7        1.0  0.07930  0.17600  0.79400  1.0000
  N   N8        1.0  0.05720  0.73500  0.80600  1.0000
  Si  Si1       1.0  0.71900  0.80400  0.24600  1.0000
  Si  Si2       1.0  0.28100  0.30400  0.25400  1.0000
  Si  Si3       1.0  0.71900  0.69600  0.74600  1.0000
  Si  Si4       1.0  0.28100  0.19600  0.75400  1.0000
