data_image0
_chemical_formula_structural       O48P8W4Zr8
_chemical_formula_sum              "O48 P8 W4 Zr8"
_cell_length_a       9.39399
_cell_length_b       12.215
_cell_length_c       9.18455
_cell_angle_alpha    90
_cell_angle_beta     90
_cell_angle_gamma    90

_space_group_name_H-M_alt    "P 1"
_space_group_IT_number       1

loop_
  _space_group_symop_operation_xyz
  'x, y, z'

loop_
  _atom_site_type_symbol
  _atom_site_label
  _atom_site_symmetry_multiplicity
  _atom_site_fract_x
  _atom_site_fract_y
  _atom_site_fract_z
  _atom_site_occupancy
  O   O1        1.0  0.92700  0.34300  0.04830  1.0000
  O   O2        1.0  0.57300  0.65700  0.04830  1.0000
  O   O3        1.0  0.65900  0.09610  0.06910  1.0000
  O   O4        1.0  0.84100  0.90400  0.06910  1.0000
  O   O5        1.0  0.24500  0.31300  0.14400  1.0000
  O   O6        1.0  0.25500  0.68700  0.14400  1.0000
  O   O7        1.0  0.37400  0.07240  0.15600  1.0000
  O   O8        1.0  0.12600  0.92800  0.15600  1.0000
  O   O9        1.0  0.40600  0.47700  0.16000  1.0000
  O   O10       1.0  0.09380  0.52300  0.16000  1.0000
  O   O11       1.0  0.50600  0.29100  0.20300  1.0000
  O   O12       1.0  0.99400  0.70900  0.20300  1.0000
  O   O13       1.0  0.00588  0.20900  0.29700  1.0000
  O   O14       1.0  0.49400  0.79100  0.29700  1.0000
  O   O15       1.0  0.90600  0.02260  0.34000  1.0000
  O   O16       1.0  0.59400  0.97700  0.34000  1.0000
  O   O17       1.0  0.87400  0.42800  0.34400  1.0000
  O   O18       1.0  0.62600  0.57200  0.34400  1.0000
  O   O19       1.0  0.74500  0.18700  0.35600  1.0000
  O   O20       1.0  0.75500  0.81300  0.35600  1.0000
  O   O21       1.0  0.15900  0.40400  0.43100  1.0000
  O   O22       1.0  0.34100  0.59600  0.43100  1.0000
  O   O23       1.0  0.42700  0.15700  0.45200  1.0000
  O   O24       1.0  0.07300  0.84300  0.45200  1.0000
  O   O25       1.0  0.92700  0.15700  0.54800  1.0000
  O   O26       1.0  0.57300  0.84300  0.54800  1.0000
  O   O27       1.0  0.65900  0.40400  0.56900  1.0000
  O   O28       1.0  0.84100  0.59600  0.56900  1.0000
  O   O29       1.0  0.24500  0.18700  0.64400  1.0000
  O   O30       1.0  0.25500  0.81300  0.64400  1.0000
  O   O31       1.0  0.37400  0.42800  0.65600  1.0000
  O   O32       1.0  0.12600  0.57200  0.65600  1.0000
  O   O33       1.0  0.40600  0.02260  0.66000  1.0000
  O   O34       1.0  0.09380  0.97700  0.66000  1.0000
  O   O35       1.0  0.50600  0.20900  0.70300  1.0000
  O   O36       1.0  0.99400  0.79100  0.70300  1.0000
  O   O37       1.0  0.00588  0.29100  0.79700  1.0000
  O   O38       1.0  0.49400  0.70900  0.79700  1.0000
  O   O39       1.0  0.90600  0.47700  0.84000  1.0000
  O   O40       1.0  0.59400  0.52300  0.84000  1.0000
  O   O41       1.0  0.87400  0.07240  0.84400  1.0000
  O   O42       1.0  0.62600  0.92800  0.84400  1.0000
  O   O43       1.0  0.74500  0.31300  0.85600  1.0000
  O   O44       1.0  0.75500  0.68700  0.85600  1.0000
  O   O45       1.0  0.15900  0.09610  0.93100  1.0000
  O   O46       1.0  0.34100  0.90400  0.93100  1.0000
  O   O47       1.0  0.42700  0.34300  0.95200  1.0000
  O   O48       1.0  0.07300  0.65700  0.95200  1.0000
  P   P1        1.0  0.39600  0.35700  0.11500  1.0000
  P   P2        1.0  0.10400  0.64300  0.11500  1.0000
  P   P3        1.0  0.89600  0.14300  0.38500  1.0000
  P   P4        1.0  0.60400  0.85700  0.38500  1.0000
  P   P5        1.0  0.39600  0.14300  0.61500  1.0000
  P   P6        1.0  0.10400  0.85700  0.61500  1.0000
  P   P7        1.0  0.89600  0.35700  0.88500  1.0000
  P   P8        1.0  0.60400  0.64300  0.88500  1.0000
  W   W1        1.0  0.25000  0.00000  0.04430  1.0000
  W   W2        1.0  0.75000  0.50000  0.45600  1.0000
  W   W3        1.0  0.25000  0.50000  0.54400  1.0000
  W   W4        1.0  0.75000  0.00000  0.95600  1.0000
  Zr  Zr1       1.0  0.05330  0.36400  0.22600  1.0000
  Zr  Zr2       1.0  0.44700  0.63600  0.22600  1.0000
  Zr  Zr3       1.0  0.55300  0.13600  0.27400  1.0000
  Zr  Zr4       1.0  0.94700  0.86400  0.27400  1.0000
  Zr  Zr5       1.0  0.05330  0.13600  0.72600  1.0000
  Zr  Zr6       1.0  0.44700  0.86400  0.72600  1.0000
  Zr  Zr7       1.0  0.55300  0.36400  0.77400  1.0000
  Zr  Zr8       1.0  0.94700  0.63600  0.77400  1.0000
