data_image0
_chemical_formula_structural       Na4O10Si2Ti2
_chemical_formula_sum              "Na4 O10 Si2 Ti2"
_cell_length_a       6.46431
_cell_length_b       6.46431
_cell_length_c       5.07677
_cell_angle_alpha    90
_cell_angle_beta     90
_cell_angle_gamma    90

_space_group_name_H-M_alt    "P 1"
_space_group_IT_number       1

loop_
  _space_group_symop_operation_xyz
  'x, y, z'

loop_
  _atom_site_type_symbol
  _atom_site_label
  _atom_site_symmetry_multiplicity
  _atom_site_fract_x
  _atom_site_fract_y
  _atom_site_fract_z
  _atom_site_occupancy
  Na  Na1       1.0  0.25000  0.25000  0.50000  1.0000
  Na  Na2       1.0  0.75000  0.25000  0.50000  1.0000
  Na  Na3       1.0  0.25000  0.75000  0.50000  1.0000
  Na  Na4       1.0  0.75000  0.75000  0.50000  1.0000
  O   O1        1.0  0.00000  0.20700  0.18700  1.0000
  O   O2        1.0  0.29300  0.50000  0.18700  1.0000
  O   O3        1.0  0.70700  0.50000  0.18700  1.0000
  O   O4        1.0  0.00000  0.79300  0.18700  1.0000
  O   O5        1.0  0.50000  0.00000  0.27900  1.0000
  O   O6        1.0  0.00000  0.50000  0.72100  1.0000
  O   O7        1.0  0.20700  0.00000  0.81300  1.0000
  O   O8        1.0  0.79300  0.00000  0.81300  1.0000
  O   O9        1.0  0.50000  0.29300  0.81300  1.0000
  O   O10       1.0  0.50000  0.70700  0.81300  1.0000
  Si  Si1       1.0  0.00000  0.00000  0.00000  1.0000
  Si  Si2       1.0  0.50000  0.50000  0.00000  1.0000
  Ti  Ti1       1.0  0.00000  0.50000  0.06570  1.0000
  Ti  Ti2       1.0  0.50000  0.00000  0.93400  1.0000
