data_image0
_chemical_formula_structural       Cr4H8O40P12
_chemical_formula_sum              "Cr4 H8 O40 P12"
_cell_length_a       7.21008
_cell_length_b       8.65595
_cell_length_c       11.3392
_cell_angle_alpha    90
_cell_angle_beta     101.67
_cell_angle_gamma    90

_space_group_name_H-M_alt    "P 1"
_space_group_IT_number       1

loop_
  _space_group_symop_operation_xyz
  'x, y, z'

loop_
  _atom_site_type_symbol
  _atom_site_label
  _atom_site_symmetry_multiplicity
  _atom_site_fract_x
  _atom_site_fract_y
  _atom_site_fract_z
  _atom_site_occupancy
  Cr  Cr1       1.0  0.45400  0.07520  0.20700  1.0000
  Cr  Cr2       1.0  0.04630  0.57500  0.29300  1.0000
  Cr  Cr3       1.0  0.95400  0.42500  0.70700  1.0000
  Cr  Cr4       1.0  0.54600  0.92500  0.79300  1.0000
  H   H1        1.0  0.77200  0.64300  0.06860  1.0000
  H   H2        1.0  0.86000  0.33200  0.11000  1.0000
  H   H3        1.0  0.64000  0.83200  0.39000  1.0000
  H   H4        1.0  0.72800  0.14300  0.43100  1.0000
  H   H5        1.0  0.27200  0.85700  0.56900  1.0000
  H   H6        1.0  0.36000  0.16800  0.61000  1.0000
  H   H7        1.0  0.14000  0.66800  0.89000  1.0000
  H   H8        1.0  0.22800  0.35700  0.93100  1.0000
  O   O1        1.0  0.68800  0.58100  0.00380  1.0000
  O   O2        1.0  0.86900  0.26700  0.03950  1.0000
  O   O3        1.0  0.55600  0.15000  0.06720  1.0000
  O   O4        1.0  0.84900  0.98200  0.08510  1.0000
  O   O5        1.0  0.29600  0.91100  0.11600  1.0000
  O   O6        1.0  0.12700  0.50800  0.14800  1.0000
  O   O7        1.0  0.25700  0.23400  0.16500  1.0000
  O   O8        1.0  0.88500  0.72800  0.18500  1.0000
  O   O9        1.0  0.47900  0.47100  0.20100  1.0000
  O   O10       1.0  0.83000  0.42500  0.24600  1.0000
  O   O11       1.0  0.67000  0.92500  0.25400  1.0000
  O   O12       1.0  0.02130  0.97100  0.29900  1.0000
  O   O13       1.0  0.61500  0.22800  0.31500  1.0000
  O   O14       1.0  0.24300  0.73400  0.33500  1.0000
  O   O15       1.0  0.37300  0.00831  0.35200  1.0000
  O   O16       1.0  0.20400  0.41100  0.38400  1.0000
  O   O17       1.0  0.65100  0.48200  0.41500  1.0000
  O   O18       1.0  0.94400  0.65000  0.43300  1.0000
  O   O19       1.0  0.63100  0.76700  0.46100  1.0000
  O   O20       1.0  0.81200  0.08080  0.49600  1.0000
  O   O21       1.0  0.18800  0.91900  0.50400  1.0000
  O   O22       1.0  0.36900  0.23300  0.53900  1.0000
  O   O23       1.0  0.05600  0.35000  0.56700  1.0000
  O   O24       1.0  0.34900  0.51800  0.58500  1.0000
  O   O25       1.0  0.79600  0.58900  0.61600  1.0000
  O   O26       1.0  0.62700  0.99200  0.64800  1.0000
  O   O27       1.0  0.75700  0.26600  0.66500  1.0000
  O   O28       1.0  0.38500  0.77200  0.68500  1.0000
  O   O29       1.0  0.97900  0.02900  0.70100  1.0000
  O   O30       1.0  0.33000  0.07510  0.74600  1.0000
  O   O31       1.0  0.17000  0.57500  0.75400  1.0000
  O   O32       1.0  0.52100  0.52900  0.79900  1.0000
  O   O33       1.0  0.11500  0.27200  0.81500  1.0000
  O   O34       1.0  0.74300  0.76600  0.83500  1.0000
  O   O35       1.0  0.87300  0.49200  0.85200  1.0000
  O   O36       1.0  0.70400  0.08850  0.88400  1.0000
  O   O37       1.0  0.15100  0.01840  0.91500  1.0000
  O   O38       1.0  0.44400  0.85000  0.93300  1.0000
  O   O39       1.0  0.13100  0.73300  0.96100  1.0000
  O   O40       1.0  0.31200  0.41900  0.99600  1.0000
  P   P1        1.0  0.73200  0.12700  0.01580  1.0000
  P   P2        1.0  0.28000  0.40000  0.12700  1.0000
  P   P3        1.0  0.85000  0.89700  0.20800  1.0000
  P   P4        1.0  0.65000  0.39700  0.29200  1.0000
  P   P5        1.0  0.22000  0.90000  0.37300  1.0000
  P   P6        1.0  0.76800  0.62700  0.48400  1.0000
  P   P7        1.0  0.23200  0.37300  0.51600  1.0000
  P   P8        1.0  0.78000  0.10000  0.62700  1.0000
  P   P9        1.0  0.35000  0.60300  0.70800  1.0000
  P   P10       1.0  0.15000  0.10300  0.79200  1.0000
  P   P11       1.0  0.72000  0.60000  0.87300  1.0000
  P   P12       1.0  0.26800  0.87300  0.98400  1.0000
