data_image0
_chemical_formula_structural       Cl30N18O6P12S6
_chemical_formula_sum              "Cl30 N18 O6 P12 S6"
_cell_length_a       10.417
_cell_length_b       10.556
_cell_length_c       16.8387
_cell_angle_alpha    89.245
_cell_angle_beta     73.9856
_cell_angle_gamma    60.7673

_space_group_name_H-M_alt    "P 1"
_space_group_IT_number       1

loop_
  _space_group_symop_operation_xyz
  'x, y, z'

loop_
  _atom_site_type_symbol
  _atom_site_label
  _atom_site_symmetry_multiplicity
  _atom_site_fract_x
  _atom_site_fract_y
  _atom_site_fract_z
  _atom_site_occupancy
  Cl  Cl1       1.0  0.33500  0.34100  0.00818  1.0000
  Cl  Cl2       1.0  0.25100  0.74100  0.01160  1.0000
  Cl  Cl3       1.0  0.99400  0.40500  0.09040  1.0000
  Cl  Cl4       1.0  0.92900  0.08830  0.11300  1.0000
  Cl  Cl5       1.0  0.77100  0.84700  0.15300  1.0000
  Cl  Cl6       1.0  0.49600  0.68700  0.21100  1.0000
  Cl  Cl7       1.0  0.19300  0.02790  0.21200  1.0000
  Cl  Cl8       1.0  0.84600  0.39800  0.30300  1.0000
  Cl  Cl9       1.0  0.36100  0.12800  0.30400  1.0000
  Cl  Cl10      1.0  0.08160  0.59300  0.32900  1.0000
  Cl  Cl11      1.0  0.44500  0.48400  0.33800  1.0000
  Cl  Cl12      1.0  0.84800  0.00869  0.35000  1.0000
  Cl  Cl13      1.0  0.63400  0.79000  0.36400  1.0000
  Cl  Cl14      1.0  0.21300  0.94700  0.45500  1.0000
  Cl  Cl15      1.0  0.95900  0.35200  0.46200  1.0000
  Cl  Cl16      1.0  0.04070  0.64800  0.53800  1.0000
  Cl  Cl17      1.0  0.78700  0.05300  0.54500  1.0000
  Cl  Cl18      1.0  0.36600  0.21000  0.63600  1.0000
  Cl  Cl19      1.0  0.15200  0.99100  0.65000  1.0000
  Cl  Cl20      1.0  0.55500  0.51600  0.66200  1.0000
  Cl  Cl21      1.0  0.91800  0.40700  0.67100  1.0000
  Cl  Cl22      1.0  0.63900  0.87200  0.69600  1.0000
  Cl  Cl23      1.0  0.15400  0.60200  0.69700  1.0000
  Cl  Cl24      1.0  0.80700  0.97200  0.78800  1.0000
  Cl  Cl25      1.0  0.50400  0.31300  0.78900  1.0000
  Cl  Cl26      1.0  0.22900  0.15300  0.84700  1.0000
  Cl  Cl27      1.0  0.07130  0.91200  0.88700  1.0000
  Cl  Cl28      1.0  0.00580  0.59500  0.91000  1.0000
  Cl  Cl29      1.0  0.74900  0.25900  0.98800  1.0000
  Cl  Cl30      1.0  0.66500  0.65900  0.99200  1.0000
  N   N1        1.0  0.47700  0.00971  0.12200  1.0000
  N   N2        1.0  0.60700  0.15600  0.13400  1.0000
  N   N3        1.0  0.10600  0.56600  0.15400  1.0000
  N   N4        1.0  0.65300  0.37400  0.16600  1.0000
  N   N5        1.0  0.22700  0.28600  0.18100  1.0000
  N   N6        1.0  0.35300  0.51000  0.18300  1.0000
  N   N7        1.0  0.71100  0.29900  0.45000  1.0000
  N   N8        1.0  0.54200  0.16700  0.46100  1.0000
  N   N9        1.0  0.63300  0.56900  0.47000  1.0000
  N   N10       1.0  0.36700  0.43100  0.53000  1.0000
  N   N11       1.0  0.45800  0.83300  0.53900  1.0000
  N   N12       1.0  0.28900  0.70100  0.55000  1.0000
  N   N13       1.0  0.64700  0.49000  0.81700  1.0000
  N   N14       1.0  0.77300  0.71400  0.81900  1.0000
  N   N15       1.0  0.34700  0.62600  0.83400  1.0000
  N   N16       1.0  0.89400  0.43400  0.84600  1.0000
  N   N17       1.0  0.39300  0.84400  0.86600  1.0000
  N   N18       1.0  0.52300  0.99000  0.87800  1.0000
  O   O1        1.0  0.71400  0.96100  0.00642  1.0000
  O   O2        1.0  0.12200  0.77200  0.21100  1.0000
  O   O3        1.0  0.26000  0.27300  0.49600  1.0000
  O   O4        1.0  0.74000  0.72700  0.50400  1.0000
  O   O5        1.0  0.87800  0.22800  0.78900  1.0000
  O   O6        1.0  0.28600  0.03930  0.99400  1.0000
  P   P1        1.0  0.71600  0.22700  0.10900  1.0000
  P   P2        1.0  0.17100  0.39800  0.11900  1.0000
  P   P3        1.0  0.32200  0.12300  0.19400  1.0000
  P   P4        1.0  0.48700  0.50100  0.21600  1.0000
  P   P5        1.0  0.77100  0.40800  0.42700  1.0000
  P   P6        1.0  0.70600  0.15400  0.45300  1.0000
  P   P7        1.0  0.29400  0.84600  0.54700  1.0000
  P   P8        1.0  0.22900  0.59200  0.57300  1.0000
  P   P9        1.0  0.51300  0.49900  0.78400  1.0000
  P   P10       1.0  0.67800  0.87700  0.80600  1.0000
  P   P11       1.0  0.82900  0.60200  0.88100  1.0000
  P   P12       1.0  0.28400  0.77300  0.89100  1.0000
  S   S1        1.0  0.63200  0.00944  0.09400  1.0000
  S   S2        1.0  0.17500  0.61700  0.20900  1.0000
  S   S3        1.0  0.62100  0.72100  0.48100  1.0000
  S   S4        1.0  0.37900  0.27900  0.51900  1.0000
  S   S5        1.0  0.82500  0.38300  0.79100  1.0000
  S   S6        1.0  0.36800  0.99100  0.90600  1.0000
