data_image0
_chemical_formula_structural       B8La8Mo8O48
_chemical_formula_sum              "B8 La8 Mo8 O48"
_cell_length_a       10.2236
_cell_length_b       4.14423
_cell_length_c       23.7085
_cell_angle_alpha    90
_cell_angle_beta     114.989
_cell_angle_gamma    90

_space_group_name_H-M_alt    "P 1"
_space_group_IT_number       1

loop_
  _space_group_symop_operation_xyz
  'x, y, z'

loop_
  _atom_site_type_symbol
  _atom_site_label
  _atom_site_symmetry_multiplicity
  _atom_site_fract_x
  _atom_site_fract_y
  _atom_site_fract_z
  _atom_site_occupancy
  B   B1        1.0  0.19300  0.16500  0.09490  1.0000
  B   B2        1.0  0.30600  0.66600  0.15400  1.0000
  B   B3        1.0  0.69400  0.16600  0.34600  1.0000
  B   B4        1.0  0.80700  0.66500  0.40500  1.0000
  B   B5        1.0  0.19300  0.33500  0.59500  1.0000
  B   B6        1.0  0.30600  0.83400  0.65400  1.0000
  B   B7        1.0  0.69400  0.33400  0.84600  1.0000
  B   B8        1.0  0.80700  0.83500  0.90500  1.0000
  La  La1       1.0  0.83200  0.28100  0.01470  1.0000
  La  La2       1.0  0.66700  0.74700  0.23600  1.0000
  La  La3       1.0  0.33300  0.24700  0.26400  1.0000
  La  La4       1.0  0.16800  0.78100  0.48500  1.0000
  La  La5       1.0  0.83200  0.21900  0.51500  1.0000
  La  La6       1.0  0.66700  0.75300  0.73600  1.0000
  La  La7       1.0  0.33300  0.25300  0.76400  1.0000
  La  La8       1.0  0.16800  0.71900  0.98500  1.0000
  Mo  Mo1       1.0  0.53300  0.17300  0.09010  1.0000
  Mo  Mo2       1.0  0.96600  0.69400  0.16000  1.0000
  Mo  Mo3       1.0  0.03440  0.19400  0.34000  1.0000
  Mo  Mo4       1.0  0.46700  0.67300  0.41000  1.0000
  Mo  Mo5       1.0  0.53300  0.32700  0.59000  1.0000
  Mo  Mo6       1.0  0.96600  0.80600  0.66000  1.0000
  Mo  Mo7       1.0  0.03440  0.30600  0.84000  1.0000
  Mo  Mo8       1.0  0.46700  0.82700  0.91000  1.0000
  O   O1        1.0  0.34600  0.25900  0.04050  1.0000
  O   O2        1.0  0.08740  0.27000  0.04210  1.0000
  O   O3        1.0  0.65200  0.25500  0.05510  1.0000
  O   O4        1.0  0.89700  0.78000  0.07660  1.0000
  O   O5        1.0  0.53000  0.74600  0.09670  1.0000
  O   O6        1.0  0.22900  0.83800  0.09990  1.0000
  O   O7        1.0  0.26900  0.33900  0.14900  1.0000
  O   O8        1.0  0.96800  0.26800  0.15400  1.0000
  O   O9        1.0  0.60100  0.25800  0.17400  1.0000
  O   O10       1.0  0.84600  0.77800  0.19500  1.0000
  O   O11       1.0  0.41100  0.76800  0.20800  1.0000
  O   O12       1.0  0.15300  0.78200  0.21000  1.0000
  O   O13       1.0  0.84700  0.28200  0.29000  1.0000
  O   O14       1.0  0.58900  0.26800  0.29200  1.0000
  O   O15       1.0  0.15400  0.27800  0.30500  1.0000
  O   O16       1.0  0.39900  0.75800  0.32600  1.0000
  O   O17       1.0  0.03220  0.76800  0.34600  1.0000
  O   O18       1.0  0.73100  0.83900  0.35100  1.0000
  O   O19       1.0  0.77100  0.33800  0.40000  1.0000
  O   O20       1.0  0.47000  0.24600  0.40300  1.0000
  O   O21       1.0  0.10300  0.28000  0.42300  1.0000
  O   O22       1.0  0.34800  0.75500  0.44500  1.0000
  O   O23       1.0  0.91300  0.77000  0.45800  1.0000
  O   O24       1.0  0.65400  0.75900  0.45900  1.0000
  O   O25       1.0  0.34600  0.24100  0.54100  1.0000
  O   O26       1.0  0.08740  0.23000  0.54200  1.0000
  O   O27       1.0  0.65200  0.24500  0.55500  1.0000
  O   O28       1.0  0.89700  0.72000  0.57700  1.0000
  O   O29       1.0  0.53000  0.75400  0.59700  1.0000
  O   O30       1.0  0.22900  0.66200  0.60000  1.0000
  O   O31       1.0  0.26900  0.16100  0.64900  1.0000
  O   O32       1.0  0.96800  0.23200  0.65400  1.0000
  O   O33       1.0  0.60100  0.24200  0.67400  1.0000
  O   O34       1.0  0.84600  0.72200  0.69500  1.0000
  O   O35       1.0  0.41100  0.73200  0.70800  1.0000
  O   O36       1.0  0.15300  0.71800  0.71000  1.0000
  O   O37       1.0  0.84700  0.21800  0.79000  1.0000
  O   O38       1.0  0.58900  0.23200  0.79200  1.0000
  O   O39       1.0  0.15400  0.22200  0.80500  1.0000
  O   O40       1.0  0.39900  0.74200  0.82600  1.0000
  O   O41       1.0  0.03220  0.73200  0.84600  1.0000
  O   O42       1.0  0.73100  0.66100  0.85100  1.0000
  O   O43       1.0  0.77100  0.16200  0.90000  1.0000
  O   O44       1.0  0.47000  0.25400  0.90300  1.0000
  O   O45       1.0  0.10300  0.22000  0.92300  1.0000
  O   O46       1.0  0.34800  0.74500  0.94500  1.0000
  O   O47       1.0  0.91300  0.73000  0.95800  1.0000
  O   O48       1.0  0.65400  0.74100  0.95900  1.0000
