data_image0
_chemical_formula_structural       C8F24O28S8Se4
_chemical_formula_sum              "C8 F24 O28 S8 Se4"
_cell_length_a       11.93
_cell_length_b       4.71954
_cell_length_c       15.1646
_cell_angle_alpha    90
_cell_angle_beta     94.7584
_cell_angle_gamma    90

_space_group_name_H-M_alt    "P 1"
_space_group_IT_number       1

loop_
  _space_group_symop_operation_xyz
  'x, y, z'

loop_
  _atom_site_type_symbol
  _atom_site_label
  _atom_site_symmetry_multiplicity
  _atom_site_fract_x
  _atom_site_fract_y
  _atom_site_fract_z
  _atom_site_occupancy
  C   C1        1.0  0.76500  0.75900  0.12200  1.0000
  C   C2        1.0  0.47900  0.11500  0.12600  1.0000
  C   C3        1.0  0.02070  0.61500  0.37400  1.0000
  C   C4        1.0  0.73500  0.25900  0.37800  1.0000
  C   C5        1.0  0.26500  0.74100  0.62200  1.0000
  C   C6        1.0  0.97900  0.38500  0.62600  1.0000
  C   C7        1.0  0.52100  0.88500  0.87400  1.0000
  C   C8        1.0  0.23500  0.24100  0.87800  1.0000
  F   F1        1.0  0.70300  0.91900  0.06340  1.0000
  F   F2        1.0  0.51600  0.31000  0.07060  1.0000
  F   F3        1.0  0.43400  0.89500  0.07970  1.0000
  F   F4        1.0  0.72200  0.49700  0.12400  1.0000
  F   F5        1.0  0.56500  0.02420  0.18200  1.0000
  F   F6        1.0  0.76900  0.87500  0.20300  1.0000
  F   F7        1.0  0.73100  0.37500  0.29700  1.0000
  F   F8        1.0  0.93500  0.52400  0.31800  1.0000
  F   F9        1.0  0.77800  0.99700  0.37600  1.0000
  F   F10       1.0  0.06590  0.39500  0.42000  1.0000
  F   F11       1.0  0.98400  0.81000  0.42900  1.0000
  F   F12       1.0  0.79700  0.41900  0.43700  1.0000
  F   F13       1.0  0.20300  0.58100  0.56300  1.0000
  F   F14       1.0  0.01630  0.19000  0.57100  1.0000
  F   F15       1.0  0.93400  0.60500  0.58000  1.0000
  F   F16       1.0  0.22200  0.00264  0.62400  1.0000
  F   F17       1.0  0.06460  0.47600  0.68200  1.0000
  F   F18       1.0  0.26900  0.62500  0.70300  1.0000
  F   F19       1.0  0.23100  0.12500  0.79700  1.0000
  F   F20       1.0  0.43500  0.97600  0.81800  1.0000
  F   F21       1.0  0.27800  0.50300  0.87600  1.0000
  F   F22       1.0  0.56600  0.10500  0.92000  1.0000
  F   F23       1.0  0.48400  0.69000  0.92900  1.0000
  F   F24       1.0  0.29700  0.08140  0.93700  1.0000
  O   O1        1.0  0.10900  0.39200  0.00208  1.0000
  O   O2        1.0  0.94300  0.03930  0.08420  1.0000
  O   O3        1.0  0.17800  0.87300  0.08430  1.0000
  O   O4        1.0  0.29000  0.38200  0.11400  1.0000
  O   O5        1.0  0.97100  0.55800  0.14900  1.0000
  O   O6        1.0  0.43000  0.51500  0.23600  1.0000
  O   O7        1.0  0.32200  0.06370  0.24000  1.0000
  O   O8        1.0  0.17800  0.56400  0.26000  1.0000
  O   O9        1.0  0.07000  0.01520  0.26400  1.0000
  O   O10       1.0  0.52900  0.05790  0.35100  1.0000
  O   O11       1.0  0.21000  0.88200  0.38600  1.0000
  O   O12       1.0  0.32200  0.37300  0.41600  1.0000
  O   O13       1.0  0.55700  0.53900  0.41600  1.0000
  O   O14       1.0  0.39100  0.89200  0.49800  1.0000
  O   O15       1.0  0.60900  0.10800  0.50200  1.0000
  O   O16       1.0  0.44300  0.46100  0.58400  1.0000
  O   O17       1.0  0.67800  0.62700  0.58400  1.0000
  O   O18       1.0  0.79000  0.11800  0.61400  1.0000
  O   O19       1.0  0.47100  0.94200  0.64900  1.0000
  O   O20       1.0  0.93000  0.98500  0.73600  1.0000
  O   O21       1.0  0.82200  0.43600  0.74000  1.0000
  O   O22       1.0  0.67800  0.93600  0.76000  1.0000
  O   O23       1.0  0.57000  0.48500  0.76400  1.0000
  O   O24       1.0  0.02870  0.44200  0.85100  1.0000
  O   O25       1.0  0.71000  0.61800  0.88600  1.0000
  O   O26       1.0  0.82200  0.12700  0.91600  1.0000
  O   O27       1.0  0.05650  0.96100  0.91600  1.0000
  O   O28       1.0  0.89100  0.60800  0.99800  1.0000
  S   S1        1.0  0.91000  0.74500  0.08890  1.0000
  S   S2        1.0  0.37200  0.28200  0.19000  1.0000
  S   S3        1.0  0.12800  0.78200  0.31000  1.0000
  S   S4        1.0  0.59000  0.24500  0.41100  1.0000
  S   S5        1.0  0.41000  0.75500  0.58900  1.0000
  S   S6        1.0  0.87200  0.21800  0.69000  1.0000
  S   S7        1.0  0.62800  0.71800  0.81000  1.0000
  S   S8        1.0  0.09030  0.25500  0.91100  1.0000
  Se  Se1       1.0  0.13900  0.17800  0.11600  1.0000
  Se  Se2       1.0  0.36100  0.67800  0.38400  1.0000
  Se  Se3       1.0  0.63900  0.32200  0.61600  1.0000
  Se  Se4       1.0  0.86100  0.82200  0.88400  1.0000
