data_image0
_chemical_formula_structural       FeO24P6Ti4
_chemical_formula_sum              "Fe1 O24 P6 Ti4"
_cell_length_a       8.54919
_cell_length_b       8.54919
_cell_length_c       8.44587
_cell_angle_alpha    59.5945
_cell_angle_beta     120.406
_cell_angle_gamma    120

_space_group_name_H-M_alt    "P 1"
_space_group_IT_number       1

loop_
  _space_group_symop_operation_xyz
  'x, y, z'

loop_
  _atom_site_type_symbol
  _atom_site_label
  _atom_site_symmetry_multiplicity
  _atom_site_fract_x
  _atom_site_fract_y
  _atom_site_fract_z
  _atom_site_occupancy
  Fe  Fe1       1.0  0.00000  0.00000  0.00000  1.0000
  O   O1        1.0  0.49100  0.13700  0.05840  1.0000
  O   O2        1.0  0.86300  0.29600  0.05840  1.0000
  O   O3        1.0  0.70400  0.50900  0.05840  1.0000
  O   O4        1.0  0.06480  0.09230  0.22800  1.0000
  O   O5        1.0  0.90800  0.74400  0.22800  1.0000
  O   O6        1.0  0.25600  0.93500  0.22800  1.0000
  O   O7        1.0  0.21800  0.41700  0.26300  1.0000
  O   O8        1.0  0.58300  0.53800  0.26300  1.0000
  O   O9        1.0  0.46200  0.78200  0.26300  1.0000
  O   O10       1.0  0.61300  0.01500  0.42600  1.0000
  O   O11       1.0  0.98500  0.17200  0.42600  1.0000
  O   O12       1.0  0.82800  0.38700  0.42600  1.0000
  O   O13       1.0  0.17200  0.61300  0.57400  1.0000
  O   O14       1.0  0.01500  0.82800  0.57400  1.0000
  O   O15       1.0  0.38700  0.98500  0.57400  1.0000
  O   O16       1.0  0.53800  0.21800  0.73700  1.0000
  O   O17       1.0  0.41700  0.46200  0.73700  1.0000
  O   O18       1.0  0.78200  0.58300  0.73700  1.0000
  O   O19       1.0  0.74400  0.06480  0.77200  1.0000
  O   O20       1.0  0.09230  0.25600  0.77200  1.0000
  O   O21       1.0  0.93500  0.90800  0.77200  1.0000
  O   O22       1.0  0.29600  0.49100  0.94200  1.0000
  O   O23       1.0  0.13700  0.70400  0.94200  1.0000
  O   O24       1.0  0.50900  0.86300  0.94200  1.0000
  P   P1        1.0  0.03120  0.24800  0.24000  1.0000
  P   P2        1.0  0.75200  0.54300  0.24000  1.0000
  P   P3        1.0  0.45700  0.96900  0.24000  1.0000
  P   P4        1.0  0.54300  0.03120  0.76000  1.0000
  P   P5        1.0  0.24800  0.45700  0.76000  1.0000
  P   P6        1.0  0.96900  0.75200  0.76000  1.0000
  Ti  Ti1       1.0  0.36900  0.63100  0.10700  1.0000
  Ti  Ti2       1.0  0.14400  0.85600  0.43100  1.0000
  Ti  Ti3       1.0  0.85600  0.14400  0.56900  1.0000
  Ti  Ti4       1.0  0.63100  0.36900  0.89300  1.0000
