data_image0
_chemical_formula_structural       Cs24Hg8I40
_chemical_formula_sum              "Cs24 Hg8 I40"
_cell_length_a       19.2319
_cell_length_b       18.8194
_cell_length_c       10.3653
_cell_angle_alpha    90
_cell_angle_beta     90
_cell_angle_gamma    90

_space_group_name_H-M_alt    "P 1"
_space_group_IT_number       1

loop_
  _space_group_symop_operation_xyz
  'x, y, z'

loop_
  _atom_site_type_symbol
  _atom_site_label
  _atom_site_symmetry_multiplicity
  _atom_site_fract_x
  _atom_site_fract_y
  _atom_site_fract_z
  _atom_site_occupancy
  Cs  Cs1       1.0  0.18900  0.14300  0.07430  1.0000
  Cs  Cs2       1.0  0.31100  0.64300  0.07430  1.0000
  Cs  Cs3       1.0  0.92900  0.18300  0.08250  1.0000
  Cs  Cs4       1.0  0.57100  0.68300  0.08250  1.0000
  Cs  Cs5       1.0  0.10300  0.40400  0.09110  1.0000
  Cs  Cs6       1.0  0.39700  0.90400  0.09110  1.0000
  Cs  Cs7       1.0  0.60300  0.40400  0.40900  1.0000
  Cs  Cs8       1.0  0.89700  0.90400  0.40900  1.0000
  Cs  Cs9       1.0  0.42900  0.18300  0.41700  1.0000
  Cs  Cs10      1.0  0.07100  0.68300  0.41700  1.0000
  Cs  Cs11      1.0  0.68900  0.14300  0.42600  1.0000
  Cs  Cs12      1.0  0.81100  0.64300  0.42600  1.0000
  Cs  Cs13      1.0  0.18900  0.35700  0.57400  1.0000
  Cs  Cs14      1.0  0.31100  0.85700  0.57400  1.0000
  Cs  Cs15      1.0  0.92900  0.31700  0.58300  1.0000
  Cs  Cs16      1.0  0.57100  0.81700  0.58300  1.0000
  Cs  Cs17      1.0  0.10300  0.09550  0.59100  1.0000
  Cs  Cs18      1.0  0.39700  0.59600  0.59100  1.0000
  Cs  Cs19      1.0  0.60300  0.09550  0.90900  1.0000
  Cs  Cs20      1.0  0.89700  0.59600  0.90900  1.0000
  Cs  Cs21      1.0  0.42900  0.31700  0.91700  1.0000
  Cs  Cs22      1.0  0.07100  0.81700  0.91700  1.0000
  Cs  Cs23      1.0  0.68900  0.35700  0.92600  1.0000
  Cs  Cs24      1.0  0.81100  0.85700  0.92600  1.0000
  Hg  Hg1       1.0  0.84500  0.43300  0.19100  1.0000
  Hg  Hg2       1.0  0.65500  0.93300  0.19100  1.0000
  Hg  Hg3       1.0  0.34500  0.43300  0.30900  1.0000
  Hg  Hg4       1.0  0.15500  0.93300  0.30900  1.0000
  Hg  Hg5       1.0  0.84500  0.06660  0.69100  1.0000
  Hg  Hg6       1.0  0.65500  0.56700  0.69100  1.0000
  Hg  Hg7       1.0  0.34500  0.06660  0.80900  1.0000
  Hg  Hg8       1.0  0.15500  0.56700  0.80900  1.0000
  I   I1        1.0  0.40600  0.11400  0.04720  1.0000
  I   I2        1.0  0.09430  0.61400  0.04720  1.0000
  I   I3        1.0  0.76800  0.02800  0.13600  1.0000
  I   I4        1.0  0.73200  0.52800  0.13600  1.0000
  I   I5        1.0  0.45200  0.49400  0.16100  1.0000
  I   I6        1.0  0.04810  0.99400  0.16100  1.0000
  I   I7        1.0  0.57200  0.25100  0.16800  1.0000
  I   I8        1.0  0.92800  0.75100  0.16800  1.0000
  I   I9        1.0  0.28800  0.30600  0.20100  1.0000
  I   I10       1.0  0.21200  0.80600  0.20100  1.0000
  I   I11       1.0  0.78800  0.30600  0.29900  1.0000
  I   I12       1.0  0.71200  0.80600  0.29900  1.0000
  I   I13       1.0  0.07230  0.25100  0.33200  1.0000
  I   I14       1.0  0.42800  0.75100  0.33200  1.0000
  I   I15       1.0  0.95200  0.49400  0.33900  1.0000
  I   I16       1.0  0.54800  0.99400  0.33900  1.0000
  I   I17       1.0  0.26800  0.02800  0.36400  1.0000
  I   I18       1.0  0.23200  0.52800  0.36400  1.0000
  I   I19       1.0  0.90600  0.11400  0.45300  1.0000
  I   I20       1.0  0.59400  0.61400  0.45300  1.0000
  I   I21       1.0  0.40600  0.38600  0.54700  1.0000
  I   I22       1.0  0.09430  0.88600  0.54700  1.0000
  I   I23       1.0  0.76800  0.47200  0.63600  1.0000
  I   I24       1.0  0.73200  0.97200  0.63600  1.0000
  I   I25       1.0  0.45200  0.00633  0.66100  1.0000
  I   I26       1.0  0.04810  0.50600  0.66100  1.0000
  I   I27       1.0  0.57200  0.24900  0.66800  1.0000
  I   I28       1.0  0.92800  0.74900  0.66800  1.0000
  I   I29       1.0  0.28800  0.19400  0.70100  1.0000
  I   I30       1.0  0.21200  0.69400  0.70100  1.0000
  I   I31       1.0  0.78800  0.19400  0.79900  1.0000
  I   I32       1.0  0.71200  0.69400  0.79900  1.0000
  I   I33       1.0  0.07230  0.24900  0.83200  1.0000
  I   I34       1.0  0.42800  0.74900  0.83200  1.0000
  I   I35       1.0  0.95200  0.00633  0.83900  1.0000
  I   I36       1.0  0.54800  0.50600  0.83900  1.0000
  I   I37       1.0  0.26800  0.47200  0.86400  1.0000
  I   I38       1.0  0.23200  0.97200  0.86400  1.0000
  I   I39       1.0  0.90600  0.38600  0.95300  1.0000
  I   I40       1.0  0.59400  0.88600  0.95300  1.0000
