data_image0
_chemical_formula_structural       Ga16S40Sr16
_chemical_formula_sum              "Ga16 S40 Sr16"
_cell_length_a       12.5941
_cell_length_b       12.0901
_cell_length_c       11.2447
_cell_angle_alpha    90
_cell_angle_beta     90
_cell_angle_gamma    90

_space_group_name_H-M_alt    "P 1"
_space_group_IT_number       1

loop_
  _space_group_symop_operation_xyz
  'x, y, z'

loop_
  _atom_site_type_symbol
  _atom_site_label
  _atom_site_symmetry_multiplicity
  _atom_site_fract_x
  _atom_site_fract_y
  _atom_site_fract_z
  _atom_site_occupancy
  Ga  Ga1       1.0  0.54900  0.20400  0.05920  1.0000
  Ga  Ga2       1.0  0.95100  0.70400  0.05920  1.0000
  Ga  Ga3       1.0  0.02810  0.46400  0.22500  1.0000
  Ga  Ga4       1.0  0.47200  0.96400  0.22500  1.0000
  Ga  Ga5       1.0  0.52800  0.46400  0.27500  1.0000
  Ga  Ga6       1.0  0.97200  0.96400  0.27500  1.0000
  Ga  Ga7       1.0  0.04900  0.20400  0.44100  1.0000
  Ga  Ga8       1.0  0.45100  0.70400  0.44100  1.0000
  Ga  Ga9       1.0  0.54900  0.29600  0.55900  1.0000
  Ga  Ga10      1.0  0.95100  0.79600  0.55900  1.0000
  Ga  Ga11      1.0  0.02810  0.03590  0.72500  1.0000
  Ga  Ga12      1.0  0.47200  0.53600  0.72500  1.0000
  Ga  Ga13      1.0  0.52800  0.03590  0.77500  1.0000
  Ga  Ga14      1.0  0.97200  0.53600  0.77500  1.0000
  Ga  Ga15      1.0  0.04900  0.29600  0.94100  1.0000
  Ga  Ga16      1.0  0.45100  0.79600  0.94100  1.0000
  S   S1        1.0  0.72000  0.22400  0.00635  1.0000
  S   S2        1.0  0.78000  0.72400  0.00635  1.0000
  S   S3        1.0  0.93600  0.38400  0.07110  1.0000
  S   S4        1.0  0.56400  0.88400  0.07110  1.0000
  S   S5        1.0  0.47600  0.38000  0.09550  1.0000
  S   S6        1.0  0.02440  0.88000  0.09550  1.0000
  S   S7        1.0  0.20600  0.48600  0.23600  1.0000
  S   S8        1.0  0.29400  0.98600  0.23600  1.0000
  S   S9        1.0  0.03900  0.13900  0.24800  1.0000
  S   S10       1.0  0.46100  0.63900  0.24800  1.0000
  S   S11       1.0  0.53900  0.13900  0.25200  1.0000
  S   S12       1.0  0.96100  0.63900  0.25200  1.0000
  S   S13       1.0  0.70600  0.48600  0.26400  1.0000
  S   S14       1.0  0.79400  0.98600  0.26400  1.0000
  S   S15       1.0  0.97600  0.38000  0.40400  1.0000
  S   S16       1.0  0.52400  0.88000  0.40400  1.0000
  S   S17       1.0  0.43600  0.38400  0.42900  1.0000
  S   S18       1.0  0.06430  0.88400  0.42900  1.0000
  S   S19       1.0  0.22000  0.22400  0.49400  1.0000
  S   S20       1.0  0.28000  0.72400  0.49400  1.0000
  S   S21       1.0  0.72000  0.27600  0.50600  1.0000
  S   S22       1.0  0.78000  0.77600  0.50600  1.0000
  S   S23       1.0  0.93600  0.11600  0.57100  1.0000
  S   S24       1.0  0.56400  0.61600  0.57100  1.0000
  S   S25       1.0  0.47600  0.12000  0.59600  1.0000
  S   S26       1.0  0.02440  0.62000  0.59600  1.0000
  S   S27       1.0  0.20600  0.01390  0.73600  1.0000
  S   S28       1.0  0.29400  0.51400  0.73600  1.0000
  S   S29       1.0  0.03900  0.36100  0.74800  1.0000
  S   S30       1.0  0.46100  0.86100  0.74800  1.0000
  S   S31       1.0  0.53900  0.36100  0.75200  1.0000
  S   S32       1.0  0.96100  0.86100  0.75200  1.0000
  S   S33       1.0  0.70600  0.01390  0.76400  1.0000
  S   S34       1.0  0.79400  0.51400  0.76400  1.0000
  S   S35       1.0  0.97600  0.12000  0.90400  1.0000
  S   S36       1.0  0.52400  0.62000  0.90400  1.0000
  S   S37       1.0  0.43600  0.11600  0.92900  1.0000
  S   S38       1.0  0.06430  0.61600  0.92900  1.0000
  S   S39       1.0  0.22000  0.27600  0.99400  1.0000
  S   S40       1.0  0.28000  0.77600  0.99400  1.0000
  Sr  Sr1       1.0  0.69800  0.47600  0.00096  1.0000
  Sr  Sr2       1.0  0.80200  0.97600  0.00096  1.0000
  Sr  Sr3       1.0  0.31000  0.24600  0.24800  1.0000
  Sr  Sr4       1.0  0.19000  0.74600  0.24800  1.0000
  Sr  Sr5       1.0  0.81000  0.24600  0.25200  1.0000
  Sr  Sr6       1.0  0.69000  0.74600  0.25200  1.0000
  Sr  Sr7       1.0  0.19800  0.47600  0.49900  1.0000
  Sr  Sr8       1.0  0.30200  0.97600  0.49900  1.0000
  Sr  Sr9       1.0  0.69800  0.02350  0.50100  1.0000
  Sr  Sr10      1.0  0.80200  0.52400  0.50100  1.0000
  Sr  Sr11      1.0  0.31000  0.25400  0.74800  1.0000
  Sr  Sr12      1.0  0.19000  0.75400  0.74800  1.0000
  Sr  Sr13      1.0  0.81000  0.25400  0.75200  1.0000
  Sr  Sr14      1.0  0.69000  0.75400  0.75200  1.0000
  Sr  Sr15      1.0  0.19800  0.02350  0.99900  1.0000
  Sr  Sr16      1.0  0.30200  0.52400  0.99900  1.0000
