data_image0
_chemical_formula_structural       As12Ba4H4O44Zn8
_chemical_formula_sum              "As12 Ba4 H4 O44 Zn8"
_cell_length_a       11.7219
_cell_length_b       8.14512
_cell_length_c       9.92447
_cell_angle_alpha    90
_cell_angle_beta     93.7128
_cell_angle_gamma    90

_space_group_name_H-M_alt    "P 1"
_space_group_IT_number       1

loop_
  _space_group_symop_operation_xyz
  'x, y, z'

loop_
  _atom_site_type_symbol
  _atom_site_label
  _atom_site_symmetry_multiplicity
  _atom_site_fract_x
  _atom_site_fract_y
  _atom_site_fract_z
  _atom_site_occupancy
  As  As1       1.0  0.77600  0.52900  0.10500  1.0000
  As  As2       1.0  0.49000  0.01420  0.20200  1.0000
  As  As3       1.0  0.00266  0.34800  0.20400  1.0000
  As  As4       1.0  0.99700  0.84800  0.29600  1.0000
  As  As5       1.0  0.51000  0.51400  0.29800  1.0000
  As  As6       1.0  0.22400  0.02900  0.39500  1.0000
  As  As7       1.0  0.77600  0.97100  0.60500  1.0000
  As  As8       1.0  0.49000  0.48600  0.70200  1.0000
  As  As9       1.0  0.00266  0.15200  0.70400  1.0000
  As  As10      1.0  0.99700  0.65200  0.79600  1.0000
  As  As11      1.0  0.51000  0.98600  0.79800  1.0000
  As  As12      1.0  0.22400  0.47100  0.89500  1.0000
  Ba  Ba1       1.0  0.79200  0.03500  0.00662  1.0000
  Ba  Ba2       1.0  0.20800  0.53500  0.49300  1.0000
  Ba  Ba3       1.0  0.79200  0.46500  0.50700  1.0000
  Ba  Ba4       1.0  0.20800  0.96500  0.99300  1.0000
  H   H1        1.0  0.01020  0.76900  0.01540  1.0000
  H   H2        1.0  0.99000  0.26900  0.48500  1.0000
  H   H3        1.0  0.01020  0.73100  0.51500  1.0000
  H   H4        1.0  0.99000  0.23100  0.98500  1.0000
  O   O1        1.0  0.75500  0.69200  0.00131  1.0000
  O   O2        1.0  0.72300  0.34600  0.04820  1.0000
  O   O3        1.0  0.00506  0.18800  0.08110  1.0000
  O   O4        1.0  0.92900  0.50400  0.10800  1.0000
  O   O5        1.0  0.40900  0.86400  0.12300  1.0000
  O   O6        1.0  0.53300  0.52900  0.12700  1.0000
  O   O7        1.0  0.45200  0.20100  0.13000  1.0000
  O   O8        1.0  0.07450  0.79000  0.16800  1.0000
  O   O9        1.0  0.63300  0.98200  0.18800  1.0000
  O   O10       1.0  0.24700  0.08850  0.23500  1.0000
  O   O11       1.0  0.13500  0.41500  0.24700  1.0000
  O   O12       1.0  0.86500  0.91500  0.25300  1.0000
  O   O13       1.0  0.75300  0.58800  0.26500  1.0000
  O   O14       1.0  0.36700  0.48200  0.31200  1.0000
  O   O15       1.0  0.92500  0.29000  0.33200  1.0000
  O   O16       1.0  0.54800  0.70100  0.37000  1.0000
  O   O17       1.0  0.46700  0.02860  0.37300  1.0000
  O   O18       1.0  0.59100  0.36400  0.37700  1.0000
  O   O19       1.0  0.07080  0.00446  0.39200  1.0000
  O   O20       1.0  0.99500  0.68800  0.41900  1.0000
  O   O21       1.0  0.27700  0.84600  0.45200  1.0000
  O   O22       1.0  0.24500  0.19200  0.49900  1.0000
  O   O23       1.0  0.75500  0.80800  0.50100  1.0000
  O   O24       1.0  0.72300  0.15400  0.54800  1.0000
  O   O25       1.0  0.00506  0.31200  0.58100  1.0000
  O   O26       1.0  0.92900  0.99600  0.60800  1.0000
  O   O27       1.0  0.40900  0.63600  0.62300  1.0000
  O   O28       1.0  0.53300  0.97100  0.62700  1.0000
  O   O29       1.0  0.45200  0.29900  0.63000  1.0000
  O   O30       1.0  0.07450  0.71000  0.66800  1.0000
  O   O31       1.0  0.63300  0.51800  0.68800  1.0000
  O   O32       1.0  0.24700  0.41200  0.73500  1.0000
  O   O33       1.0  0.13500  0.08500  0.74700  1.0000
  O   O34       1.0  0.86500  0.58500  0.75300  1.0000
  O   O35       1.0  0.75300  0.91200  0.76500  1.0000
  O   O36       1.0  0.36700  0.01780  0.81200  1.0000
  O   O37       1.0  0.92500  0.21000  0.83200  1.0000
  O   O38       1.0  0.54800  0.79900  0.87000  1.0000
  O   O39       1.0  0.46700  0.47100  0.87300  1.0000
  O   O40       1.0  0.59100  0.13600  0.87700  1.0000
  O   O41       1.0  0.07080  0.49600  0.89200  1.0000
  O   O42       1.0  0.99500  0.81200  0.91900  1.0000
  O   O43       1.0  0.27700  0.65400  0.95200  1.0000
  O   O44       1.0  0.24500  0.30800  0.99900  1.0000
  Zn  Zn1       1.0  0.55000  0.31700  0.00323  1.0000
  Zn  Zn2       1.0  0.29500  0.31800  0.19200  1.0000
  Zn  Zn3       1.0  0.70500  0.81800  0.30800  1.0000
  Zn  Zn4       1.0  0.45000  0.81700  0.49700  1.0000
  Zn  Zn5       1.0  0.55000  0.18300  0.50300  1.0000
  Zn  Zn6       1.0  0.29500  0.18200  0.69200  1.0000
  Zn  Zn7       1.0  0.70500  0.68200  0.80800  1.0000
  Zn  Zn8       1.0  0.45000  0.68300  0.99700  1.0000
