data_image0
_chemical_formula_structural       Ba16In16Se40
_chemical_formula_sum              "Ba16 In16 Se40"
_cell_length_a       13.8341
_cell_length_b       13.3502
_cell_length_c       12.4153
_cell_angle_alpha    90
_cell_angle_beta     90
_cell_angle_gamma    90

_space_group_name_H-M_alt    "P 1"
_space_group_IT_number       1

loop_
  _space_group_symop_operation_xyz
  'x, y, z'

loop_
  _atom_site_type_symbol
  _atom_site_label
  _atom_site_symmetry_multiplicity
  _atom_site_fract_x
  _atom_site_fract_y
  _atom_site_fract_z
  _atom_site_occupancy
  Ba  Ba1       1.0  0.19300  0.02870  0.00332  1.0000
  Ba  Ba2       1.0  0.30700  0.52900  0.00332  1.0000
  Ba  Ba3       1.0  0.31100  0.24600  0.25000  1.0000
  Ba  Ba4       1.0  0.18900  0.74600  0.25000  1.0000
  Ba  Ba5       1.0  0.81100  0.24600  0.25000  1.0000
  Ba  Ba6       1.0  0.68900  0.74600  0.25000  1.0000
  Ba  Ba7       1.0  0.69300  0.02870  0.49700  1.0000
  Ba  Ba8       1.0  0.80700  0.52900  0.49700  1.0000
  Ba  Ba9       1.0  0.19300  0.47100  0.50300  1.0000
  Ba  Ba10      1.0  0.30700  0.97100  0.50300  1.0000
  Ba  Ba11      1.0  0.31100  0.25400  0.75000  1.0000
  Ba  Ba12      1.0  0.18900  0.75400  0.75000  1.0000
  Ba  Ba13      1.0  0.81100  0.25400  0.75000  1.0000
  Ba  Ba14      1.0  0.68900  0.75400  0.75000  1.0000
  Ba  Ba15      1.0  0.69300  0.47100  0.99700  1.0000
  Ba  Ba16      1.0  0.80700  0.97100  0.99700  1.0000
  In  In1       1.0  0.55200  0.19600  0.05970  1.0000
  In  In2       1.0  0.94800  0.69600  0.05970  1.0000
  In  In3       1.0  0.02870  0.46600  0.22700  1.0000
  In  In4       1.0  0.47100  0.96600  0.22700  1.0000
  In  In5       1.0  0.52900  0.46600  0.27300  1.0000
  In  In6       1.0  0.97100  0.96600  0.27300  1.0000
  In  In7       1.0  0.05220  0.19600  0.44000  1.0000
  In  In8       1.0  0.44800  0.69600  0.44000  1.0000
  In  In9       1.0  0.55200  0.30400  0.56000  1.0000
  In  In10      1.0  0.94800  0.80400  0.56000  1.0000
  In  In11      1.0  0.02870  0.03440  0.72700  1.0000
  In  In12      1.0  0.47100  0.53400  0.72700  1.0000
  In  In13      1.0  0.52900  0.03440  0.77300  1.0000
  In  In14      1.0  0.97100  0.53400  0.77300  1.0000
  In  In15      1.0  0.05220  0.30400  0.94000  1.0000
  In  In16      1.0  0.44800  0.80400  0.94000  1.0000
  Se  Se1       1.0  0.72800  0.21900  0.00303  1.0000
  Se  Se2       1.0  0.77200  0.71900  0.00303  1.0000
  Se  Se3       1.0  0.92700  0.39200  0.06870  1.0000
  Se  Se4       1.0  0.57300  0.89200  0.06870  1.0000
  Se  Se5       1.0  0.47500  0.37800  0.08950  1.0000
  Se  Se6       1.0  0.02530  0.87800  0.08950  1.0000
  Se  Se7       1.0  0.04190  0.14600  0.23500  1.0000
  Se  Se8       1.0  0.45800  0.64600  0.23500  1.0000
  Se  Se9       1.0  0.21400  0.48900  0.24100  1.0000
  Se  Se10      1.0  0.28600  0.98900  0.24100  1.0000
  Se  Se11      1.0  0.71400  0.48900  0.25900  1.0000
  Se  Se12      1.0  0.78600  0.98900  0.25900  1.0000
  Se  Se13      1.0  0.54200  0.14600  0.26500  1.0000
  Se  Se14      1.0  0.95800  0.64600  0.26500  1.0000
  Se  Se15      1.0  0.97500  0.37800  0.41000  1.0000
  Se  Se16      1.0  0.52500  0.87800  0.41000  1.0000
  Se  Se17      1.0  0.42700  0.39200  0.43100  1.0000
  Se  Se18      1.0  0.07260  0.89200  0.43100  1.0000
  Se  Se19      1.0  0.22800  0.21900  0.49700  1.0000
  Se  Se20      1.0  0.27200  0.71900  0.49700  1.0000
  Se  Se21      1.0  0.72800  0.28100  0.50300  1.0000
  Se  Se22      1.0  0.77200  0.78100  0.50300  1.0000
  Se  Se23      1.0  0.92700  0.10800  0.56900  1.0000
  Se  Se24      1.0  0.57300  0.60800  0.56900  1.0000
  Se  Se25      1.0  0.47500  0.12200  0.59000  1.0000
  Se  Se26      1.0  0.02530  0.62200  0.59000  1.0000
  Se  Se27      1.0  0.04190  0.35400  0.73500  1.0000
  Se  Se28      1.0  0.45800  0.85400  0.73500  1.0000
  Se  Se29      1.0  0.21400  0.01100  0.74100  1.0000
  Se  Se30      1.0  0.28600  0.51100  0.74100  1.0000
  Se  Se31      1.0  0.71400  0.01100  0.75900  1.0000
  Se  Se32      1.0  0.78600  0.51100  0.75900  1.0000
  Se  Se33      1.0  0.54200  0.35400  0.76500  1.0000
  Se  Se34      1.0  0.95800  0.85400  0.76500  1.0000
  Se  Se35      1.0  0.97500  0.12200  0.91000  1.0000
  Se  Se36      1.0  0.52500  0.62200  0.91000  1.0000
  Se  Se37      1.0  0.42700  0.10800  0.93100  1.0000
  Se  Se38      1.0  0.07260  0.60800  0.93100  1.0000
  Se  Se39      1.0  0.22800  0.28100  0.99700  1.0000
  Se  Se40      1.0  0.27200  0.78100  0.99700  1.0000
