data_image0
_chemical_formula_structural       Ca8Cr8H16O40
_chemical_formula_sum              "Ca8 Cr8 H16 O40"
_cell_length_a       7.91695
_cell_length_b       7.98187
_cell_length_c       12.5894
_cell_angle_alpha    90
_cell_angle_beta     90
_cell_angle_gamma    90

_space_group_name_H-M_alt    "P 1"
_space_group_IT_number       1

loop_
  _space_group_symop_operation_xyz
  'x, y, z'

loop_
  _atom_site_type_symbol
  _atom_site_label
  _atom_site_symmetry_multiplicity
  _atom_site_fract_x
  _atom_site_fract_y
  _atom_site_fract_z
  _atom_site_occupancy
  Ca  Ca1       1.0  0.76500  0.09750  0.17100  1.0000
  Ca  Ca2       1.0  0.73500  0.59700  0.17100  1.0000
  Ca  Ca3       1.0  0.26500  0.09750  0.32900  1.0000
  Ca  Ca4       1.0  0.23500  0.59700  0.32900  1.0000
  Ca  Ca5       1.0  0.76500  0.40300  0.67100  1.0000
  Ca  Ca6       1.0  0.73500  0.90300  0.67100  1.0000
  Ca  Ca7       1.0  0.26500  0.40300  0.82900  1.0000
  Ca  Ca8       1.0  0.23500  0.90300  0.82900  1.0000
  Cr  Cr1       1.0  0.13100  0.38300  0.12300  1.0000
  Cr  Cr2       1.0  0.36900  0.88300  0.12300  1.0000
  Cr  Cr3       1.0  0.63100  0.38300  0.37700  1.0000
  Cr  Cr4       1.0  0.86900  0.88300  0.37700  1.0000
  Cr  Cr5       1.0  0.13100  0.11700  0.62300  1.0000
  Cr  Cr6       1.0  0.36900  0.61700  0.62300  1.0000
  Cr  Cr7       1.0  0.63100  0.11700  0.87700  1.0000
  Cr  Cr8       1.0  0.86900  0.61700  0.87700  1.0000
  H   H1        1.0  0.56800  0.34000  0.03300  1.0000
  H   H2        1.0  0.93200  0.84000  0.03300  1.0000
  H   H3        1.0  0.47800  0.33600  0.14500  1.0000
  H   H4        1.0  0.02170  0.83600  0.14500  1.0000
  H   H5        1.0  0.97800  0.33600  0.35500  1.0000
  H   H6        1.0  0.52200  0.83600  0.35500  1.0000
  H   H7        1.0  0.06770  0.34000  0.46700  1.0000
  H   H8        1.0  0.43200  0.84000  0.46700  1.0000
  H   H9        1.0  0.56800  0.16000  0.53300  1.0000
  H   H10       1.0  0.93200  0.66000  0.53300  1.0000
  H   H11       1.0  0.47800  0.16400  0.64500  1.0000
  H   H12       1.0  0.02170  0.66400  0.64500  1.0000
  H   H13       1.0  0.97800  0.16400  0.85500  1.0000
  H   H14       1.0  0.52200  0.66400  0.85500  1.0000
  H   H15       1.0  0.06770  0.16000  0.96700  1.0000
  H   H16       1.0  0.43200  0.66000  0.96700  1.0000
  O   O1        1.0  0.20900  0.45400  0.01120  1.0000
  O   O2        1.0  0.29100  0.95400  0.01120  1.0000
  O   O3        1.0  0.00965  0.21800  0.09810  1.0000
  O   O4        1.0  0.49000  0.71800  0.09810  1.0000
  O   O5        1.0  0.59200  0.34600  0.11000  1.0000
  O   O6        1.0  0.90800  0.84600  0.11000  1.0000
  O   O7        1.0  0.47500  0.03220  0.18700  1.0000
  O   O8        1.0  0.02520  0.53200  0.18700  1.0000
  O   O9        1.0  0.28900  0.33100  0.20500  1.0000
  O   O10       1.0  0.21100  0.83100  0.20500  1.0000
  O   O11       1.0  0.78900  0.33100  0.29500  1.0000
  O   O12       1.0  0.71100  0.83100  0.29500  1.0000
  O   O13       1.0  0.97500  0.03220  0.31300  1.0000
  O   O14       1.0  0.52500  0.53200  0.31300  1.0000
  O   O15       1.0  0.09170  0.34600  0.39000  1.0000
  O   O16       1.0  0.40800  0.84600  0.39000  1.0000
  O   O17       1.0  0.51000  0.21800  0.40200  1.0000
  O   O18       1.0  0.99000  0.71800  0.40200  1.0000
  O   O19       1.0  0.70900  0.45400  0.48900  1.0000
  O   O20       1.0  0.79100  0.95400  0.48900  1.0000
  O   O21       1.0  0.20900  0.04580  0.51100  1.0000
  O   O22       1.0  0.29100  0.54600  0.51100  1.0000
  O   O23       1.0  0.00965  0.28200  0.59800  1.0000
  O   O24       1.0  0.49000  0.78200  0.59800  1.0000
  O   O25       1.0  0.59200  0.15400  0.61000  1.0000
  O   O26       1.0  0.90800  0.65400  0.61000  1.0000
  O   O27       1.0  0.47500  0.46800  0.68700  1.0000
  O   O28       1.0  0.02520  0.96800  0.68700  1.0000
  O   O29       1.0  0.28900  0.16900  0.70500  1.0000
  O   O30       1.0  0.21100  0.66900  0.70500  1.0000
  O   O31       1.0  0.78900  0.16900  0.79500  1.0000
  O   O32       1.0  0.71100  0.66900  0.79500  1.0000
  O   O33       1.0  0.97500  0.46800  0.81300  1.0000
  O   O34       1.0  0.52500  0.96800  0.81300  1.0000
  O   O35       1.0  0.09170  0.15400  0.89000  1.0000
  O   O36       1.0  0.40800  0.65400  0.89000  1.0000
  O   O37       1.0  0.51000  0.28200  0.90200  1.0000
  O   O38       1.0  0.99000  0.78200  0.90200  1.0000
  O   O39       1.0  0.70900  0.04580  0.98900  1.0000
  O   O40       1.0  0.79100  0.54600  0.98900  1.0000
