data_image0
_chemical_formula_structural       Au12Cs36O24
_chemical_formula_sum              "Au12 Cs36 O24"
_cell_length_a       10.2486
_cell_length_b       19.9082
_cell_length_c       10.368
_cell_angle_alpha    90
_cell_angle_beta     93.9211
_cell_angle_gamma    90

_space_group_name_H-M_alt    "P 1"
_space_group_IT_number       1

loop_
  _space_group_symop_operation_xyz
  'x, y, z'

loop_
  _atom_site_type_symbol
  _atom_site_label
  _atom_site_symmetry_multiplicity
  _atom_site_fract_x
  _atom_site_fract_y
  _atom_site_fract_z
  _atom_site_occupancy
  Au  Au1       1.0  0.33100  0.57800  0.09310  1.0000
  Au  Au2       1.0  0.01280  0.74800  0.11500  1.0000
  Au  Au3       1.0  0.69400  0.92100  0.13800  1.0000
  Au  Au4       1.0  0.80600  0.42100  0.36200  1.0000
  Au  Au5       1.0  0.48700  0.24800  0.38500  1.0000
  Au  Au6       1.0  0.16900  0.07840  0.40700  1.0000
  Au  Au7       1.0  0.83100  0.92200  0.59300  1.0000
  Au  Au8       1.0  0.51300  0.75200  0.61500  1.0000
  Au  Au9       1.0  0.19400  0.57900  0.63800  1.0000
  Au  Au10      1.0  0.30600  0.07930  0.86200  1.0000
  Au  Au11      1.0  0.98700  0.25200  0.88500  1.0000
  Au  Au12      1.0  0.66900  0.42200  0.90700  1.0000
  Cs  Cs1       1.0  0.65800  0.74400  0.00202  1.0000
  Cs  Cs2       1.0  0.99400  0.41100  0.07320  1.0000
  Cs  Cs3       1.0  0.02900  0.08990  0.07610  1.0000
  Cs  Cs4       1.0  0.31900  0.92900  0.08700  1.0000
  Cs  Cs5       1.0  0.70000  0.56300  0.13400  1.0000
  Cs  Cs6       1.0  0.73600  0.26600  0.13700  1.0000
  Cs  Cs7       1.0  0.44400  0.09540  0.20300  1.0000
  Cs  Cs8       1.0  0.47200  0.41300  0.20400  1.0000
  Cs  Cs9       1.0  0.37400  0.75100  0.22200  1.0000
  Cs  Cs10      1.0  0.12600  0.25100  0.27800  1.0000
  Cs  Cs11      1.0  0.02840  0.91300  0.29600  1.0000
  Cs  Cs12      1.0  0.05580  0.59500  0.29700  1.0000
  Cs  Cs13      1.0  0.76400  0.76600  0.36300  1.0000
  Cs  Cs14      1.0  0.80000  0.06340  0.36600  1.0000
  Cs  Cs15      1.0  0.18100  0.42900  0.41300  1.0000
  Cs  Cs16      1.0  0.47100  0.59000  0.42400  1.0000
  Cs  Cs17      1.0  0.50600  0.91100  0.42700  1.0000
  Cs  Cs18      1.0  0.84200  0.24400  0.49800  1.0000
  Cs  Cs19      1.0  0.15800  0.75600  0.50200  1.0000
  Cs  Cs20      1.0  0.49400  0.08940  0.57300  1.0000
  Cs  Cs21      1.0  0.52900  0.41000  0.57600  1.0000
  Cs  Cs22      1.0  0.81900  0.57100  0.58700  1.0000
  Cs  Cs23      1.0  0.20000  0.93700  0.63400  1.0000
  Cs  Cs24      1.0  0.23600  0.23400  0.63700  1.0000
  Cs  Cs25      1.0  0.94400  0.40500  0.70300  1.0000
  Cs  Cs26      1.0  0.97200  0.08680  0.70400  1.0000
  Cs  Cs27      1.0  0.87400  0.74900  0.72200  1.0000
  Cs  Cs28      1.0  0.62600  0.24900  0.77800  1.0000
  Cs  Cs29      1.0  0.52800  0.58700  0.79600  1.0000
  Cs  Cs30      1.0  0.55600  0.90500  0.79700  1.0000
  Cs  Cs31      1.0  0.26400  0.73400  0.86300  1.0000
  Cs  Cs32      1.0  0.30000  0.43700  0.86600  1.0000
  Cs  Cs33      1.0  0.68100  0.07120  0.91300  1.0000
  Cs  Cs34      1.0  0.97100  0.91000  0.92400  1.0000
  Cs  Cs35      1.0  0.00565  0.58900  0.92700  1.0000
  Cs  Cs36      1.0  0.34200  0.25600  0.99800  1.0000
  O   O1        1.0  0.46100  0.65100  0.04700  1.0000
  O   O2        1.0  0.14900  0.82000  0.08830  1.0000
  O   O3        1.0  0.83300  0.99200  0.11500  1.0000
  O   O4        1.0  0.20200  0.50500  0.13600  1.0000
  O   O5        1.0  0.87600  0.67600  0.14300  1.0000
  O   O6        1.0  0.56200  0.84700  0.16700  1.0000
  O   O7        1.0  0.93800  0.34700  0.33300  1.0000
  O   O8        1.0  0.62400  0.17600  0.35700  1.0000
  O   O9        1.0  0.29800  0.00516  0.36400  1.0000
  O   O10       1.0  0.66700  0.49200  0.38500  1.0000
  O   O11       1.0  0.35100  0.32000  0.41200  1.0000
  O   O12       1.0  0.03910  0.15100  0.45300  1.0000
  O   O13       1.0  0.96100  0.84900  0.54700  1.0000
  O   O14       1.0  0.64900  0.68000  0.58800  1.0000
  O   O15       1.0  0.33300  0.50800  0.61500  1.0000
  O   O16       1.0  0.70200  0.99500  0.63600  1.0000
  O   O17       1.0  0.37600  0.82400  0.64300  1.0000
  O   O18       1.0  0.06160  0.65300  0.66700  1.0000
  O   O19       1.0  0.43800  0.15300  0.83300  1.0000
  O   O20       1.0  0.12400  0.32400  0.85700  1.0000
  O   O21       1.0  0.79800  0.49500  0.86400  1.0000
  O   O22       1.0  0.16700  0.00808  0.88500  1.0000
  O   O23       1.0  0.85100  0.18000  0.91200  1.0000
  O   O24       1.0  0.53900  0.34900  0.95300  1.0000
