data_image0
_chemical_formula_structural       Al13ClH18O38Si5
_chemical_formula_sum              "Al13 Cl1 H18 O38 Si5"
_cell_length_a       9.82505
_cell_length_b       9.82505
_cell_length_c       9.82505
_cell_angle_alpha    120
_cell_angle_beta     90
_cell_angle_gamma    120

_space_group_name_H-M_alt    "P 1"
_space_group_IT_number       1

loop_
  _space_group_symop_operation_xyz
  'x, y, z'

loop_
  _atom_site_type_symbol
  _atom_site_label
  _atom_site_symmetry_multiplicity
  _atom_site_fract_x
  _atom_site_fract_y
  _atom_site_fract_z
  _atom_site_occupancy
  Al  Al1       1.0  0.23400  0.82800  0.06210  1.0000
  Al  Al2       1.0  0.59400  0.82800  0.06210  1.0000
  Al  Al3       1.0  0.23400  0.46900  0.06210  1.0000
  Al  Al4       1.0  0.23400  0.17200  0.40600  1.0000
  Al  Al5       1.0  0.93800  0.17200  0.40600  1.0000
  Al  Al6       1.0  0.23400  0.46900  0.40600  1.0000
  Al  Al7       1.0  0.25000  0.50000  0.75000  1.0000
  Al  Al8       1.0  0.93800  0.17200  0.76600  1.0000
  Al  Al9       1.0  0.23400  0.17200  0.76600  1.0000
  Al  Al10      1.0  0.59400  0.53100  0.76600  1.0000
  Al  Al11      1.0  0.23400  0.82800  0.76600  1.0000
  Al  Al12      1.0  0.59400  0.82800  0.76600  1.0000
  Al  Al13      1.0  0.93800  0.53100  0.76600  1.0000
  Cl  Cl1       1.0  0.50000  0.00000  0.50000  1.0000
  H   H1        1.0  0.52300  0.04550  0.13500  1.0000
  H   H2        1.0  0.08950  0.61200  0.13500  1.0000
  H   H3        1.0  0.52300  0.61200  0.13500  1.0000
  H   H4        1.0  0.35000  0.00000  0.35000  1.0000
  H   H5        1.0  0.35000  0.70000  0.35000  1.0000
  H   H6        1.0  0.65000  0.00000  0.35000  1.0000
  H   H7        1.0  0.08950  0.61200  0.47700  1.0000
  H   H8        1.0  0.52300  0.61200  0.47700  1.0000
  H   H9        1.0  0.52300  0.38800  0.47700  1.0000
  H   H10       1.0  0.86500  0.38800  0.47700  1.0000
  H   H11       1.0  0.08950  0.95400  0.47700  1.0000
  H   H12       1.0  0.86500  0.95400  0.47700  1.0000
  H   H13       1.0  0.35000  0.00000  0.65000  1.0000
  H   H14       1.0  0.65000  0.00000  0.65000  1.0000
  H   H15       1.0  0.65000  0.30000  0.65000  1.0000
  H   H16       1.0  0.52300  0.04550  0.91000  1.0000
  H   H17       1.0  0.52300  0.38800  0.91000  1.0000
  H   H18       1.0  0.86500  0.38800  0.91000  1.0000
  O   O1        1.0  0.27700  0.27600  0.00103  1.0000
  O   O2        1.0  0.72500  0.72400  0.00103  1.0000
  O   O3        1.0  0.27700  0.00206  0.00103  1.0000
  O   O4        1.0  0.72500  0.00206  0.00103  1.0000
  O   O5        1.0  0.99900  0.27600  0.00103  1.0000
  O   O6        1.0  0.99900  0.72400  0.00103  1.0000
  O   O7        1.0  0.45700  0.91400  0.10100  1.0000
  O   O8        1.0  0.18800  0.64400  0.10100  1.0000
  O   O9        1.0  0.45700  0.64400  0.10100  1.0000
  O   O10       1.0  0.54700  0.36500  0.18200  1.0000
  O   O11       1.0  0.81800  0.36500  0.18200  1.0000
  O   O12       1.0  0.81800  0.63500  0.18200  1.0000
  O   O13       1.0  0.99900  0.27600  0.27500  1.0000
  O   O14       1.0  0.99900  0.99800  0.27500  1.0000
  O   O15       1.0  0.27700  0.27600  0.27500  1.0000
  O   O16       1.0  0.27900  0.00000  0.27900  1.0000
  O   O17       1.0  0.27900  0.55700  0.27900  1.0000
  O   O18       1.0  0.72100  0.00000  0.27900  1.0000
  O   O19       1.0  0.81800  0.63500  0.45300  1.0000
  O   O20       1.0  0.17600  0.35100  0.52700  1.0000
  O   O21       1.0  0.89900  0.08640  0.54300  1.0000
  O   O22       1.0  0.18800  0.08640  0.54300  1.0000
  O   O23       1.0  0.45700  0.35600  0.54300  1.0000
  O   O24       1.0  0.89900  0.35600  0.54300  1.0000
  O   O25       1.0  0.18800  0.64400  0.54300  1.0000
  O   O26       1.0  0.45700  0.64400  0.54300  1.0000
  O   O27       1.0  0.27900  1.00000  0.72100  1.0000
  O   O28       1.0  0.72100  1.00000  0.72100  1.0000
  O   O29       1.0  0.72100  0.44300  0.72100  1.0000
  O   O30       1.0  0.99900  0.72400  0.72300  1.0000
  O   O31       1.0  0.99900  0.99800  0.72300  1.0000
  O   O32       1.0  0.72500  0.72400  0.72300  1.0000
  O   O33       1.0  0.89900  0.35600  0.81200  1.0000
  O   O34       1.0  0.45700  0.35600  0.81200  1.0000
  O   O35       1.0  0.45700  0.91400  0.81200  1.0000
  O   O36       1.0  0.17600  0.35100  0.82400  1.0000
  O   O37       1.0  0.17600  0.64900  0.82400  1.0000
  O   O38       1.0  0.47300  0.64900  0.82400  1.0000
  Si  Si1       1.0  0.88700  0.77500  0.11300  1.0000
  Si  Si2       1.0  0.33800  0.22500  0.11300  1.0000
  Si  Si3       1.0  0.88700  0.22500  0.11300  1.0000
  Si  Si4       1.0  0.75000  0.50000  0.25000  1.0000
  Si  Si5       1.0  0.88700  0.77500  0.66200  1.0000
