data_image0
_chemical_formula_structural       Ba4Mo30Se38
_chemical_formula_sum              "Ba4 Mo30 Se38"
_cell_length_a       9.89687
_cell_length_b       9.89687
_cell_length_c       20.1319
_cell_angle_alpha    104.229
_cell_angle_beta     90
_cell_angle_gamma    60

_space_group_name_H-M_alt    "P 1"
_space_group_IT_number       1

loop_
  _space_group_symop_operation_xyz
  'x, y, z'

loop_
  _atom_site_type_symbol
  _atom_site_label
  _atom_site_symmetry_multiplicity
  _atom_site_fract_x
  _atom_site_fract_y
  _atom_site_fract_z
  _atom_site_occupancy
  Ba  Ba1       1.0  0.61500  0.77000  0.15500  1.0000
  Ba  Ba2       1.0  0.88500  0.23000  0.34500  1.0000
  Ba  Ba3       1.0  0.11500  0.77000  0.65500  1.0000
  Ba  Ba4       1.0  0.38500  0.23000  0.84500  1.0000
  Mo  Mo1       1.0  0.12600  0.05830  0.05820  1.0000
  Mo  Mo2       1.0  0.81500  0.18500  0.05820  1.0000
  Mo  Mo3       1.0  0.00012  0.87300  0.05820  1.0000
  Mo  Mo4       1.0  0.44900  0.27300  0.13200  1.0000
  Mo  Mo5       1.0  0.14100  0.41100  0.13200  1.0000
  Mo  Mo6       1.0  0.27800  0.58100  0.13200  1.0000
  Mo  Mo7       1.0  0.25000  0.34300  0.25000  1.0000
  Mo  Mo8       1.0  0.40700  0.50000  0.25000  1.0000
  Mo  Mo9       1.0  0.09260  0.65700  0.25000  1.0000
  Mo  Mo10      1.0  0.35900  0.41900  0.36800  1.0000
  Mo  Mo11      1.0  0.05140  0.58900  0.36800  1.0000
  Mo  Mo12      1.0  0.22200  0.72700  0.36800  1.0000
  Mo  Mo13      1.0  0.37400  0.12700  0.44200  1.0000
  Mo  Mo14      1.0  0.50000  0.81500  0.44200  1.0000
  Mo  Mo15      1.0  0.68500  0.94200  0.44200  1.0000
  Mo  Mo16      1.0  0.31500  0.05830  0.55800  1.0000
  Mo  Mo17      1.0  0.50000  0.18500  0.55800  1.0000
  Mo  Mo18      1.0  0.62600  0.87300  0.55800  1.0000
  Mo  Mo19      1.0  0.77800  0.27300  0.63200  1.0000
  Mo  Mo20      1.0  0.94900  0.41100  0.63200  1.0000
  Mo  Mo21      1.0  0.64100  0.58100  0.63200  1.0000
  Mo  Mo22      1.0  0.90700  0.34300  0.75000  1.0000
  Mo  Mo23      1.0  0.59300  0.50000  0.75000  1.0000
  Mo  Mo24      1.0  0.75000  0.65700  0.75000  1.0000
  Mo  Mo25      1.0  0.72200  0.41900  0.86800  1.0000
  Mo  Mo26      1.0  0.85900  0.58900  0.86800  1.0000
  Mo  Mo27      1.0  0.55100  0.72700  0.86800  1.0000
  Mo  Mo28      1.0  0.00000  0.12700  0.94200  1.0000
  Mo  Mo29      1.0  0.18500  0.81500  0.94200  1.0000
  Mo  Mo30      1.0  0.87400  0.94200  0.94200  1.0000
  Se  Se1       1.0  0.32500  0.35100  0.02620  1.0000
  Se  Se2       1.0  0.94300  0.35800  0.05130  1.0000
  Se  Se3       1.0  0.30700  0.75000  0.05130  1.0000
  Se  Se4       1.0  0.69900  0.99500  0.05130  1.0000
  Se  Se5       1.0  0.31200  0.10900  0.14100  1.0000
  Se  Se6       1.0  0.57900  0.45400  0.14100  1.0000
  Se  Se7       1.0  0.96800  0.72000  0.14100  1.0000
  Se  Se8       1.0  0.94500  0.10900  0.16400  1.0000
  Se  Se9       1.0  0.55600  0.19400  0.25000  1.0000
  Se  Se10      1.0  0.94400  0.50000  0.25000  1.0000
  Se  Se11      1.0  0.25000  0.80600  0.25000  1.0000
  Se  Se12      1.0  0.55500  0.89100  0.33600  1.0000
  Se  Se13      1.0  0.18800  0.28000  0.35900  1.0000
  Se  Se14      1.0  0.53200  0.54600  0.35900  1.0000
  Se  Se15      1.0  0.92100  0.89100  0.35900  1.0000
  Se  Se16      1.0  0.19300  0.00542  0.44900  1.0000
  Se  Se17      1.0  0.55700  0.25000  0.44900  1.0000
  Se  Se18      1.0  0.80100  0.64200  0.44900  1.0000
  Se  Se19      1.0  0.17500  0.64900  0.47400  1.0000
  Se  Se20      1.0  0.82500  0.35100  0.52600  1.0000
  Se  Se21      1.0  0.19900  0.35800  0.55100  1.0000
  Se  Se22      1.0  0.44300  0.75000  0.55100  1.0000
  Se  Se23      1.0  0.80700  0.99500  0.55100  1.0000
  Se  Se24      1.0  0.07850  0.10900  0.64100  1.0000
  Se  Se25      1.0  0.46800  0.45400  0.64100  1.0000
  Se  Se26      1.0  0.81200  0.72000  0.64100  1.0000
  Se  Se27      1.0  0.44500  0.10900  0.66400  1.0000
  Se  Se28      1.0  0.75000  0.19400  0.75000  1.0000
  Se  Se29      1.0  0.05570  0.50000  0.75000  1.0000
  Se  Se30      1.0  0.44400  0.80600  0.75000  1.0000
  Se  Se31      1.0  0.05470  0.89100  0.83600  1.0000
  Se  Se32      1.0  0.03230  0.28000  0.85900  1.0000
  Se  Se33      1.0  0.42100  0.54600  0.85900  1.0000
  Se  Se34      1.0  0.68800  0.89100  0.85900  1.0000
  Se  Se35      1.0  0.30100  0.00542  0.94900  1.0000
  Se  Se36      1.0  0.69300  0.25000  0.94900  1.0000
  Se  Se37      1.0  0.05670  0.64200  0.94900  1.0000
  Se  Se38      1.0  0.67500  0.64900  0.97400  1.0000
