data_image0
_chemical_formula_structural       H24K6MnNa2O36W6
_chemical_formula_sum              "H24 K6 Mn1 Na2 O36 W6"
_cell_length_a       9.5683
_cell_length_b       9.5683
_cell_length_c       9.5683
_cell_angle_alpha    95.3455
_cell_angle_beta     84.6545
_cell_angle_gamma    95.3455

_space_group_name_H-M_alt    "P 1"
_space_group_IT_number       1

loop_
  _space_group_symop_operation_xyz
  'x, y, z'

loop_
  _atom_site_type_symbol
  _atom_site_label
  _atom_site_symmetry_multiplicity
  _atom_site_fract_x
  _atom_site_fract_y
  _atom_site_fract_z
  _atom_site_occupancy
  H   H1        1.0  0.03900  0.65400  0.03900  1.0000
  H   H2        1.0  0.34600  0.96100  0.03900  1.0000
  H   H3        1.0  0.09750  0.52400  0.09750  1.0000
  H   H4        1.0  0.47600  0.90200  0.09750  1.0000
  H   H5        1.0  0.39900  0.47900  0.15800  1.0000
  H   H6        1.0  0.52100  0.60100  0.15800  1.0000
  H   H7        1.0  0.03900  0.96100  0.34600  1.0000
  H   H8        1.0  0.15800  0.47900  0.39900  1.0000
  H   H9        1.0  0.52100  0.84200  0.39900  1.0000
  H   H10       1.0  0.09750  0.90200  0.47600  1.0000
  H   H11       1.0  0.60100  0.15800  0.47900  1.0000
  H   H12       1.0  0.84200  0.39900  0.47900  1.0000
  H   H13       1.0  0.15800  0.60100  0.52100  1.0000
  H   H14       1.0  0.39900  0.84200  0.52100  1.0000
  H   H15       1.0  0.90200  0.09750  0.52400  1.0000
  H   H16       1.0  0.47900  0.15800  0.60100  1.0000
  H   H17       1.0  0.84200  0.52100  0.60100  1.0000
  H   H18       1.0  0.96100  0.03900  0.65400  1.0000
  H   H19       1.0  0.47900  0.39900  0.84200  1.0000
  H   H20       1.0  0.60100  0.52100  0.84200  1.0000
  H   H21       1.0  0.52400  0.09750  0.90200  1.0000
  H   H22       1.0  0.90200  0.47600  0.90200  1.0000
  H   H23       1.0  0.65400  0.03900  0.96100  1.0000
  H   H24       1.0  0.96100  0.34600  0.96100  1.0000
  K   K1        1.0  0.66600  0.33400  0.09980  1.0000
  K   K2        1.0  0.33400  0.09980  0.33400  1.0000
  K   K3        1.0  0.90000  0.66600  0.33400  1.0000
  K   K4        1.0  0.09980  0.33400  0.66600  1.0000
  K   K5        1.0  0.66600  0.90000  0.66600  1.0000
  K   K6        1.0  0.33400  0.66600  0.90000  1.0000
  Mn  Mn1       1.0  0.00000  0.00000  0.00000  1.0000
  Na  Na1       1.0  0.26100  0.73900  0.26100  1.0000
  Na  Na2       1.0  0.73900  0.26100  0.73900  1.0000
  O   O1        1.0  0.09000  0.35100  0.09000  1.0000
  O   O2        1.0  0.64900  0.91000  0.09000  1.0000
  O   O3        1.0  0.87100  0.12900  0.09930  1.0000
  O   O4        1.0  0.10400  0.62900  0.10400  1.0000
  O   O5        1.0  0.37100  0.89600  0.10400  1.0000
  O   O6        1.0  0.37200  0.29300  0.12800  1.0000
  O   O7        1.0  0.70700  0.62800  0.12800  1.0000
  O   O8        1.0  0.12900  0.09930  0.12900  1.0000
  O   O9        1.0  0.90100  0.87100  0.12900  1.0000
  O   O10       1.0  0.41800  0.58200  0.15600  1.0000
  O   O11       1.0  0.62800  0.12800  0.29300  1.0000
  O   O12       1.0  0.87200  0.37200  0.29300  1.0000
  O   O13       1.0  0.91000  0.09000  0.35100  1.0000
  O   O14       1.0  0.10400  0.89600  0.37100  1.0000
  O   O15       1.0  0.12800  0.29300  0.37200  1.0000
  O   O16       1.0  0.70700  0.87200  0.37200  1.0000
  O   O17       1.0  0.15600  0.58200  0.41800  1.0000
  O   O18       1.0  0.41800  0.84400  0.41800  1.0000
  O   O19       1.0  0.58200  0.15600  0.58200  1.0000
  O   O20       1.0  0.84400  0.41800  0.58200  1.0000
  O   O21       1.0  0.29300  0.12800  0.62800  1.0000
  O   O22       1.0  0.87200  0.70700  0.62800  1.0000
  O   O23       1.0  0.89600  0.10400  0.62900  1.0000
  O   O24       1.0  0.09000  0.91000  0.64900  1.0000
  O   O25       1.0  0.12800  0.62800  0.70700  1.0000
  O   O26       1.0  0.37200  0.87200  0.70700  1.0000
  O   O27       1.0  0.58200  0.41800  0.84400  1.0000
  O   O28       1.0  0.09930  0.12900  0.87100  1.0000
  O   O29       1.0  0.87100  0.90100  0.87100  1.0000
  O   O30       1.0  0.29300  0.37200  0.87200  1.0000
  O   O31       1.0  0.62800  0.70700  0.87200  1.0000
  O   O32       1.0  0.62900  0.10400  0.89600  1.0000
  O   O33       1.0  0.89600  0.37100  0.89600  1.0000
  O   O34       1.0  0.12900  0.87100  0.90100  1.0000
  O   O35       1.0  0.35100  0.09000  0.91000  1.0000
  O   O36       1.0  0.91000  0.64900  0.91000  1.0000
  W   W1        1.0  0.24800  0.24800  0.00000  1.0000
  W   W2        1.0  0.75200  0.75200  0.00000  1.0000
  W   W3        1.0  0.00000  0.24800  0.24800  1.0000
  W   W4        1.0  0.75200  0.00000  0.24800  1.0000
  W   W5        1.0  0.00000  0.75200  0.75200  1.0000
  W   W6        1.0  0.24800  0.00000  0.75200  1.0000
