data_image0
_chemical_formula_structural       La4Na4O48P16
_chemical_formula_sum              "La4 Na4 O48 P16"
_cell_length_a       7.20136
_cell_length_b       13.0777
_cell_length_c       9.94204
_cell_angle_alpha    90.0009
_cell_angle_beta     90.5354
_cell_angle_gamma    90.0002

_space_group_name_H-M_alt    "P 1"
_space_group_IT_number       1

loop_
  _space_group_symop_operation_xyz
  'x, y, z'

loop_
  _atom_site_type_symbol
  _atom_site_label
  _atom_site_symmetry_multiplicity
  _atom_site_fract_x
  _atom_site_fract_y
  _atom_site_fract_z
  _atom_site_occupancy
  La  La1       1.0  0.48500  0.78700  0.02460  1.0000
  La  La2       1.0  0.01460  0.28700  0.47500  1.0000
  La  La3       1.0  0.98500  0.71300  0.52500  1.0000
  La  La4       1.0  0.51500  0.21300  0.97500  1.0000
  Na  Na1       1.0  0.00055  0.22000  0.06750  1.0000
  Na  Na2       1.0  0.49900  0.72000  0.43300  1.0000
  Na  Na3       1.0  0.50100  0.28000  0.56700  1.0000
  Na  Na4       1.0  0.99900  0.78000  0.93300  1.0000
  O   O1        1.0  0.74300  0.33800  0.07820  1.0000
  O   O2        1.0  0.28300  0.10000  0.09530  1.0000
  O   O3        1.0  0.18400  0.85900  0.09780  1.0000
  O   O4        1.0  0.79100  0.71400  0.10100  1.0000
  O   O5        1.0  0.78300  0.52400  0.12200  1.0000
  O   O6        1.0  0.36900  0.30600  0.15700  1.0000
  O   O7        1.0  0.68700  0.13100  0.16300  1.0000
  O   O8        1.0  0.07540  0.62300  0.16600  1.0000
  O   O9        1.0  0.29000  0.48500  0.20300  1.0000
  O   O10       1.0  0.41200  0.66500  0.20900  1.0000
  O   O11       1.0  0.90300  0.92100  0.21300  1.0000
  O   O12       1.0  0.56000  0.89500  0.21900  1.0000
  O   O13       1.0  0.94000  0.39500  0.28100  1.0000
  O   O14       1.0  0.59700  0.42100  0.28700  1.0000
  O   O15       1.0  0.08850  0.16500  0.29100  1.0000
  O   O16       1.0  0.21000  0.98400  0.29600  1.0000
  O   O17       1.0  0.42500  0.12300  0.33400  1.0000
  O   O18       1.0  0.81300  0.63100  0.33700  1.0000
  O   O19       1.0  0.13100  0.80600  0.34300  1.0000
  O   O20       1.0  0.71700  0.02380  0.37700  1.0000
  O   O21       1.0  0.70900  0.21400  0.39900  1.0000
  O   O22       1.0  0.31600  0.35900  0.40200  1.0000
  O   O23       1.0  0.21700  0.60000  0.40500  1.0000
  O   O24       1.0  0.75700  0.83800  0.42200  1.0000
  O   O25       1.0  0.24300  0.16200  0.57800  1.0000
  O   O26       1.0  0.78400  0.40000  0.59500  1.0000
  O   O27       1.0  0.68400  0.64100  0.59800  1.0000
  O   O28       1.0  0.29100  0.78600  0.60100  1.0000
  O   O29       1.0  0.28300  0.97600  0.62300  1.0000
  O   O30       1.0  0.86900  0.19400  0.65700  1.0000
  O   O31       1.0  0.18700  0.36900  0.66300  1.0000
  O   O32       1.0  0.57500  0.87700  0.66600  1.0000
  O   O33       1.0  0.79000  0.01550  0.70400  1.0000
  O   O34       1.0  0.91200  0.83500  0.70900  1.0000
  O   O35       1.0  0.40300  0.57900  0.71300  1.0000
  O   O36       1.0  0.05970  0.60500  0.71900  1.0000
  O   O37       1.0  0.44000  0.10500  0.78100  1.0000
  O   O38       1.0  0.09730  0.07880  0.78700  1.0000
  O   O39       1.0  0.58800  0.33500  0.79100  1.0000
  O   O40       1.0  0.71000  0.51500  0.79600  1.0000
  O   O41       1.0  0.92500  0.37700  0.83400  1.0000
  O   O42       1.0  0.31300  0.86900  0.83700  1.0000
  O   O43       1.0  0.63100  0.69400  0.84300  1.0000
  O   O44       1.0  0.21700  0.47600  0.87800  1.0000
  O   O45       1.0  0.20900  0.28600  0.89900  1.0000
  O   O46       1.0  0.81600  0.14100  0.90200  1.0000
  O   O47       1.0  0.71700  0.90000  0.90500  1.0000
  O   O48       1.0  0.25700  0.66200  0.92200  1.0000
  P   P1        1.0  0.85600  0.62900  0.19000  1.0000
  P   P2        1.0  0.77500  0.41200  0.19100  1.0000
  P   P3        1.0  0.11400  0.88500  0.23500  1.0000
  P   P4        1.0  0.24500  0.09830  0.24400  1.0000
  P   P5        1.0  0.25500  0.59800  0.25600  1.0000
  P   P6        1.0  0.38600  0.38500  0.26500  1.0000
  P   P7        1.0  0.72500  0.91200  0.30900  1.0000
  P   P8        1.0  0.64400  0.12900  0.31000  1.0000
  P   P9        1.0  0.35600  0.87100  0.69000  1.0000
  P   P10       1.0  0.27500  0.08800  0.69100  1.0000
  P   P11       1.0  0.61400  0.61500  0.73500  1.0000
  P   P12       1.0  0.74500  0.40200  0.74400  1.0000
  P   P13       1.0  0.75500  0.90200  0.75600  1.0000
  P   P14       1.0  0.88600  0.11500  0.76500  1.0000
  P   P15       1.0  0.22500  0.58800  0.80900  1.0000
  P   P16       1.0  0.14400  0.37100  0.81000  1.0000
