data_image0
_chemical_formula_structural       C16Cu8H16O32
_chemical_formula_sum              "C16 Cu8 H16 O32"
_cell_length_a       12.2889
_cell_length_b       9.77186
_cell_length_c       5.81521
_cell_angle_alpha    90
_cell_angle_beta     90
_cell_angle_gamma    90

_space_group_name_H-M_alt    "P 1"
_space_group_IT_number       1

loop_
  _space_group_symop_operation_xyz
  'x, y, z'

loop_
  _atom_site_type_symbol
  _atom_site_label
  _atom_site_symmetry_multiplicity
  _atom_site_fract_x
  _atom_site_fract_y
  _atom_site_fract_z
  _atom_site_occupancy
  C   C1        1.0  0.98900  0.34600  0.13100  1.0000
  C   C2        1.0  0.51100  0.84600  0.13100  1.0000
  C   C3        1.0  0.80400  0.10900  0.14700  1.0000
  C   C4        1.0  0.69600  0.60900  0.14700  1.0000
  C   C5        1.0  0.30400  0.10900  0.35300  1.0000
  C   C6        1.0  0.19600  0.60900  0.35300  1.0000
  C   C7        1.0  0.48900  0.34600  0.36900  1.0000
  C   C8        1.0  0.01090  0.84600  0.36900  1.0000
  C   C9        1.0  0.98900  0.15400  0.63100  1.0000
  C   C10       1.0  0.51100  0.65400  0.63100  1.0000
  C   C11       1.0  0.80400  0.39100  0.64700  1.0000
  C   C12       1.0  0.69600  0.89100  0.64700  1.0000
  C   C13       1.0  0.30400  0.39100  0.85300  1.0000
  C   C14       1.0  0.19600  0.89100  0.85300  1.0000
  C   C15       1.0  0.48900  0.15400  0.86900  1.0000
  C   C16       1.0  0.01090  0.65400  0.86900  1.0000
  Cu  Cu1       1.0  0.96000  0.11700  0.14000  1.0000
  Cu  Cu2       1.0  0.54000  0.61700  0.14000  1.0000
  Cu  Cu3       1.0  0.46000  0.11700  0.36000  1.0000
  Cu  Cu4       1.0  0.04000  0.61700  0.36000  1.0000
  Cu  Cu5       1.0  0.96000  0.38300  0.64000  1.0000
  Cu  Cu6       1.0  0.54000  0.88300  0.64000  1.0000
  Cu  Cu7       1.0  0.46000  0.38300  0.86000  1.0000
  Cu  Cu8       1.0  0.04000  0.88300  0.86000  1.0000
  H   H1        1.0  0.18600  0.29300  0.01220  1.0000
  H   H2        1.0  0.31400  0.79300  0.01220  1.0000
  H   H3        1.0  0.42800  0.16000  0.01550  1.0000
  H   H4        1.0  0.07160  0.66000  0.01550  1.0000
  H   H5        1.0  0.92800  0.16000  0.48400  1.0000
  H   H6        1.0  0.57200  0.66000  0.48400  1.0000
  H   H7        1.0  0.68600  0.29300  0.48800  1.0000
  H   H8        1.0  0.81400  0.79300  0.48800  1.0000
  H   H9        1.0  0.18600  0.20700  0.51200  1.0000
  H   H10       1.0  0.31400  0.70700  0.51200  1.0000
  H   H11       1.0  0.42800  0.34000  0.51600  1.0000
  H   H12       1.0  0.07160  0.84000  0.51600  1.0000
  H   H13       1.0  0.92800  0.34000  0.98400  1.0000
  H   H14       1.0  0.57200  0.84000  0.98400  1.0000
  H   H15       1.0  0.68600  0.20700  0.98800  1.0000
  H   H16       1.0  0.81400  0.70700  0.98800  1.0000
  O   O1        1.0  0.76600  0.21500  0.03480  1.0000
  O   O2        1.0  0.73400  0.71500  0.03480  1.0000
  O   O3        1.0  0.07420  0.27100  0.12700  1.0000
  O   O4        1.0  0.42600  0.77100  0.12700  1.0000
  O   O5        1.0  0.46700  0.43800  0.21900  1.0000
  O   O6        1.0  0.03260  0.93800  0.21900  1.0000
  O   O7        1.0  0.75800  0.01220  0.23200  1.0000
  O   O8        1.0  0.74200  0.51200  0.23200  1.0000
  O   O9        1.0  0.25800  0.01220  0.26800  1.0000
  O   O10       1.0  0.24200  0.51200  0.26800  1.0000
  O   O11       1.0  0.96700  0.43800  0.28100  1.0000
  O   O12       1.0  0.53300  0.93800  0.28100  1.0000
  O   O13       1.0  0.57400  0.27100  0.37300  1.0000
  O   O14       1.0  0.92600  0.77100  0.37300  1.0000
  O   O15       1.0  0.26600  0.21500  0.46500  1.0000
  O   O16       1.0  0.23400  0.71500  0.46500  1.0000
  O   O17       1.0  0.76600  0.28500  0.53500  1.0000
  O   O18       1.0  0.73400  0.78500  0.53500  1.0000
  O   O19       1.0  0.07420  0.22900  0.62700  1.0000
  O   O20       1.0  0.42600  0.72900  0.62700  1.0000
  O   O21       1.0  0.46700  0.06240  0.71900  1.0000
  O   O22       1.0  0.03260  0.56200  0.71900  1.0000
  O   O23       1.0  0.75800  0.48800  0.73200  1.0000
  O   O24       1.0  0.74200  0.98800  0.73200  1.0000
  O   O25       1.0  0.25800  0.48800  0.76800  1.0000
  O   O26       1.0  0.24200  0.98800  0.76800  1.0000
  O   O27       1.0  0.96700  0.06240  0.78100  1.0000
  O   O28       1.0  0.53300  0.56200  0.78100  1.0000
  O   O29       1.0  0.57400  0.22900  0.87300  1.0000
  O   O30       1.0  0.92600  0.72900  0.87300  1.0000
  O   O31       1.0  0.26600  0.28500  0.96500  1.0000
  O   O32       1.0  0.23400  0.78500  0.96500  1.0000
