data_image0
_chemical_formula_structural       Ge22Ni36Sc12
_chemical_formula_sum              "Ge22 Ni36 Sc12"
_cell_length_a       8.21212
_cell_length_b       11.862
_cell_length_c       11.862
_cell_angle_alpha    101.735
_cell_angle_beta     110.252
_cell_angle_gamma    110.252

_space_group_name_H-M_alt    "P 1"
_space_group_IT_number       1

loop_
  _space_group_symop_operation_xyz
  'x, y, z'

loop_
  _atom_site_type_symbol
  _atom_site_label
  _atom_site_symmetry_multiplicity
  _atom_site_fract_x
  _atom_site_fract_y
  _atom_site_fract_z
  _atom_site_occupancy
  Ge  Ge1       1.0  0.00000  0.00000  0.00000  1.0000
  Ge  Ge2       1.0  0.50000  0.00000  0.00000  1.0000
  Ge  Ge3       1.0  0.43400  0.32500  0.01110  1.0000
  Ge  Ge4       1.0  0.90100  0.32500  0.01110  1.0000
  Ge  Ge5       1.0  0.28500  0.40000  0.17100  1.0000
  Ge  Ge6       1.0  0.82200  0.32200  0.32200  1.0000
  Ge  Ge7       1.0  0.43400  0.01110  0.32500  1.0000
  Ge  Ge8       1.0  0.90100  0.01110  0.32500  1.0000
  Ge  Ge9       1.0  0.17700  0.66900  0.33100  1.0000
  Ge  Ge10      1.0  0.82300  0.66900  0.33100  1.0000
  Ge  Ge11      1.0  0.28500  0.17100  0.40000  1.0000
  Ge  Ge12      1.0  0.27000  0.50000  0.50000  1.0000
  Ge  Ge13      1.0  0.73000  0.50000  0.50000  1.0000
  Ge  Ge14      1.0  0.71500  0.82900  0.60000  1.0000
  Ge  Ge15      1.0  0.17700  0.33100  0.66900  1.0000
  Ge  Ge16      1.0  0.82300  0.33100  0.66900  1.0000
  Ge  Ge17      1.0  0.09850  0.98900  0.67500  1.0000
  Ge  Ge18      1.0  0.56600  0.98900  0.67500  1.0000
  Ge  Ge19      1.0  0.17800  0.67800  0.67800  1.0000
  Ge  Ge20      1.0  0.71500  0.60000  0.82900  1.0000
  Ge  Ge21      1.0  0.09850  0.67500  0.98900  1.0000
  Ge  Ge22      1.0  0.56600  0.67500  0.98900  1.0000
  Ni  Ni1       1.0  0.90000  0.78600  0.01420  1.0000
  Ni  Ni2       1.0  0.26700  0.92400  0.07590  1.0000
  Ni  Ni3       1.0  0.73300  0.92400  0.07590  1.0000
  Ni  Ni4       1.0  0.66800  0.24400  0.09100  1.0000
  Ni  Ni5       1.0  0.18100  0.56500  0.12900  1.0000
  Ni  Ni6       1.0  0.51300  0.56500  0.12900  1.0000
  Ni  Ni7       1.0  0.16400  0.79200  0.20800  1.0000
  Ni  Ni8       1.0  0.83600  0.79200  0.20800  1.0000
  Ni  Ni9       1.0  0.09980  0.98600  0.21400  1.0000
  Ni  Ni10      1.0  0.66800  0.09100  0.24400  1.0000
  Ni  Ni11      1.0  0.07010  0.43700  0.26500  1.0000
  Ni  Ni12      1.0  0.63200  0.43700  0.26500  1.0000
  Ni  Ni13      1.0  0.38200  0.38200  0.38200  1.0000
  Ni  Ni14      1.0  0.00000  0.56700  0.43300  1.0000
  Ni  Ni15      1.0  0.48700  0.87100  0.43500  1.0000
  Ni  Ni16      1.0  0.81900  0.87100  0.43500  1.0000
  Ni  Ni17      1.0  0.07010  0.26500  0.43700  1.0000
  Ni  Ni18      1.0  0.63200  0.26500  0.43700  1.0000
  Ni  Ni19      1.0  0.36800  0.73500  0.56300  1.0000
  Ni  Ni20      1.0  0.93000  0.73500  0.56300  1.0000
  Ni  Ni21      1.0  0.18100  0.12900  0.56500  1.0000
  Ni  Ni22      1.0  0.51300  0.12900  0.56500  1.0000
  Ni  Ni23      1.0  1.00000  0.43300  0.56700  1.0000
  Ni  Ni24      1.0  0.61800  0.61800  0.61800  1.0000
  Ni  Ni25      1.0  0.36800  0.56300  0.73500  1.0000
  Ni  Ni26      1.0  0.93000  0.56300  0.73500  1.0000
  Ni  Ni27      1.0  0.33200  0.90900  0.75600  1.0000
  Ni  Ni28      1.0  0.90000  0.01420  0.78600  1.0000
  Ni  Ni29      1.0  0.16400  0.20800  0.79200  1.0000
  Ni  Ni30      1.0  0.83600  0.20800  0.79200  1.0000
  Ni  Ni31      1.0  0.48700  0.43500  0.87100  1.0000
  Ni  Ni32      1.0  0.81900  0.43500  0.87100  1.0000
  Ni  Ni33      1.0  0.33200  0.75600  0.90900  1.0000
  Ni  Ni34      1.0  0.26700  0.07590  0.92400  1.0000
  Ni  Ni35      1.0  0.73300  0.07590  0.92400  1.0000
  Ni  Ni36      1.0  0.09980  0.21400  0.98600  1.0000
  Sc  Sc1       1.0  0.81700  0.53600  0.09750  1.0000
  Sc  Sc2       1.0  0.38600  0.18200  0.18200  1.0000
  Sc  Sc3       1.0  0.97800  0.18200  0.18200  1.0000
  Sc  Sc4       1.0  0.50000  0.81000  0.19000  1.0000
  Sc  Sc5       1.0  0.50000  0.63000  0.37000  1.0000
  Sc  Sc6       1.0  0.18300  0.90300  0.46400  1.0000
  Sc  Sc7       1.0  0.81700  0.09750  0.53600  1.0000
  Sc  Sc8       1.0  0.50000  0.37000  0.63000  1.0000
  Sc  Sc9       1.0  0.50000  0.19000  0.81000  1.0000
  Sc  Sc10      1.0  0.02240  0.81800  0.81800  1.0000
  Sc  Sc11      1.0  0.61400  0.81800  0.81800  1.0000
  Sc  Sc12      1.0  0.18300  0.46400  0.90300  1.0000
