data_image0
_chemical_formula_structural       Mg6Zn33
_chemical_formula_sum              "Mg6 Zn33"
_cell_length_a       8.49642
_cell_length_b       8.49642
_cell_length_c       8.49642
_cell_angle_alpha    90
_cell_angle_beta     90
_cell_angle_gamma    90

_space_group_name_H-M_alt    "P 1"
_space_group_IT_number       1

loop_
  _space_group_symop_operation_xyz
  'x, y, z'

loop_
  _atom_site_type_symbol
  _atom_site_label
  _atom_site_symmetry_multiplicity
  _atom_site_fract_x
  _atom_site_fract_y
  _atom_site_fract_z
  _atom_site_occupancy
  Mg  Mg1       1.0  0.50000  0.30200  0.00000  1.0000
  Mg  Mg2       1.0  0.50000  0.69800  0.00000  1.0000
  Mg  Mg3       1.0  0.00000  0.50000  0.30200  1.0000
  Mg  Mg4       1.0  0.30200  0.00000  0.50000  1.0000
  Mg  Mg5       1.0  0.69800  0.00000  0.50000  1.0000
  Mg  Mg6       1.0  0.00000  0.50000  0.69800  1.0000
  Zn  Zn1       1.0  0.23000  0.00000  0.00000  1.0000
  Zn  Zn2       1.0  0.77000  0.00000  0.00000  1.0000
  Zn  Zn3       1.0  0.00000  0.23000  0.00000  1.0000
  Zn  Zn4       1.0  0.16000  0.50000  0.00000  1.0000
  Zn  Zn5       1.0  0.84000  0.50000  0.00000  1.0000
  Zn  Zn6       1.0  0.00000  0.77000  0.00000  1.0000
  Zn  Zn7       1.0  0.50000  0.00000  0.16000  1.0000
  Zn  Zn8       1.0  0.21800  0.21800  0.21800  1.0000
  Zn  Zn9       1.0  0.78200  0.21800  0.21800  1.0000
  Zn  Zn10      1.0  0.21800  0.78200  0.21800  1.0000
  Zn  Zn11      1.0  0.78200  0.78200  0.21800  1.0000
  Zn  Zn12      1.0  0.00000  0.00000  0.23000  1.0000
  Zn  Zn13      1.0  0.34300  0.50000  0.23400  1.0000
  Zn  Zn14      1.0  0.65700  0.50000  0.23400  1.0000
  Zn  Zn15      1.0  0.50000  0.23400  0.34300  1.0000
  Zn  Zn16      1.0  0.50000  0.76600  0.34300  1.0000
  Zn  Zn17      1.0  0.00000  0.16000  0.50000  1.0000
  Zn  Zn18      1.0  0.23400  0.34300  0.50000  1.0000
  Zn  Zn19      1.0  0.76600  0.34300  0.50000  1.0000
  Zn  Zn20      1.0  0.50000  0.50000  0.50000  1.0000
  Zn  Zn21      1.0  0.23400  0.65700  0.50000  1.0000
  Zn  Zn22      1.0  0.76600  0.65700  0.50000  1.0000
  Zn  Zn23      1.0  0.00000  0.84000  0.50000  1.0000
  Zn  Zn24      1.0  0.50000  0.23400  0.65700  1.0000
  Zn  Zn25      1.0  0.50000  0.76600  0.65700  1.0000
  Zn  Zn26      1.0  0.34300  0.50000  0.76600  1.0000
  Zn  Zn27      1.0  0.65700  0.50000  0.76600  1.0000
  Zn  Zn28      1.0  0.00000  0.00000  0.77000  1.0000
  Zn  Zn29      1.0  0.21800  0.21800  0.78200  1.0000
  Zn  Zn30      1.0  0.78200  0.21800  0.78200  1.0000
  Zn  Zn31      1.0  0.21800  0.78200  0.78200  1.0000
  Zn  Zn32      1.0  0.78200  0.78200  0.78200  1.0000
  Zn  Zn33      1.0  0.50000  0.00000  0.84000  1.0000
