data_image0
_chemical_formula_structural       Al4Na2O48Si20
_chemical_formula_sum              "Al4 Na2 O48 Si20"
_cell_length_a       7.55671
_cell_length_b       13.5463
_cell_length_c       13.5463
_cell_angle_alpha    96.6154
_cell_angle_beta     90
_cell_angle_gamma    90

_space_group_name_H-M_alt    "P 1"
_space_group_IT_number       1

loop_
  _space_group_symop_operation_xyz
  'x, y, z'

loop_
  _atom_site_type_symbol
  _atom_site_label
  _atom_site_symmetry_multiplicity
  _atom_site_fract_x
  _atom_site_fract_y
  _atom_site_fract_z
  _atom_site_occupancy
  Al  Al1       1.0  0.25000  0.52000  0.30400  1.0000
  Al  Al2       1.0  0.25000  0.69600  0.48000  1.0000
  Al  Al3       1.0  0.75000  0.30400  0.52000  1.0000
  Al  Al4       1.0  0.75000  0.48000  0.69600  1.0000
  Na  Na1       1.0  0.00000  0.50000  0.50000  1.0000
  Na  Na2       1.0  0.50000  0.50000  0.50000  1.0000
  O   O1        1.0  0.00000  0.50000  0.00000  1.0000
  O   O2        1.0  0.50000  0.50000  0.00000  1.0000
  O   O3        1.0  0.75000  0.63300  0.04740  1.0000
  O   O4        1.0  0.07610  0.68500  0.07380  1.0000
  O   O5        1.0  0.42400  0.68500  0.07380  1.0000
  O   O6        1.0  0.04490  0.35500  0.10900  1.0000
  O   O7        1.0  0.45500  0.35500  0.10900  1.0000
  O   O8        1.0  0.25000  0.79800  0.20200  1.0000
  O   O9        1.0  0.25000  0.60200  0.21400  1.0000
  O   O10       1.0  0.75000  0.38700  0.21600  1.0000
  O   O11       1.0  0.00000  0.25600  0.25600  1.0000
  O   O12       1.0  0.50000  0.25600  0.25600  1.0000
  O   O13       1.0  0.05460  0.45000  0.29400  1.0000
  O   O14       1.0  0.44500  0.45000  0.29400  1.0000
  O   O15       1.0  0.07610  0.92600  0.31500  1.0000
  O   O16       1.0  0.42400  0.92600  0.31500  1.0000
  O   O17       1.0  0.54500  0.10900  0.35500  1.0000
  O   O18       1.0  0.95500  0.10900  0.35500  1.0000
  O   O19       1.0  0.75000  0.95300  0.36700  1.0000
  O   O20       1.0  0.25000  0.21600  0.38700  1.0000
  O   O21       1.0  0.25000  0.78600  0.39800  1.0000
  O   O22       1.0  0.25000  0.57100  0.42900  1.0000
  O   O23       1.0  0.55500  0.29400  0.45000  1.0000
  O   O24       1.0  0.94500  0.29400  0.45000  1.0000
  O   O25       1.0  0.00000  0.00000  0.50000  1.0000
  O   O26       1.0  0.50000  0.00000  0.50000  1.0000
  O   O27       1.0  0.05460  0.70600  0.55000  1.0000
  O   O28       1.0  0.44500  0.70600  0.55000  1.0000
  O   O29       1.0  0.75000  0.42900  0.57100  1.0000
  O   O30       1.0  0.75000  0.21400  0.60200  1.0000
  O   O31       1.0  0.75000  0.78400  0.61300  1.0000
  O   O32       1.0  0.25000  0.04740  0.63300  1.0000
  O   O33       1.0  0.04490  0.89100  0.64500  1.0000
  O   O34       1.0  0.45500  0.89100  0.64500  1.0000
  O   O35       1.0  0.57600  0.07380  0.68500  1.0000
  O   O36       1.0  0.92400  0.07380  0.68500  1.0000
  O   O37       1.0  0.55500  0.55000  0.70600  1.0000
  O   O38       1.0  0.94500  0.55000  0.70600  1.0000
  O   O39       1.0  0.00000  0.74400  0.74400  1.0000
  O   O40       1.0  0.50000  0.74400  0.74400  1.0000
  O   O41       1.0  0.25000  0.61300  0.78400  1.0000
  O   O42       1.0  0.75000  0.39800  0.78600  1.0000
  O   O43       1.0  0.75000  0.20200  0.79800  1.0000
  O   O44       1.0  0.54500  0.64500  0.89100  1.0000
  O   O45       1.0  0.95500  0.64500  0.89100  1.0000
  O   O46       1.0  0.57600  0.31500  0.92600  1.0000
  O   O47       1.0  0.92400  0.31500  0.92600  1.0000
  O   O48       1.0  0.25000  0.36700  0.95300  1.0000
  Si  Si1       1.0  0.55300  0.61500  0.00237  1.0000
  Si  Si2       1.0  0.94700  0.61500  0.00237  1.0000
  Si  Si3       1.0  0.25000  0.68800  0.14400  1.0000
  Si  Si4       1.0  0.53900  0.36400  0.21900  1.0000
  Si  Si5       1.0  0.96100  0.36400  0.21900  1.0000
  Si  Si6       1.0  0.25000  0.85600  0.31200  1.0000
  Si  Si7       1.0  0.03910  0.21900  0.36400  1.0000
  Si  Si8       1.0  0.46100  0.21900  0.36400  1.0000
  Si  Si9       1.0  0.55300  0.99800  0.38500  1.0000
  Si  Si10      1.0  0.94700  0.99800  0.38500  1.0000
  Si  Si11      1.0  0.05320  0.00237  0.61500  1.0000
  Si  Si12      1.0  0.44700  0.00237  0.61500  1.0000
  Si  Si13      1.0  0.53900  0.78100  0.63600  1.0000
  Si  Si14      1.0  0.96100  0.78100  0.63600  1.0000
  Si  Si15      1.0  0.75000  0.14400  0.68800  1.0000
  Si  Si16      1.0  0.03910  0.63600  0.78100  1.0000
  Si  Si17      1.0  0.46100  0.63600  0.78100  1.0000
  Si  Si18      1.0  0.75000  0.31200  0.85600  1.0000
  Si  Si19      1.0  0.05320  0.38500  0.99800  1.0000
  Si  Si20      1.0  0.44700  0.38500  0.99800  1.0000
