data_image0
_chemical_formula_structural       Cu12H16Mo4O32
_chemical_formula_sum              "Cu12 H16 Mo4 O32"
_cell_length_a       8.5201
_cell_length_b       12.545
_cell_length_c       6.0794
_cell_angle_alpha    90
_cell_angle_beta     90
_cell_angle_gamma    90

_space_group_name_H-M_alt    "P 1"
_space_group_IT_number       1

loop_
  _space_group_symop_operation_xyz
  'x, y, z'

loop_
  _atom_site_type_symbol
  _atom_site_label
  _atom_site_symmetry_multiplicity
  _atom_site_fract_x
  _atom_site_fract_y
  _atom_site_fract_z
  _atom_site_occupancy
  Cu  Cu1       1.0  0.00000  0.00000  0.00000  1.0000
  Cu  Cu2       1.0  0.50000  0.50000  0.00000  1.0000
  Cu  Cu3       1.0  0.26900  0.13300  0.24900  1.0000
  Cu  Cu4       1.0  0.73100  0.86700  0.24900  1.0000
  Cu  Cu5       1.0  0.76900  0.36700  0.25100  1.0000
  Cu  Cu6       1.0  0.23100  0.63300  0.25100  1.0000
  Cu  Cu7       1.0  0.00000  0.00000  0.50000  1.0000
  Cu  Cu8       1.0  0.50000  0.50000  0.50000  1.0000
  Cu  Cu9       1.0  0.76900  0.36700  0.74900  1.0000
  Cu  Cu10      1.0  0.23100  0.63300  0.74900  1.0000
  Cu  Cu11      1.0  0.26900  0.13300  0.75100  1.0000
  Cu  Cu12      1.0  0.73100  0.86700  0.75100  1.0000
  H   H1        1.0  0.64500  0.00402  0.00000  1.0000
  H   H2        1.0  0.64800  0.26900  0.00000  1.0000
  H   H3        1.0  0.35200  0.73100  0.00000  1.0000
  H   H4        1.0  0.35500  0.99600  0.00000  1.0000
  H   H5        1.0  0.96600  0.15400  0.25000  1.0000
  H   H6        1.0  0.03400  0.84600  0.25000  1.0000
  H   H7        1.0  0.46600  0.34600  0.25000  1.0000
  H   H8        1.0  0.53400  0.65400  0.25000  1.0000
  H   H9        1.0  0.14800  0.23100  0.50000  1.0000
  H   H10       1.0  0.14500  0.49600  0.50000  1.0000
  H   H11       1.0  0.85500  0.50400  0.50000  1.0000
  H   H12       1.0  0.85200  0.76900  0.50000  1.0000
  H   H13       1.0  0.46600  0.34600  0.75000  1.0000
  H   H14       1.0  0.53400  0.65400  0.75000  1.0000
  H   H15       1.0  0.96600  0.15400  0.75000  1.0000
  H   H16       1.0  0.03400  0.84600  0.75000  1.0000
  Mo  Mo1       1.0  0.12400  0.36900  0.00000  1.0000
  Mo  Mo2       1.0  0.87600  0.63100  0.00000  1.0000
  Mo  Mo3       1.0  0.62400  0.13100  0.50000  1.0000
  Mo  Mo4       1.0  0.37600  0.86900  0.50000  1.0000
  O   O1        1.0  0.25800  0.04250  0.00000  1.0000
  O   O2        1.0  0.26800  0.26800  0.00000  1.0000
  O   O3        1.0  0.78900  0.27600  0.00000  1.0000
  O   O4        1.0  0.22300  0.49300  0.00000  1.0000
  O   O5        1.0  0.77700  0.50700  0.00000  1.0000
  O   O6        1.0  0.21100  0.72400  0.00000  1.0000
  O   O7        1.0  0.73200  0.73200  0.00000  1.0000
  O   O8        1.0  0.74200  0.95800  0.00000  1.0000
  O   O9        1.0  0.00802  0.35700  0.23800  1.0000
  O   O10       1.0  0.99200  0.64300  0.23800  1.0000
  O   O11       1.0  0.53800  0.40400  0.24900  1.0000
  O   O12       1.0  0.46200  0.59600  0.24900  1.0000
  O   O13       1.0  0.03780  0.09600  0.25100  1.0000
  O   O14       1.0  0.96200  0.90400  0.25100  1.0000
  O   O15       1.0  0.50800  0.14300  0.26200  1.0000
  O   O16       1.0  0.49200  0.85700  0.26200  1.0000
  O   O17       1.0  0.72300  0.00710  0.50000  1.0000
  O   O18       1.0  0.28900  0.22400  0.50000  1.0000
  O   O19       1.0  0.76800  0.23200  0.50000  1.0000
  O   O20       1.0  0.75800  0.45800  0.50000  1.0000
  O   O21       1.0  0.24200  0.54200  0.50000  1.0000
  O   O22       1.0  0.23200  0.76800  0.50000  1.0000
  O   O23       1.0  0.71100  0.77600  0.50000  1.0000
  O   O24       1.0  0.27700  0.99300  0.50000  1.0000
  O   O25       1.0  0.50800  0.14300  0.73800  1.0000
  O   O26       1.0  0.49200  0.85700  0.73800  1.0000
  O   O27       1.0  0.03780  0.09600  0.74900  1.0000
  O   O28       1.0  0.96200  0.90400  0.74900  1.0000
  O   O29       1.0  0.53800  0.40400  0.75100  1.0000
  O   O30       1.0  0.46200  0.59600  0.75100  1.0000
  O   O31       1.0  0.00802  0.35700  0.76200  1.0000
  O   O32       1.0  0.99200  0.64300  0.76200  1.0000
