data_image0
_chemical_formula_structural       Be2Gd2O2Te2
_chemical_formula_sum              "Be2 Gd2 O2 Te2"
_cell_length_a       4.28189
_cell_length_b       4.28189
_cell_length_c       9.32874
_cell_angle_alpha    90
_cell_angle_beta     103.268
_cell_angle_gamma    120

_space_group_name_H-M_alt    "P 1"
_space_group_IT_number       1

loop_
  _space_group_symop_operation_xyz
  'x, y, z'

loop_
  _atom_site_type_symbol
  _atom_site_label
  _atom_site_symmetry_multiplicity
  _atom_site_fract_x
  _atom_site_fract_y
  _atom_site_fract_z
  _atom_site_occupancy
  Be  Be1       1.0  0.75600  0.37800  0.13300  1.0000
  Be  Be2       1.0  0.24400  0.62200  0.86700  1.0000
  Gd  Gd1       1.0  0.60300  0.80200  0.40500  1.0000
  Gd  Gd2       1.0  0.39700  0.19800  0.59500  1.0000
  O   O1        1.0  0.39300  0.69600  0.08920  1.0000
  O   O2        1.0  0.60700  0.30400  0.91100  1.0000
  Te  Te1       1.0  0.20700  0.10400  0.31100  1.0000
  Te  Te2       1.0  0.79300  0.89600  0.68900  1.0000
