data_image0
_chemical_formula_structural       Cl24F36Sb12
_chemical_formula_sum              "Cl24 F36 Sb12"
_cell_length_a       10.8955
_cell_length_b       9.95544
_cell_length_c       12.5614
_cell_angle_alpha    90
_cell_angle_beta     91.8938
_cell_angle_gamma    90

_space_group_name_H-M_alt    "P 1"
_space_group_IT_number       1

loop_
  _space_group_symop_operation_xyz
  'x, y, z'

loop_
  _atom_site_type_symbol
  _atom_site_label
  _atom_site_symmetry_multiplicity
  _atom_site_fract_x
  _atom_site_fract_y
  _atom_site_fract_z
  _atom_site_occupancy
  Cl  Cl1       1.0  0.43000  0.67000  0.00516  1.0000
  Cl  Cl2       1.0  0.85800  0.10100  0.05580  1.0000
  Cl  Cl3       1.0  0.18300  0.65400  0.17800  1.0000
  Cl  Cl4       1.0  0.00000  0.29800  0.22400  1.0000
  Cl  Cl5       1.0  0.45200  0.43000  0.22500  1.0000
  Cl  Cl6       1.0  0.60500  0.16500  0.23900  1.0000
  Cl  Cl7       1.0  0.89500  0.66500  0.26100  1.0000
  Cl  Cl8       1.0  0.04820  0.93000  0.27500  1.0000
  Cl  Cl9       1.0  0.50000  0.79800  0.27600  1.0000
  Cl  Cl10      1.0  0.31700  0.15400  0.32200  1.0000
  Cl  Cl11      1.0  0.64200  0.60100  0.44400  1.0000
  Cl  Cl12      1.0  0.07010  0.17000  0.49500  1.0000
  Cl  Cl13      1.0  0.93000  0.83000  0.50500  1.0000
  Cl  Cl14      1.0  0.35800  0.39900  0.55600  1.0000
  Cl  Cl15      1.0  0.68300  0.84600  0.67800  1.0000
  Cl  Cl16      1.0  0.50000  0.20200  0.72400  1.0000
  Cl  Cl17      1.0  0.95200  0.06960  0.72500  1.0000
  Cl  Cl18      1.0  0.10500  0.33500  0.73900  1.0000
  Cl  Cl19      1.0  0.39500  0.83500  0.76100  1.0000
  Cl  Cl20      1.0  0.54800  0.57000  0.77500  1.0000
  Cl  Cl21      1.0  0.00000  0.70200  0.77600  1.0000
  Cl  Cl22      1.0  0.81700  0.34600  0.82200  1.0000
  Cl  Cl23      1.0  0.14200  0.89900  0.94400  1.0000
  Cl  Cl24      1.0  0.57000  0.33000  0.99500  1.0000
  F   F1        1.0  0.96800  0.63200  0.03350  1.0000
  F   F2        1.0  0.25700  0.41200  0.04270  1.0000
  F   F3        1.0  0.59600  0.98100  0.07120  1.0000
  F   F4        1.0  0.78700  0.81100  0.07770  1.0000
  F   F5        1.0  0.37800  0.17900  0.09170  1.0000
  F   F6        1.0  0.82400  0.41700  0.11400  1.0000
  F   F7        1.0  0.15000  0.11200  0.11700  1.0000
  F   F8        1.0  0.32900  0.91700  0.13300  1.0000
  F   F9        1.0  0.65200  0.60700  0.15200  1.0000
  F   F10       1.0  0.84800  0.10700  0.34800  1.0000
  F   F11       1.0  0.17100  0.41700  0.36700  1.0000
  F   F12       1.0  0.35000  0.61200  0.38300  1.0000
  F   F13       1.0  0.67600  0.91700  0.38600  1.0000
  F   F14       1.0  0.12200  0.67900  0.40800  1.0000
  F   F15       1.0  0.71300  0.31100  0.42200  1.0000
  F   F16       1.0  0.90400  0.48100  0.42900  1.0000
  F   F17       1.0  0.24300  0.91200  0.45700  1.0000
  F   F18       1.0  0.53200  0.13200  0.46700  1.0000
  F   F19       1.0  0.46800  0.86800  0.53300  1.0000
  F   F20       1.0  0.75700  0.08760  0.54300  1.0000
  F   F21       1.0  0.09630  0.51900  0.57100  1.0000
  F   F22       1.0  0.28700  0.68900  0.57800  1.0000
  F   F23       1.0  0.87800  0.32100  0.59200  1.0000
  F   F24       1.0  0.32400  0.08330  0.61400  1.0000
  F   F25       1.0  0.65000  0.38800  0.61700  1.0000
  F   F26       1.0  0.82900  0.58300  0.63300  1.0000
  F   F27       1.0  0.15200  0.89300  0.65200  1.0000
  F   F28       1.0  0.34800  0.39300  0.84800  1.0000
  F   F29       1.0  0.67100  0.08320  0.86700  1.0000
  F   F30       1.0  0.85000  0.88800  0.88300  1.0000
  F   F31       1.0  0.17600  0.58300  0.88600  1.0000
  F   F32       1.0  0.62200  0.82100  0.90800  1.0000
  F   F33       1.0  0.21300  0.18900  0.92200  1.0000
  F   F34       1.0  0.40400  0.01890  0.92900  1.0000
  F   F35       1.0  0.74300  0.58800  0.95700  1.0000
  F   F36       1.0  0.03160  0.36800  0.96700  1.0000
  Sb  Sb1       1.0  0.27800  0.04470  0.02730  1.0000
  Sb  Sb2       1.0  0.81400  0.60600  0.09650  1.0000
  Sb  Sb3       1.0  0.39100  0.64300  0.18100  1.0000
  Sb  Sb4       1.0  0.10900  0.14300  0.31900  1.0000
  Sb  Sb5       1.0  0.68600  0.10600  0.40300  1.0000
  Sb  Sb6       1.0  0.22200  0.54500  0.47300  1.0000
  Sb  Sb7       1.0  0.77800  0.45500  0.52700  1.0000
  Sb  Sb8       1.0  0.31400  0.89400  0.59700  1.0000
  Sb  Sb9       1.0  0.89100  0.85700  0.68100  1.0000
  Sb  Sb10      1.0  0.60900  0.35700  0.81900  1.0000
  Sb  Sb11      1.0  0.18600  0.39400  0.90300  1.0000
  Sb  Sb12      1.0  0.72200  0.95500  0.97300  1.0000
