data_image0
_chemical_formula_structural       K8Mg8O48S12
_chemical_formula_sum              "K8 Mg8 O48 S12"
_cell_length_a       9.84651
_cell_length_b       9.84651
_cell_length_c       9.84651
_cell_angle_alpha    90
_cell_angle_beta     90
_cell_angle_gamma    90

_space_group_name_H-M_alt    "P 1"
_space_group_IT_number       1

loop_
  _space_group_symop_operation_xyz
  'x, y, z'

loop_
  _atom_site_type_symbol
  _atom_site_label
  _atom_site_symmetry_multiplicity
  _atom_site_fract_x
  _atom_site_fract_y
  _atom_site_fract_z
  _atom_site_occupancy
  K   K1        1.0  0.04670  0.04670  0.04670  1.0000
  K   K2        1.0  0.31700  0.68300  0.18300  1.0000
  K   K3        1.0  0.68300  0.18300  0.31700  1.0000
  K   K4        1.0  0.95300  0.54700  0.45300  1.0000
  K   K5        1.0  0.45300  0.95300  0.54700  1.0000
  K   K6        1.0  0.18300  0.31700  0.68300  1.0000
  K   K7        1.0  0.81700  0.81700  0.81700  1.0000
  K   K8        1.0  0.54700  0.45300  0.95300  1.0000
  Mg  Mg1       1.0  0.90300  0.40300  0.09740  1.0000
  Mg  Mg2       1.0  0.66600  0.83400  0.16600  1.0000
  Mg  Mg3       1.0  0.33400  0.33400  0.33400  1.0000
  Mg  Mg4       1.0  0.09740  0.90300  0.40300  1.0000
  Mg  Mg5       1.0  0.59700  0.59700  0.59700  1.0000
  Mg  Mg6       1.0  0.83400  0.16600  0.66600  1.0000
  Mg  Mg7       1.0  0.16600  0.66600  0.83400  1.0000
  Mg  Mg8       1.0  0.40300  0.09740  0.90300  1.0000
  O   O1        1.0  0.07420  0.32700  0.00240  1.0000
  O   O2        1.0  0.56000  0.76200  0.00302  1.0000
  O   O3        1.0  0.80900  0.22700  0.04020  1.0000
  O   O4        1.0  0.73800  0.99700  0.05970  1.0000
  O   O5        1.0  0.32700  0.00240  0.07420  1.0000
  O   O6        1.0  0.83900  0.74700  0.09700  1.0000
  O   O7        1.0  0.24700  0.40300  0.16100  1.0000
  O   O8        1.0  0.99800  0.57400  0.17300  1.0000
  O   O9        1.0  0.72700  0.46000  0.19100  1.0000
  O   O10       1.0  0.04020  0.80900  0.22700  1.0000
  O   O11       1.0  0.50300  0.94000  0.23800  1.0000
  O   O12       1.0  0.40300  0.16100  0.24700  1.0000
  O   O13       1.0  0.59700  0.66100  0.25300  1.0000
  O   O14       1.0  0.49700  0.44000  0.26200  1.0000
  O   O15       1.0  0.96000  0.30900  0.27300  1.0000
  O   O16       1.0  0.27300  0.96000  0.30900  1.0000
  O   O17       1.0  0.00240  0.07420  0.32700  1.0000
  O   O18       1.0  0.75300  0.90300  0.33900  1.0000
  O   O19       1.0  0.16100  0.24700  0.40300  1.0000
  O   O20       1.0  0.67300  0.50200  0.42600  1.0000
  O   O21       1.0  0.26200  0.49700  0.44000  1.0000
  O   O22       1.0  0.19100  0.72700  0.46000  1.0000
  O   O23       1.0  0.44000  0.26200  0.49700  1.0000
  O   O24       1.0  0.92600  0.82700  0.49800  1.0000
  O   O25       1.0  0.42600  0.67300  0.50200  1.0000
  O   O26       1.0  0.94000  0.23800  0.50300  1.0000
  O   O27       1.0  0.69100  0.77300  0.54000  1.0000
  O   O28       1.0  0.76200  0.00302  0.56000  1.0000
  O   O29       1.0  0.17300  0.99800  0.57400  1.0000
  O   O30       1.0  0.66100  0.25300  0.59700  1.0000
  O   O31       1.0  0.25300  0.59700  0.66100  1.0000
  O   O32       1.0  0.50200  0.42600  0.67300  1.0000
  O   O33       1.0  0.77300  0.54000  0.69100  1.0000
  O   O34       1.0  0.46000  0.19100  0.72700  1.0000
  O   O35       1.0  0.99700  0.05970  0.73800  1.0000
  O   O36       1.0  0.09700  0.83900  0.74700  1.0000
  O   O37       1.0  0.90300  0.33900  0.75300  1.0000
  O   O38       1.0  0.00302  0.56000  0.76200  1.0000
  O   O39       1.0  0.54000  0.69100  0.77300  1.0000
  O   O40       1.0  0.22700  0.04020  0.80900  1.0000
  O   O41       1.0  0.49800  0.92600  0.82700  1.0000
  O   O42       1.0  0.74700  0.09700  0.83900  1.0000
  O   O43       1.0  0.33900  0.75300  0.90300  1.0000
  O   O44       1.0  0.82700  0.49800  0.92600  1.0000
  O   O45       1.0  0.23800  0.50300  0.94000  1.0000
  O   O46       1.0  0.30900  0.27300  0.96000  1.0000
  O   O47       1.0  0.05970  0.73800  0.99700  1.0000
  O   O48       1.0  0.57400  0.17300  0.99800  1.0000
  S   S1        1.0  0.21600  0.37600  0.01780  1.0000
  S   S2        1.0  0.98200  0.71600  0.12400  1.0000
  S   S3        1.0  0.37600  0.01780  0.21600  1.0000
  S   S4        1.0  0.62400  0.51800  0.28400  1.0000
  S   S5        1.0  0.01780  0.21600  0.37600  1.0000
  S   S6        1.0  0.78400  0.87600  0.48200  1.0000
  S   S7        1.0  0.28400  0.62400  0.51800  1.0000
  S   S8        1.0  0.51800  0.28400  0.62400  1.0000
  S   S9        1.0  0.12400  0.98200  0.71600  1.0000
  S   S10       1.0  0.87600  0.48200  0.78400  1.0000
  S   S11       1.0  0.48200  0.78400  0.87600  1.0000
  S   S12       1.0  0.71600  0.12400  0.98200  1.0000
