data_image0
_chemical_formula_structural       Hf2Mo12Nd2O48Rb10
_chemical_formula_sum              "Hf2 Mo12 Nd2 O48 Rb10"
_cell_length_a       10.7348
_cell_length_b       10.7348
_cell_length_c       14.2697
_cell_angle_alpha    90
_cell_angle_beta     112.095
_cell_angle_gamma    60

_space_group_name_H-M_alt    "P 1"
_space_group_IT_number       1

loop_
  _space_group_symop_operation_xyz
  'x, y, z'

loop_
  _atom_site_type_symbol
  _atom_site_label
  _atom_site_symmetry_multiplicity
  _atom_site_fract_x
  _atom_site_fract_y
  _atom_site_fract_z
  _atom_site_occupancy
  Hf  Hf1       1.0  0.50000  0.25000  0.25000  1.0000
  Hf  Hf2       1.0  0.50000  0.75000  0.75000  1.0000
  Mo  Mo1       1.0  0.36600  0.02400  0.10200  1.0000
  Mo  Mo2       1.0  0.71300  0.26300  0.10200  1.0000
  Mo  Mo3       1.0  0.12600  0.61000  0.10200  1.0000
  Mo  Mo4       1.0  0.87400  0.23700  0.39800  1.0000
  Mo  Mo5       1.0  0.28700  0.47600  0.39800  1.0000
  Mo  Mo6       1.0  0.63400  0.89000  0.39800  1.0000
  Mo  Mo7       1.0  0.36600  0.11000  0.60200  1.0000
  Mo  Mo8       1.0  0.71300  0.52400  0.60200  1.0000
  Mo  Mo9       1.0  0.12600  0.76300  0.60200  1.0000
  Mo  Mo10      1.0  0.87400  0.39000  0.89800  1.0000
  Mo  Mo11      1.0  0.28700  0.73700  0.89800  1.0000
  Mo  Mo12      1.0  0.63400  0.97600  0.89800  1.0000
  Nd  Nd1       1.0  0.00000  0.00000  0.00000  1.0000
  Nd  Nd2       1.0  0.00000  0.50000  0.50000  1.0000
  O   O1        1.0  0.96300  0.37700  0.03130  1.0000
  O   O2        1.0  0.40900  0.66000  0.03130  1.0000
  O   O3        1.0  0.69100  0.93200  0.03130  1.0000
  O   O4        1.0  0.90100  0.10800  0.11800  1.0000
  O   O5        1.0  0.11000  0.78300  0.11800  1.0000
  O   O6        1.0  0.22600  0.99200  0.11800  1.0000
  O   O7        1.0  0.35500  0.18400  0.15500  1.0000
  O   O8        1.0  0.61600  0.20000  0.15500  1.0000
  O   O9        1.0  0.34000  0.46000  0.15500  1.0000
  O   O10       1.0  0.74300  0.39500  0.16400  1.0000
  O   O11       1.0  0.02590  0.57900  0.16400  1.0000
  O   O12       1.0  0.55800  0.86200  0.16400  1.0000
  O   O13       1.0  0.97400  0.10500  0.33600  1.0000
  O   O14       1.0  0.25700  0.63800  0.33600  1.0000
  O   O15       1.0  0.44200  0.92100  0.33600  1.0000
  O   O16       1.0  0.64500  0.03960  0.34500  1.0000
  O   O17       1.0  0.66000  0.30000  0.34500  1.0000
  O   O18       1.0  0.38400  0.31600  0.34500  1.0000
  O   O19       1.0  0.89000  0.39200  0.38200  1.0000
  O   O20       1.0  0.09920  0.50800  0.38200  1.0000
  O   O21       1.0  0.77400  0.71700  0.38200  1.0000
  O   O22       1.0  0.30900  0.12300  0.46900  1.0000
  O   O23       1.0  0.59100  0.56800  0.46900  1.0000
  O   O24       1.0  0.03720  0.84000  0.46900  1.0000
  O   O25       1.0  0.96300  0.16000  0.53100  1.0000
  O   O26       1.0  0.40900  0.43200  0.53100  1.0000
  O   O27       1.0  0.69100  0.87700  0.53100  1.0000
  O   O28       1.0  0.22600  0.28300  0.61800  1.0000
  O   O29       1.0  0.90100  0.49200  0.61800  1.0000
  O   O30       1.0  0.11000  0.60800  0.61800  1.0000
  O   O31       1.0  0.61600  0.68400  0.65500  1.0000
  O   O32       1.0  0.34000  0.70000  0.65500  1.0000
  O   O33       1.0  0.35500  0.96000  0.65500  1.0000
  O   O34       1.0  0.55800  0.07950  0.66400  1.0000
  O   O35       1.0  0.74300  0.36200  0.66400  1.0000
  O   O36       1.0  0.02590  0.89500  0.66400  1.0000
  O   O37       1.0  0.44200  0.13800  0.83600  1.0000
  O   O38       1.0  0.97400  0.42100  0.83600  1.0000
  O   O39       1.0  0.25700  0.60500  0.83600  1.0000
  O   O40       1.0  0.66000  0.54000  0.84500  1.0000
  O   O41       1.0  0.38400  0.80000  0.84500  1.0000
  O   O42       1.0  0.64500  0.81600  0.84500  1.0000
  O   O43       1.0  0.77400  0.00843  0.88200  1.0000
  O   O44       1.0  0.89000  0.21700  0.88200  1.0000
  O   O45       1.0  0.09920  0.89200  0.88200  1.0000
  O   O46       1.0  0.30900  0.06850  0.96900  1.0000
  O   O47       1.0  0.59100  0.34000  0.96900  1.0000
  O   O48       1.0  0.03720  0.62300  0.96900  1.0000
  Rb  Rb1       1.0  0.70700  0.64600  0.06120  1.0000
  Rb  Rb2       1.0  0.11000  0.25000  0.25000  1.0000
  Rb  Rb3       1.0  0.50000  0.64000  0.25000  1.0000
  Rb  Rb4       1.0  0.89000  0.86000  0.25000  1.0000
  Rb  Rb5       1.0  0.29300  0.85400  0.43900  1.0000
  Rb  Rb6       1.0  0.70700  0.14600  0.56100  1.0000
  Rb  Rb7       1.0  0.11000  0.14000  0.75000  1.0000
  Rb  Rb8       1.0  0.50000  0.36000  0.75000  1.0000
  Rb  Rb9       1.0  0.89000  0.75000  0.75000  1.0000
  Rb  Rb10      1.0  0.29300  0.35400  0.93900  1.0000
