data_image0
_chemical_formula_structural       Bi8I16O52
_chemical_formula_sum              "Bi8 I16 O52"
_cell_length_a       5.61536
_cell_length_b       12.2785
_cell_length_c       16.7296
_cell_angle_alpha    90
_cell_angle_beta     90
_cell_angle_gamma    90

_space_group_name_H-M_alt    "P 1"
_space_group_IT_number       1

loop_
  _space_group_symop_operation_xyz
  'x, y, z'

loop_
  _atom_site_type_symbol
  _atom_site_label
  _atom_site_symmetry_multiplicity
  _atom_site_fract_x
  _atom_site_fract_y
  _atom_site_fract_z
  _atom_site_occupancy
  Bi  Bi1       1.0  0.77400  0.34600  0.17600  1.0000
  Bi  Bi2       1.0  0.76100  0.99000  0.20000  1.0000
  Bi  Bi3       1.0  0.23900  0.49000  0.30000  1.0000
  Bi  Bi4       1.0  0.22600  0.84600  0.32400  1.0000
  Bi  Bi5       1.0  0.72600  0.65400  0.67600  1.0000
  Bi  Bi6       1.0  0.73900  0.01050  0.70000  1.0000
  Bi  Bi7       1.0  0.26100  0.51000  0.80000  1.0000
  Bi  Bi8       1.0  0.27400  0.15400  0.82400  1.0000
  I   I1        1.0  0.43200  0.14200  0.02960  1.0000
  I   I2        1.0  0.37200  0.54800  0.06930  1.0000
  I   I3        1.0  0.26400  0.83100  0.08400  1.0000
  I   I4        1.0  0.80700  0.67200  0.23500  1.0000
  I   I5        1.0  0.19300  0.17200  0.26500  1.0000
  I   I6        1.0  0.73600  0.33100  0.41600  1.0000
  I   I7        1.0  0.62800  0.04840  0.43100  1.0000
  I   I8        1.0  0.56800  0.64200  0.47000  1.0000
  I   I9        1.0  0.06820  0.85800  0.53000  1.0000
  I   I10       1.0  0.12800  0.45200  0.56900  1.0000
  I   I11       1.0  0.23600  0.16900  0.58400  1.0000
  I   I12       1.0  0.69300  0.32800  0.73500  1.0000
  I   I13       1.0  0.30700  0.82800  0.76500  1.0000
  I   I14       1.0  0.76400  0.66900  0.91600  1.0000
  I   I15       1.0  0.87200  0.95200  0.93100  1.0000
  I   I16       1.0  0.93200  0.35800  0.97000  1.0000
  O   O1        1.0  0.58900  0.44000  0.04770  1.0000
  O   O2        1.0  0.56600  0.66900  0.05510  1.0000
  O   O3        1.0  0.70100  0.21700  0.05800  1.0000
  O   O4        1.0  0.53600  0.00465  0.05860  1.0000
  O   O5        1.0  0.04530  0.37100  0.07590  1.0000
  O   O6        1.0  0.01760  0.93000  0.09790  1.0000
  O   O7        1.0  0.09240  0.70600  0.10400  1.0000
  O   O8        1.0  0.42200  0.53700  0.17800  1.0000
  O   O9        1.0  0.41100  0.84200  0.18300  1.0000
  O   O10       1.0  0.41000  0.15600  0.18400  1.0000
  O   O11       1.0  0.91600  0.16900  0.20100  1.0000
  O   O12       1.0  0.90100  0.51600  0.22500  1.0000
  O   O13       1.0  0.13700  0.33300  0.23800  1.0000
  O   O14       1.0  0.86300  0.83300  0.26200  1.0000
  O   O15       1.0  0.09860  0.01590  0.27500  1.0000
  O   O16       1.0  0.08430  0.66900  0.29900  1.0000
  O   O17       1.0  0.59000  0.65600  0.31600  1.0000
  O   O18       1.0  0.58900  0.34200  0.31700  1.0000
  O   O19       1.0  0.57800  0.03710  0.32200  1.0000
  O   O20       1.0  0.90800  0.20600  0.39600  1.0000
  O   O21       1.0  0.98200  0.43000  0.40200  1.0000
  O   O22       1.0  0.95500  0.87100  0.42400  1.0000
  O   O23       1.0  0.46400  0.50500  0.44100  1.0000
  O   O24       1.0  0.29900  0.71700  0.44200  1.0000
  O   O25       1.0  0.43400  0.16900  0.44500  1.0000
  O   O26       1.0  0.41100  0.94000  0.45200  1.0000
  O   O27       1.0  0.91100  0.56000  0.54800  1.0000
  O   O28       1.0  0.93400  0.33100  0.55500  1.0000
  O   O29       1.0  0.79900  0.78300  0.55800  1.0000
  O   O30       1.0  0.96400  0.99500  0.55900  1.0000
  O   O31       1.0  0.45500  0.62900  0.57600  1.0000
  O   O32       1.0  0.48200  0.07040  0.59800  1.0000
  O   O33       1.0  0.40800  0.29400  0.60400  1.0000
  O   O34       1.0  0.07760  0.46300  0.67800  1.0000
  O   O35       1.0  0.08860  0.15800  0.68300  1.0000
  O   O36       1.0  0.08980  0.84400  0.68400  1.0000
  O   O37       1.0  0.58400  0.83100  0.70100  1.0000
  O   O38       1.0  0.59900  0.48400  0.72500  1.0000
  O   O39       1.0  0.36300  0.66700  0.73800  1.0000
  O   O40       1.0  0.63700  0.16700  0.76200  1.0000
  O   O41       1.0  0.40100  0.98400  0.77500  1.0000
  O   O42       1.0  0.41600  0.33100  0.79900  1.0000
  O   O43       1.0  0.91000  0.34400  0.81600  1.0000
  O   O44       1.0  0.91100  0.65800  0.81700  1.0000
  O   O45       1.0  0.92200  0.96300  0.82200  1.0000
  O   O46       1.0  0.59200  0.79400  0.89600  1.0000
  O   O47       1.0  0.51800  0.57000  0.90200  1.0000
  O   O48       1.0  0.54500  0.12900  0.92400  1.0000
  O   O49       1.0  0.03570  0.49500  0.94100  1.0000
  O   O50       1.0  0.20100  0.28300  0.94200  1.0000
  O   O51       1.0  0.06640  0.83100  0.94500  1.0000
  O   O52       1.0  0.08850  0.05950  0.95200  1.0000
