data_image0
_chemical_formula_structural       Cd8O48Rb8S12
_chemical_formula_sum              "Cd8 O48 Rb8 S12"
_cell_length_a       10.3149
_cell_length_b       10.3149
_cell_length_c       10.3149
_cell_angle_alpha    90
_cell_angle_beta     90
_cell_angle_gamma    90

_space_group_name_H-M_alt    "P 1"
_space_group_IT_number       1

loop_
  _space_group_symop_operation_xyz
  'x, y, z'

loop_
  _atom_site_type_symbol
  _atom_site_label
  _atom_site_symmetry_multiplicity
  _atom_site_fract_x
  _atom_site_fract_y
  _atom_site_fract_z
  _atom_site_occupancy
  Cd  Cd1       1.0  0.41900  0.58100  0.08120  1.0000
  Cd  Cd2       1.0  0.16900  0.16900  0.16900  1.0000
  Cd  Cd3       1.0  0.83100  0.66900  0.33100  1.0000
  Cd  Cd4       1.0  0.58100  0.08120  0.41900  1.0000
  Cd  Cd5       1.0  0.08120  0.41900  0.58100  1.0000
  Cd  Cd6       1.0  0.33100  0.83100  0.66900  1.0000
  Cd  Cd7       1.0  0.66900  0.33100  0.83100  1.0000
  Cd  Cd8       1.0  0.91900  0.91900  0.91900  1.0000
  O   O1        1.0  0.57100  0.24200  0.00834  1.0000
  O   O2        1.0  0.09490  0.82800  0.01590  1.0000
  O   O3        1.0  0.32300  0.77400  0.02480  1.0000
  O   O4        1.0  0.25800  0.99200  0.07050  1.0000
  O   O5        1.0  0.35100  0.25900  0.08660  1.0000
  O   O6        1.0  0.82800  0.01590  0.09490  1.0000
  O   O7        1.0  0.74100  0.58700  0.14900  1.0000
  O   O8        1.0  0.51600  0.40500  0.17200  1.0000
  O   O9        1.0  0.22600  0.52500  0.17700  1.0000
  O   O10       1.0  0.52500  0.17700  0.22600  1.0000
  O   O11       1.0  0.91300  0.85100  0.24100  1.0000
  O   O12       1.0  0.00834  0.57100  0.24200  1.0000
  O   O13       1.0  0.99200  0.07050  0.25800  1.0000
  O   O14       1.0  0.08660  0.35100  0.25900  1.0000
  O   O15       1.0  0.47500  0.67700  0.27400  1.0000
  O   O16       1.0  0.77400  0.02480  0.32300  1.0000
  O   O17       1.0  0.48400  0.90500  0.32800  1.0000
  O   O18       1.0  0.25900  0.08660  0.35100  1.0000
  O   O19       1.0  0.17200  0.51600  0.40500  1.0000
  O   O20       1.0  0.64900  0.75900  0.41300  1.0000
  O   O21       1.0  0.74200  0.49200  0.42900  1.0000
  O   O22       1.0  0.67700  0.27400  0.47500  1.0000
  O   O23       1.0  0.90500  0.32800  0.48400  1.0000
  O   O24       1.0  0.42900  0.74200  0.49200  1.0000
  O   O25       1.0  0.92900  0.75800  0.50800  1.0000
  O   O26       1.0  0.40500  0.17200  0.51600  1.0000
  O   O27       1.0  0.17700  0.22600  0.52500  1.0000
  O   O28       1.0  0.24200  0.00834  0.57100  1.0000
  O   O29       1.0  0.14900  0.74100  0.58700  1.0000
  O   O30       1.0  0.67200  0.98400  0.59500  1.0000
  O   O31       1.0  0.75900  0.41300  0.64900  1.0000
  O   O32       1.0  0.98400  0.59500  0.67200  1.0000
  O   O33       1.0  0.27400  0.47500  0.67700  1.0000
  O   O34       1.0  0.97500  0.82300  0.72600  1.0000
  O   O35       1.0  0.58700  0.14900  0.74100  1.0000
  O   O36       1.0  0.49200  0.42900  0.74200  1.0000
  O   O37       1.0  0.50800  0.92900  0.75800  1.0000
  O   O38       1.0  0.41300  0.64900  0.75900  1.0000
  O   O39       1.0  0.02480  0.32300  0.77400  1.0000
  O   O40       1.0  0.72600  0.97500  0.82300  1.0000
  O   O41       1.0  0.01590  0.09490  0.82800  1.0000
  O   O42       1.0  0.24100  0.91300  0.85100  1.0000
  O   O43       1.0  0.32800  0.48400  0.90500  1.0000
  O   O44       1.0  0.85100  0.24100  0.91300  1.0000
  O   O45       1.0  0.75800  0.50800  0.92900  1.0000
  O   O46       1.0  0.82300  0.72600  0.97500  1.0000
  O   O47       1.0  0.59500  0.67200  0.98400  1.0000
  O   O48       1.0  0.07050  0.25800  0.99200  1.0000
  Rb  Rb1       1.0  0.55500  0.94500  0.05470  1.0000
  Rb  Rb2       1.0  0.81400  0.31400  0.18600  1.0000
  Rb  Rb3       1.0  0.18600  0.81400  0.31400  1.0000
  Rb  Rb4       1.0  0.44500  0.44500  0.44500  1.0000
  Rb  Rb5       1.0  0.94500  0.05470  0.55500  1.0000
  Rb  Rb6       1.0  0.68600  0.68600  0.68600  1.0000
  Rb  Rb7       1.0  0.31400  0.18600  0.81400  1.0000
  Rb  Rb8       1.0  0.05470  0.55500  0.94500  1.0000
  S   S1        1.0  0.72900  0.62400  0.01110  1.0000
  S   S2        1.0  0.48900  0.27100  0.12400  1.0000
  S   S3        1.0  0.87600  0.98900  0.22900  1.0000
  S   S4        1.0  0.12400  0.48900  0.27100  1.0000
  S   S5        1.0  0.51100  0.77100  0.37600  1.0000
  S   S6        1.0  0.27100  0.12400  0.48900  1.0000
  S   S7        1.0  0.77100  0.37600  0.51100  1.0000
  S   S8        1.0  0.01110  0.72900  0.62400  1.0000
  S   S9        1.0  0.62400  0.01110  0.72900  1.0000
  S   S10       1.0  0.37600  0.51100  0.77100  1.0000
  S   S11       1.0  0.98900  0.22900  0.87600  1.0000
  S   S12       1.0  0.22900  0.87600  0.98900  1.0000
