data_image0
_chemical_formula_structural       Br8C8Cd4H32N16S8
_chemical_formula_sum              "Br8 C8 Cd4 H32 N16 S8"
_cell_length_a       12.6934
_cell_length_b       5.97266
_cell_length_c       13.5678
_cell_angle_alpha    90
_cell_angle_beta     90
_cell_angle_gamma    90

_space_group_name_H-M_alt    "P 1"
_space_group_IT_number       1

loop_
  _space_group_symop_operation_xyz
  'x, y, z'

loop_
  _atom_site_type_symbol
  _atom_site_label
  _atom_site_symmetry_multiplicity
  _atom_site_fract_x
  _atom_site_fract_y
  _atom_site_fract_z
  _atom_site_occupancy
  Br  Br1       1.0  0.62300  0.21800  0.25000  1.0000
  Br  Br2       1.0  0.12300  0.28200  0.25000  1.0000
  Br  Br3       1.0  0.36700  0.75000  0.25000  1.0000
  Br  Br4       1.0  0.86700  0.75000  0.25000  1.0000
  Br  Br5       1.0  0.13300  0.25000  0.75000  1.0000
  Br  Br6       1.0  0.63300  0.25000  0.75000  1.0000
  Br  Br7       1.0  0.87700  0.71800  0.75000  1.0000
  Br  Br8       1.0  0.37700  0.78200  0.75000  1.0000
  C   C1        1.0  0.38000  0.17000  0.00708  1.0000
  C   C2        1.0  0.88000  0.33000  0.00708  1.0000
  C   C3        1.0  0.38000  0.17000  0.49300  1.0000
  C   C4        1.0  0.88000  0.33000  0.49300  1.0000
  C   C5        1.0  0.12000  0.67000  0.50700  1.0000
  C   C6        1.0  0.62000  0.83000  0.50700  1.0000
  C   C7        1.0  0.12000  0.67000  0.99300  1.0000
  C   C8        1.0  0.62000  0.83000  0.99300  1.0000
  Cd  Cd1       1.0  0.15300  0.72300  0.25000  1.0000
  Cd  Cd2       1.0  0.65300  0.77700  0.25000  1.0000
  Cd  Cd3       1.0  0.34700  0.22300  0.75000  1.0000
  Cd  Cd4       1.0  0.84700  0.27700  0.75000  1.0000
  H   H1        1.0  0.85600  0.65900  0.04300  1.0000
  H   H2        1.0  0.35600  0.84100  0.04300  1.0000
  H   H3        1.0  0.63400  0.10500  0.08390  1.0000
  H   H4        1.0  0.13400  0.39500  0.08390  1.0000
  H   H5        1.0  0.89800  0.10400  0.12000  1.0000
  H   H6        1.0  0.39800  0.39600  0.12000  1.0000
  H   H7        1.0  0.37800  0.11700  0.15600  1.0000
  H   H8        1.0  0.87800  0.38300  0.15600  1.0000
  H   H9        1.0  0.37800  0.11700  0.34400  1.0000
  H   H10       1.0  0.87800  0.38300  0.34400  1.0000
  H   H11       1.0  0.89800  0.10400  0.38000  1.0000
  H   H12       1.0  0.39800  0.39600  0.38000  1.0000
  H   H13       1.0  0.63400  0.10500  0.41600  1.0000
  H   H14       1.0  0.13400  0.39500  0.41600  1.0000
  H   H15       1.0  0.85600  0.65900  0.45700  1.0000
  H   H16       1.0  0.35600  0.84100  0.45700  1.0000
  H   H17       1.0  0.64400  0.15900  0.54300  1.0000
  H   H18       1.0  0.14400  0.34100  0.54300  1.0000
  H   H19       1.0  0.86600  0.60500  0.58400  1.0000
  H   H20       1.0  0.36600  0.89500  0.58400  1.0000
  H   H21       1.0  0.60200  0.60400  0.62000  1.0000
  H   H22       1.0  0.10200  0.89600  0.62000  1.0000
  H   H23       1.0  0.12200  0.61700  0.65600  1.0000
  H   H24       1.0  0.62200  0.88300  0.65600  1.0000
  H   H25       1.0  0.12200  0.61700  0.84400  1.0000
  H   H26       1.0  0.62200  0.88300  0.84400  1.0000
  H   H27       1.0  0.60200  0.60400  0.88000  1.0000
  H   H28       1.0  0.10200  0.89600  0.88000  1.0000
  H   H29       1.0  0.86600  0.60500  0.91600  1.0000
  H   H30       1.0  0.36600  0.89500  0.91600  1.0000
  H   H31       1.0  0.64400  0.15900  0.95700  1.0000
  H   H32       1.0  0.14400  0.34100  0.95700  1.0000
  N   N1        1.0  0.63600  0.04590  0.01300  1.0000
  N   N2        1.0  0.13600  0.45400  0.01300  1.0000
  N   N3        1.0  0.38200  0.23400  0.10100  1.0000
  N   N4        1.0  0.88200  0.26600  0.10100  1.0000
  N   N5        1.0  0.38200  0.23400  0.39900  1.0000
  N   N6        1.0  0.88200  0.26600  0.39900  1.0000
  N   N7        1.0  0.63600  0.04590  0.48700  1.0000
  N   N8        1.0  0.13600  0.45400  0.48700  1.0000
  N   N9        1.0  0.86400  0.54600  0.51300  1.0000
  N   N10       1.0  0.36400  0.95400  0.51300  1.0000
  N   N11       1.0  0.11800  0.73400  0.60100  1.0000
  N   N12       1.0  0.61800  0.76600  0.60100  1.0000
  N   N13       1.0  0.11800  0.73400  0.89900  1.0000
  N   N14       1.0  0.61800  0.76600  0.89900  1.0000
  N   N15       1.0  0.86400  0.54600  0.98700  1.0000
  N   N16       1.0  0.36400  0.95400  0.98700  1.0000
  S   S1        1.0  0.60400  0.62600  0.08120  1.0000
  S   S2        1.0  0.10400  0.87400  0.08120  1.0000
  S   S3        1.0  0.60400  0.62600  0.41900  1.0000
  S   S4        1.0  0.10400  0.87400  0.41900  1.0000
  S   S5        1.0  0.89600  0.12600  0.58100  1.0000
  S   S6        1.0  0.39600  0.37400  0.58100  1.0000
  S   S7        1.0  0.89600  0.12600  0.91900  1.0000
  S   S8        1.0  0.39600  0.37400  0.91900  1.0000
