data_image0
_chemical_formula_structural       Li8Mg8O48S12
_chemical_formula_sum              "Li8 Mg8 O48 S12"
_cell_length_a       12.0582
_cell_length_b       8.49659
_cell_length_c       8.6535
_cell_angle_alpha    90
_cell_angle_beta     90
_cell_angle_gamma    90

_space_group_name_H-M_alt    "P 1"
_space_group_IT_number       1

loop_
  _space_group_symop_operation_xyz
  'x, y, z'

loop_
  _atom_site_type_symbol
  _atom_site_label
  _atom_site_symmetry_multiplicity
  _atom_site_fract_x
  _atom_site_fract_y
  _atom_site_fract_z
  _atom_site_occupancy
  Li  Li1       1.0  0.18000  0.21500  0.22200  1.0000
  Li  Li2       1.0  0.32000  0.71500  0.22200  1.0000
  Li  Li3       1.0  0.82000  0.21500  0.27800  1.0000
  Li  Li4       1.0  0.68000  0.71500  0.27800  1.0000
  Li  Li5       1.0  0.32000  0.28500  0.72200  1.0000
  Li  Li6       1.0  0.18000  0.78500  0.72200  1.0000
  Li  Li7       1.0  0.68000  0.28500  0.77800  1.0000
  Li  Li8       1.0  0.82000  0.78500  0.77800  1.0000
  Mg  Mg1       1.0  0.38900  0.24600  0.04160  1.0000
  Mg  Mg2       1.0  0.11100  0.74600  0.04160  1.0000
  Mg  Mg3       1.0  0.61100  0.24600  0.45800  1.0000
  Mg  Mg4       1.0  0.88900  0.74600  0.45800  1.0000
  Mg  Mg5       1.0  0.11100  0.25400  0.54200  1.0000
  Mg  Mg6       1.0  0.38900  0.75400  0.54200  1.0000
  Mg  Mg7       1.0  0.88900  0.25400  0.95800  1.0000
  Mg  Mg8       1.0  0.61100  0.75400  0.95800  1.0000
  O   O1        1.0  0.22400  0.17000  0.01480  1.0000
  O   O2        1.0  0.27600  0.67000  0.01480  1.0000
  O   O3        1.0  0.53500  0.35100  0.06790  1.0000
  O   O4        1.0  0.96500  0.85100  0.06790  1.0000
  O   O5        1.0  0.84000  0.06910  0.10800  1.0000
  O   O6        1.0  0.66000  0.56900  0.10800  1.0000
  O   O7        1.0  0.43500  0.04680  0.14100  1.0000
  O   O8        1.0  0.06480  0.54700  0.14100  1.0000
  O   O9        1.0  0.92100  0.34800  0.16700  1.0000
  O   O10       1.0  0.57900  0.84800  0.16700  1.0000
  O   O11       1.0  0.31800  0.33400  0.24100  1.0000
  O   O12       1.0  0.18200  0.83400  0.24100  1.0000
  O   O13       1.0  0.68200  0.33400  0.25900  1.0000
  O   O14       1.0  0.81800  0.83400  0.25900  1.0000
  O   O15       1.0  0.07870  0.34800  0.33300  1.0000
  O   O16       1.0  0.42100  0.84800  0.33300  1.0000
  O   O17       1.0  0.56500  0.04680  0.35900  1.0000
  O   O18       1.0  0.93500  0.54700  0.35900  1.0000
  O   O19       1.0  0.16000  0.06910  0.39200  1.0000
  O   O20       1.0  0.34000  0.56900  0.39200  1.0000
  O   O21       1.0  0.46500  0.35100  0.43200  1.0000
  O   O22       1.0  0.03520  0.85100  0.43200  1.0000
  O   O23       1.0  0.77600  0.17000  0.48500  1.0000
  O   O24       1.0  0.72400  0.67000  0.48500  1.0000
  O   O25       1.0  0.27600  0.33000  0.51500  1.0000
  O   O26       1.0  0.22400  0.83000  0.51500  1.0000
  O   O27       1.0  0.96500  0.14900  0.56800  1.0000
  O   O28       1.0  0.53500  0.64900  0.56800  1.0000
  O   O29       1.0  0.66000  0.43100  0.60800  1.0000
  O   O30       1.0  0.84000  0.93100  0.60800  1.0000
  O   O31       1.0  0.06480  0.45300  0.64100  1.0000
  O   O32       1.0  0.43500  0.95300  0.64100  1.0000
  O   O33       1.0  0.57900  0.15200  0.66700  1.0000
  O   O34       1.0  0.92100  0.65200  0.66700  1.0000
  O   O35       1.0  0.18200  0.16600  0.74100  1.0000
  O   O36       1.0  0.31800  0.66600  0.74100  1.0000
  O   O37       1.0  0.81800  0.16600  0.75900  1.0000
  O   O38       1.0  0.68200  0.66600  0.75900  1.0000
  O   O39       1.0  0.42100  0.15200  0.83300  1.0000
  O   O40       1.0  0.07870  0.65200  0.83300  1.0000
  O   O41       1.0  0.93500  0.45300  0.85900  1.0000
  O   O42       1.0  0.56500  0.95300  0.85900  1.0000
  O   O43       1.0  0.34000  0.43100  0.89200  1.0000
  O   O44       1.0  0.16000  0.93100  0.89200  1.0000
  O   O45       1.0  0.03520  0.14900  0.93200  1.0000
  O   O46       1.0  0.46500  0.64900  0.93200  1.0000
  O   O47       1.0  0.72400  0.33000  0.98500  1.0000
  O   O48       1.0  0.77600  0.83000  0.98500  1.0000
  S   S1        1.0  0.64900  0.39500  0.10500  1.0000
  S   S2        1.0  0.85100  0.89500  0.10500  1.0000
  S   S3        1.0  0.00000  0.45400  0.25000  1.0000
  S   S4        1.0  0.50000  0.95400  0.25000  1.0000
  S   S5        1.0  0.35100  0.39500  0.39500  1.0000
  S   S6        1.0  0.14900  0.89500  0.39500  1.0000
  S   S7        1.0  0.85100  0.10500  0.60500  1.0000
  S   S8        1.0  0.64900  0.60500  0.60500  1.0000
  S   S9        1.0  0.50000  0.04650  0.75000  1.0000
  S   S10       1.0  0.00000  0.54600  0.75000  1.0000
  S   S11       1.0  0.14900  0.10500  0.89500  1.0000
  S   S12       1.0  0.35100  0.60500  0.89500  1.0000
