data_image0
_chemical_formula_structural       Ag30Cl6P8S32
_chemical_formula_sum              "Ag30 Cl6 P8 S32"
_cell_length_a       13.0005
_cell_length_b       13.0005
_cell_length_c       13.0005
_cell_angle_alpha    109.471
_cell_angle_beta     109.471
_cell_angle_gamma    109.471

_space_group_name_H-M_alt    "P 1"
_space_group_IT_number       1

loop_
  _space_group_symop_operation_xyz
  'x, y, z'

loop_
  _atom_site_type_symbol
  _atom_site_label
  _atom_site_symmetry_multiplicity
  _atom_site_fract_x
  _atom_site_fract_y
  _atom_site_fract_z
  _atom_site_occupancy
  Ag  Ag1       1.0  0.41100  0.19400  0.03810  1.0000
  Ag  Ag2       1.0  0.78300  0.62700  0.08890  1.0000
  Ag  Ag3       1.0  0.25000  0.37500  0.12500  1.0000
  Ag  Ag4       1.0  0.58900  0.78300  0.12700  1.0000
  Ag  Ag5       1.0  0.37300  0.96200  0.15500  1.0000
  Ag  Ag6       1.0  0.91100  0.03810  0.19400  1.0000
  Ag  Ag7       1.0  0.80600  0.34500  0.21700  1.0000
  Ag  Ag8       1.0  0.12500  0.87500  0.25000  1.0000
  Ag  Ag9       1.0  0.62700  0.58900  0.28300  1.0000
  Ag  Ag10      1.0  0.34500  0.71700  0.30600  1.0000
  Ag  Ag11      1.0  0.30600  0.21700  0.34500  1.0000
  Ag  Ag12      1.0  0.15500  0.46200  0.37300  1.0000
  Ag  Ag13      1.0  0.75000  0.12500  0.37500  1.0000
  Ag  Ag14      1.0  0.03810  0.69400  0.41100  1.0000
  Ag  Ag15      1.0  0.65500  0.37300  0.46200  1.0000
  Ag  Ag16      1.0  0.69400  0.91100  0.53800  1.0000
  Ag  Ag17      1.0  0.12700  0.28300  0.58900  1.0000
  Ag  Ag18      1.0  0.87500  0.75000  0.62500  1.0000
  Ag  Ag19      1.0  0.28300  0.08890  0.62700  1.0000
  Ag  Ag20      1.0  0.46200  0.87300  0.65500  1.0000
  Ag  Ag21      1.0  0.53800  0.41100  0.69400  1.0000
  Ag  Ag22      1.0  0.84500  0.30600  0.71700  1.0000
  Ag  Ag23      1.0  0.37500  0.62500  0.75000  1.0000
  Ag  Ag24      1.0  0.08890  0.12700  0.78300  1.0000
  Ag  Ag25      1.0  0.21700  0.84500  0.80600  1.0000
  Ag  Ag26      1.0  0.71700  0.80600  0.84500  1.0000
  Ag  Ag27      1.0  0.96200  0.65500  0.87300  1.0000
  Ag  Ag28      1.0  0.62500  0.25000  0.87500  1.0000
  Ag  Ag29      1.0  0.19400  0.53800  0.91100  1.0000
  Ag  Ag30      1.0  0.87300  0.15500  0.96200  1.0000
  Cl  Cl1       1.0  0.37500  0.75000  0.12500  1.0000
  Cl  Cl2       1.0  0.62500  0.37500  0.25000  1.0000
  Cl  Cl3       1.0  0.12500  0.25000  0.37500  1.0000
  Cl  Cl4       1.0  0.25000  0.87500  0.62500  1.0000
  Cl  Cl5       1.0  0.87500  0.12500  0.75000  1.0000
  Cl  Cl6       1.0  0.75000  0.62500  0.87500  1.0000
  P   P1        1.0  0.09980  0.00000  0.00000  1.0000
  P   P2        1.0  0.60000  0.00000  0.00000  1.0000
  P   P3        1.0  0.00000  0.50000  0.09980  1.0000
  P   P4        1.0  0.90000  0.90000  0.40000  1.0000
  P   P5        1.0  0.50000  0.09980  0.50000  1.0000
  P   P6        1.0  0.50000  0.60000  0.50000  1.0000
  P   P7        1.0  0.00000  0.50000  0.60000  1.0000
  P   P8        1.0  0.40000  0.40000  0.90000  1.0000
  S   S1        1.0  0.44200  0.00000  0.00000  1.0000
  S   S2        1.0  0.94200  0.00000  0.00000  1.0000
  S   S3        1.0  0.13400  0.87500  0.05300  1.0000
  S   S4        1.0  0.55800  0.55800  0.05770  1.0000
  S   S5        1.0  0.82200  0.44700  0.08120  1.0000
  S   S6        1.0  0.26000  0.17800  0.12500  1.0000
  S   S7        1.0  0.05300  0.37500  0.13400  1.0000
  S   S8        1.0  0.76000  0.12500  0.17800  1.0000
  S   S9        1.0  0.91900  0.86600  0.24000  1.0000
  S   S10       1.0  0.12500  0.67800  0.26000  1.0000
  S   S11       1.0  0.44700  0.58100  0.32200  1.0000
  S   S12       1.0  0.74000  0.91900  0.36600  1.0000
  S   S13       1.0  0.55300  0.13400  0.37500  1.0000
  S   S14       1.0  0.86600  0.74000  0.41900  1.0000
  S   S15       1.0  1.00000  0.50000  0.44200  1.0000
  S   S16       1.0  0.32200  0.08120  0.44700  1.0000
  S   S17       1.0  0.50000  0.44200  0.50000  1.0000
  S   S18       1.0  0.50000  0.94200  0.50000  1.0000
  S   S19       1.0  0.37500  0.63400  0.55300  1.0000
  S   S20       1.0  0.05770  0.05770  0.55800  1.0000
  S   S21       1.0  0.94700  0.32200  0.58100  1.0000
  S   S22       1.0  0.67800  0.76000  0.62500  1.0000
  S   S23       1.0  0.87500  0.55300  0.63400  1.0000
  S   S24       1.0  0.62500  0.26000  0.67800  1.0000
  S   S25       1.0  0.36600  0.41900  0.74000  1.0000
  S   S26       1.0  0.17800  0.62500  0.76000  1.0000
  S   S27       1.0  0.08120  0.94700  0.82200  1.0000
  S   S28       1.0  0.41900  0.24000  0.86600  1.0000
  S   S29       1.0  0.63400  0.05300  0.87500  1.0000
  S   S30       1.0  0.24000  0.36600  0.91900  1.0000
  S   S31       1.0  0.00000  0.50000  0.94200  1.0000
  S   S32       1.0  0.58100  0.82200  0.94700  1.0000
