data_image0
_chemical_formula_structural       B16Fe4Ru36Ti18
_chemical_formula_sum              "B16 Fe4 Ru36 Ti18"
_cell_length_a       17.5814
_cell_length_b       17.5814
_cell_length_c       2.99079
_cell_angle_alpha    90
_cell_angle_beta     90
_cell_angle_gamma    90

_space_group_name_H-M_alt    "P 1"
_space_group_IT_number       1

loop_
  _space_group_symop_operation_xyz
  'x, y, z'

loop_
  _atom_site_type_symbol
  _atom_site_label
  _atom_site_symmetry_multiplicity
  _atom_site_fract_x
  _atom_site_fract_y
  _atom_site_fract_z
  _atom_site_occupancy
  B   B1        1.0  0.66400  0.03740  0.50000  1.0000
  B   B2        1.0  0.83000  0.12100  0.50000  1.0000
  B   B3        1.0  0.53700  0.16400  0.50000  1.0000
  B   B4        1.0  0.12100  0.17000  0.50000  1.0000
  B   B5        1.0  0.62100  0.33000  0.50000  1.0000
  B   B6        1.0  0.03740  0.33600  0.50000  1.0000
  B   B7        1.0  0.33000  0.37900  0.50000  1.0000
  B   B8        1.0  0.16400  0.46300  0.50000  1.0000
  B   B9        1.0  0.83600  0.53700  0.50000  1.0000
  B   B10       1.0  0.67000  0.62100  0.50000  1.0000
  B   B11       1.0  0.96300  0.66400  0.50000  1.0000
  B   B12       1.0  0.37900  0.67000  0.50000  1.0000
  B   B13       1.0  0.87900  0.83000  0.50000  1.0000
  B   B14       1.0  0.46300  0.83600  0.50000  1.0000
  B   B15       1.0  0.17000  0.87900  0.50000  1.0000
  B   B16       1.0  0.33600  0.96300  0.50000  1.0000
  Fe  Fe1       1.0  0.45200  0.04800  0.50000  1.0000
  Fe  Fe2       1.0  0.95200  0.45200  0.50000  1.0000
  Fe  Fe3       1.0  0.04800  0.54800  0.50000  1.0000
  Fe  Fe4       1.0  0.54800  0.95200  0.50000  1.0000
  Ru  Ru1       1.0  0.33000  0.05160  0.00000  1.0000
  Ru  Ru2       1.0  0.90200  0.06890  0.00000  1.0000
  Ru  Ru3       1.0  0.74600  0.08090  0.00000  1.0000
  Ru  Ru4       1.0  0.58200  0.08230  0.00000  1.0000
  Ru  Ru5       1.0  0.06890  0.09790  0.00000  1.0000
  Ru  Ru6       1.0  0.21100  0.16800  0.00000  1.0000
  Ru  Ru7       1.0  0.44800  0.17000  0.00000  1.0000
  Ru  Ru8       1.0  0.83200  0.21100  0.00000  1.0000
  Ru  Ru9       1.0  0.58100  0.24600  0.00000  1.0000
  Ru  Ru10      1.0  0.08090  0.25400  0.00000  1.0000
  Ru  Ru11      1.0  0.33200  0.28900  0.00000  1.0000
  Ru  Ru12      1.0  0.94800  0.33000  0.00000  1.0000
  Ru  Ru13      1.0  0.71100  0.33200  0.00000  1.0000
  Ru  Ru14      1.0  0.56900  0.40200  0.00000  1.0000
  Ru  Ru15      1.0  0.08230  0.41800  0.00000  1.0000
  Ru  Ru16      1.0  0.24600  0.41900  0.00000  1.0000
  Ru  Ru17      1.0  0.40200  0.43100  0.00000  1.0000
  Ru  Ru18      1.0  0.83000  0.44800  0.00000  1.0000
  Ru  Ru19      1.0  0.17000  0.55200  0.00000  1.0000
  Ru  Ru20      1.0  0.59800  0.56900  0.00000  1.0000
  Ru  Ru21      1.0  0.75400  0.58100  0.00000  1.0000
  Ru  Ru22      1.0  0.91800  0.58200  0.00000  1.0000
  Ru  Ru23      1.0  0.43100  0.59800  0.00000  1.0000
  Ru  Ru24      1.0  0.28900  0.66800  0.00000  1.0000
  Ru  Ru25      1.0  0.05160  0.67000  0.00000  1.0000
  Ru  Ru26      1.0  0.66800  0.71100  0.00000  1.0000
  Ru  Ru27      1.0  0.91900  0.74600  0.00000  1.0000
  Ru  Ru28      1.0  0.41900  0.75400  0.00000  1.0000
  Ru  Ru29      1.0  0.16800  0.78900  0.00000  1.0000
  Ru  Ru30      1.0  0.55200  0.83000  0.00000  1.0000
  Ru  Ru31      1.0  0.78900  0.83200  0.00000  1.0000
  Ru  Ru32      1.0  0.93100  0.90200  0.00000  1.0000
  Ru  Ru33      1.0  0.41800  0.91800  0.00000  1.0000
  Ru  Ru34      1.0  0.25400  0.91900  0.00000  1.0000
  Ru  Ru35      1.0  0.09790  0.93100  0.00000  1.0000
  Ru  Ru36      1.0  0.67000  0.94800  0.00000  1.0000
  Ti  Ti1       1.0  0.00000  0.00000  0.50000  1.0000
  Ti  Ti2       1.0  0.18800  0.03550  0.50000  1.0000
  Ti  Ti3       1.0  0.32800  0.17200  0.50000  1.0000
  Ti  Ti4       1.0  0.96400  0.18800  0.50000  1.0000
  Ti  Ti5       1.0  0.69700  0.19700  0.50000  1.0000
  Ti  Ti6       1.0  0.19700  0.30300  0.50000  1.0000
  Ti  Ti7       1.0  0.46400  0.31200  0.50000  1.0000
  Ti  Ti8       1.0  0.82800  0.32800  0.50000  1.0000
  Ti  Ti9       1.0  0.68800  0.46400  0.50000  1.0000
  Ti  Ti10      1.0  0.50000  0.50000  0.50000  1.0000
  Ti  Ti11      1.0  0.31200  0.53600  0.50000  1.0000
  Ti  Ti12      1.0  0.17200  0.67200  0.50000  1.0000
  Ti  Ti13      1.0  0.53600  0.68800  0.50000  1.0000
  Ti  Ti14      1.0  0.80300  0.69700  0.50000  1.0000
  Ti  Ti15      1.0  0.30300  0.80300  0.50000  1.0000
  Ti  Ti16      1.0  0.03550  0.81200  0.50000  1.0000
  Ti  Ti17      1.0  0.67200  0.82800  0.50000  1.0000
  Ti  Ti18      1.0  0.81200  0.96400  0.50000  1.0000
