data_image0
_chemical_formula_structural       C16Cu4H24O32
_chemical_formula_sum              "C16 Cu4 H24 O32"
_cell_length_a       7.75025
_cell_length_b       8.36739
_cell_length_c       11.8891
_cell_angle_alpha    90
_cell_angle_beta     90
_cell_angle_gamma    90

_space_group_name_H-M_alt    "P 1"
_space_group_IT_number       1

loop_
  _space_group_symop_operation_xyz
  'x, y, z'

loop_
  _atom_site_type_symbol
  _atom_site_label
  _atom_site_symmetry_multiplicity
  _atom_site_fract_x
  _atom_site_fract_y
  _atom_site_fract_z
  _atom_site_occupancy
  C   C1        1.0  0.73000  0.23700  0.00643  1.0000
  C   C2        1.0  0.77000  0.73700  0.00643  1.0000
  C   C3        1.0  0.99700  0.45300  0.24200  1.0000
  C   C4        1.0  0.50300  0.95300  0.24200  1.0000
  C   C5        1.0  0.49700  0.45300  0.25800  1.0000
  C   C6        1.0  0.00345  0.95300  0.25800  1.0000
  C   C7        1.0  0.23000  0.23700  0.49400  1.0000
  C   C8        1.0  0.27000  0.73700  0.49400  1.0000
  C   C9        1.0  0.73000  0.26300  0.50600  1.0000
  C   C10       1.0  0.77000  0.76300  0.50600  1.0000
  C   C11       1.0  0.99700  0.04710  0.74200  1.0000
  C   C12       1.0  0.50300  0.54700  0.74200  1.0000
  C   C13       1.0  0.49700  0.04710  0.75800  1.0000
  C   C14       1.0  0.00345  0.54700  0.75800  1.0000
  C   C15       1.0  0.23000  0.26300  0.99400  1.0000
  C   C16       1.0  0.27000  0.76300  0.99400  1.0000
  Cu  Cu1       1.0  0.00000  0.00000  0.00000  1.0000
  Cu  Cu2       1.0  0.50000  0.50000  0.00000  1.0000
  Cu  Cu3       1.0  0.50000  0.00000  0.50000  1.0000
  Cu  Cu4       1.0  0.00000  0.50000  0.50000  1.0000
  H   H1        1.0  0.30500  0.20300  0.06000  1.0000
  H   H2        1.0  0.19500  0.70300  0.06000  1.0000
  H   H3        1.0  0.62300  0.02050  0.10700  1.0000
  H   H4        1.0  0.87700  0.52100  0.10700  1.0000
  H   H5        1.0  0.60500  0.37700  0.23000  1.0000
  H   H6        1.0  0.89500  0.87700  0.23000  1.0000
  H   H7        1.0  0.10500  0.37700  0.27000  1.0000
  H   H8        1.0  0.39500  0.87700  0.27000  1.0000
  H   H9        1.0  0.12300  0.02050  0.39300  1.0000
  H   H10       1.0  0.37700  0.52100  0.39300  1.0000
  H   H11       1.0  0.80500  0.20300  0.44000  1.0000
  H   H12       1.0  0.69500  0.70300  0.44000  1.0000
  H   H13       1.0  0.30500  0.29700  0.56000  1.0000
  H   H14       1.0  0.19500  0.79700  0.56000  1.0000
  H   H15       1.0  0.62300  0.47900  0.60700  1.0000
  H   H16       1.0  0.87700  0.97900  0.60700  1.0000
  H   H17       1.0  0.60500  0.12300  0.73000  1.0000
  H   H18       1.0  0.89500  0.62300  0.73000  1.0000
  H   H19       1.0  0.10500  0.12300  0.77000  1.0000
  H   H20       1.0  0.39500  0.62300  0.77000  1.0000
  H   H21       1.0  0.12300  0.47900  0.89300  1.0000
  H   H22       1.0  0.37700  0.97900  0.89300  1.0000
  H   H23       1.0  0.80500  0.29700  0.94000  1.0000
  H   H24       1.0  0.69500  0.79700  0.94000  1.0000
  O   O1        1.0  0.78300  0.10300  0.04530  1.0000
  O   O2        1.0  0.71700  0.60300  0.04530  1.0000
  O   O3        1.0  0.59400  0.29800  0.04600  1.0000
  O   O4        1.0  0.90600  0.79800  0.04600  1.0000
  O   O5        1.0  0.98000  0.45300  0.13200  1.0000
  O   O6        1.0  0.52000  0.95300  0.13200  1.0000
  O   O7        1.0  0.09800  0.02550  0.19200  1.0000
  O   O8        1.0  0.40200  0.52600  0.19200  1.0000
  O   O9        1.0  0.59800  0.02550  0.30800  1.0000
  O   O10       1.0  0.90200  0.52600  0.30800  1.0000
  O   O11       1.0  0.48000  0.45300  0.36800  1.0000
  O   O12       1.0  0.02000  0.95300  0.36800  1.0000
  O   O13       1.0  0.09430  0.29800  0.45400  1.0000
  O   O14       1.0  0.40600  0.79800  0.45400  1.0000
  O   O15       1.0  0.28300  0.10300  0.45500  1.0000
  O   O16       1.0  0.21700  0.60300  0.45500  1.0000
  O   O17       1.0  0.78300  0.39700  0.54500  1.0000
  O   O18       1.0  0.71700  0.89700  0.54500  1.0000
  O   O19       1.0  0.59400  0.20200  0.54600  1.0000
  O   O20       1.0  0.90600  0.70200  0.54600  1.0000
  O   O21       1.0  0.98000  0.04710  0.63200  1.0000
  O   O22       1.0  0.52000  0.54700  0.63200  1.0000
  O   O23       1.0  0.09800  0.47400  0.69200  1.0000
  O   O24       1.0  0.40200  0.97400  0.69200  1.0000
  O   O25       1.0  0.59800  0.47400  0.80800  1.0000
  O   O26       1.0  0.90200  0.97400  0.80800  1.0000
  O   O27       1.0  0.48000  0.04710  0.86800  1.0000
  O   O28       1.0  0.02000  0.54700  0.86800  1.0000
  O   O29       1.0  0.09430  0.20200  0.95400  1.0000
  O   O30       1.0  0.40600  0.70200  0.95400  1.0000
  O   O31       1.0  0.28300  0.39700  0.95500  1.0000
  O   O32       1.0  0.21700  0.89700  0.95500  1.0000
