data_image0
_chemical_formula_structural       H32I4Mg2O32
_chemical_formula_sum              "H32 I4 Mg2 O32"
_cell_length_a       9.28006
_cell_length_b       5.6716
_cell_length_c       12.0191
_cell_angle_alpha    90
_cell_angle_beta     108.739
_cell_angle_gamma    90

_space_group_name_H-M_alt    "P 1"
_space_group_IT_number       1

loop_
  _space_group_symop_operation_xyz
  'x, y, z'

loop_
  _atom_site_type_symbol
  _atom_site_label
  _atom_site_symmetry_multiplicity
  _atom_site_fract_x
  _atom_site_fract_y
  _atom_site_fract_z
  _atom_site_occupancy
  H   H1        1.0  0.12200  0.40300  0.00814  1.0000
  H   H2        1.0  0.17400  0.29800  0.13600  1.0000
  H   H3        1.0  0.30800  0.67000  0.14400  1.0000
  H   H4        1.0  0.74000  0.11700  0.15400  1.0000
  H   H5        1.0  0.66600  0.10300  0.16900  1.0000
  H   H6        1.0  0.83100  0.55300  0.18400  1.0000
  H   H7        1.0  0.34200  0.74900  0.19600  1.0000
  H   H8        1.0  0.41300  0.28200  0.20300  1.0000
  H   H9        1.0  0.58700  0.78200  0.29700  1.0000
  H   H10       1.0  0.65800  0.24900  0.30400  1.0000
  H   H11       1.0  0.16900  0.05340  0.31600  1.0000
  H   H12       1.0  0.33400  0.60300  0.33100  1.0000
  H   H13       1.0  0.26000  0.61700  0.34600  1.0000
  H   H14       1.0  0.69200  0.17000  0.35600  1.0000
  H   H15       1.0  0.82600  0.79800  0.36400  1.0000
  H   H16       1.0  0.87800  0.90300  0.49200  1.0000
  H   H17       1.0  0.12200  0.09650  0.50800  1.0000
  H   H18       1.0  0.17400  0.20200  0.63600  1.0000
  H   H19       1.0  0.30800  0.83000  0.64400  1.0000
  H   H20       1.0  0.74000  0.38300  0.65400  1.0000
  H   H21       1.0  0.66600  0.39700  0.66900  1.0000
  H   H22       1.0  0.83100  0.94700  0.68400  1.0000
  H   H23       1.0  0.34200  0.75100  0.69600  1.0000
  H   H24       1.0  0.41300  0.21800  0.70300  1.0000
  H   H25       1.0  0.58700  0.71800  0.79700  1.0000
  H   H26       1.0  0.65800  0.25100  0.80400  1.0000
  H   H27       1.0  0.16900  0.44700  0.81600  1.0000
  H   H28       1.0  0.33400  0.89700  0.83100  1.0000
  H   H29       1.0  0.26000  0.88300  0.84600  1.0000
  H   H30       1.0  0.69200  0.33000  0.85600  1.0000
  H   H31       1.0  0.82600  0.70200  0.86400  1.0000
  H   H32       1.0  0.87800  0.59700  0.99200  1.0000
  I   I1        1.0  0.57700  0.72100  0.08130  1.0000
  I   I2        1.0  0.42300  0.22100  0.41900  1.0000
  I   I3        1.0  0.57700  0.77900  0.58100  1.0000
  I   I4        1.0  0.42300  0.27900  0.91900  1.0000
  Mg  Mg1       1.0  0.00000  0.00000  0.00000  1.0000
  Mg  Mg2       1.0  0.00000  0.50000  0.50000  1.0000
  O   O1        1.0  0.80000  0.09340  0.02250  1.0000
  O   O2        1.0  0.33300  0.02040  0.03040  1.0000
  O   O3        1.0  0.08450  0.31900  0.06490  1.0000
  O   O4        1.0  0.48200  0.40800  0.08910  1.0000
  O   O5        1.0  0.77000  0.57900  0.09940  1.0000
  O   O6        1.0  0.06200  0.91500  0.18300  1.0000
  O   O7        1.0  0.05920  0.69900  0.21700  1.0000
  O   O8        1.0  0.34400  0.20700  0.24100  1.0000
  O   O9        1.0  0.65600  0.70700  0.25900  1.0000
  O   O10       1.0  0.94100  0.19900  0.28300  1.0000
  O   O11       1.0  0.93800  0.41500  0.31700  1.0000
  O   O12       1.0  0.23000  0.07900  0.40100  1.0000
  O   O13       1.0  0.51800  0.90800  0.41100  1.0000
  O   O14       1.0  0.91500  0.81900  0.43500  1.0000
  O   O15       1.0  0.66700  0.52000  0.47000  1.0000
  O   O16       1.0  0.20000  0.59300  0.47800  1.0000
  O   O17       1.0  0.80000  0.40700  0.52200  1.0000
  O   O18       1.0  0.33300  0.48000  0.53000  1.0000
  O   O19       1.0  0.08450  0.18100  0.56500  1.0000
  O   O20       1.0  0.48200  0.09230  0.58900  1.0000
  O   O21       1.0  0.77000  0.92100  0.59900  1.0000
  O   O22       1.0  0.06200  0.58500  0.68300  1.0000
  O   O23       1.0  0.05920  0.80100  0.71700  1.0000
  O   O24       1.0  0.34400  0.29300  0.74100  1.0000
  O   O25       1.0  0.65600  0.79300  0.75900  1.0000
  O   O26       1.0  0.94100  0.30100  0.78300  1.0000
  O   O27       1.0  0.93800  0.08480  0.81700  1.0000
  O   O28       1.0  0.23000  0.42100  0.90100  1.0000
  O   O29       1.0  0.51800  0.59200  0.91100  1.0000
  O   O30       1.0  0.91500  0.68100  0.93500  1.0000
  O   O31       1.0  0.66700  0.98000  0.97000  1.0000
  O   O32       1.0  0.20000  0.90700  0.97800  1.0000
