data_image0
_chemical_formula_structural       Bi4Cl4Cu12O32Te8
_chemical_formula_sum              "Bi4 Cl4 Cu12 O32 Te8"
_cell_length_a       6.14109
_cell_length_b       9.71892
_cell_length_c       13.9839
_cell_angle_alpha    90
_cell_angle_beta     90
_cell_angle_gamma    90

_space_group_name_H-M_alt    "P 1"
_space_group_IT_number       1

loop_
  _space_group_symop_operation_xyz
  'x, y, z'

loop_
  _atom_site_type_symbol
  _atom_site_label
  _atom_site_symmetry_multiplicity
  _atom_site_fract_x
  _atom_site_fract_y
  _atom_site_fract_z
  _atom_site_occupancy
  Bi  Bi1       1.0  0.74200  0.25000  0.13000  1.0000
  Bi  Bi2       1.0  0.24200  0.75000  0.37000  1.0000
  Bi  Bi3       1.0  0.75800  0.25000  0.63000  1.0000
  Bi  Bi4       1.0  0.25800  0.75000  0.87000  1.0000
  Cl  Cl1       1.0  0.72700  0.75000  0.17700  1.0000
  Cl  Cl2       1.0  0.22700  0.25000  0.32300  1.0000
  Cl  Cl3       1.0  0.77300  0.75000  0.67700  1.0000
  Cl  Cl4       1.0  0.27300  0.25000  0.82300  1.0000
  Cu  Cu1       1.0  0.30900  0.75000  0.13900  1.0000
  Cu  Cu2       1.0  0.98200  0.51400  0.24000  1.0000
  Cu  Cu3       1.0  0.98200  0.98600  0.24000  1.0000
  Cu  Cu4       1.0  0.48200  0.01390  0.26000  1.0000
  Cu  Cu5       1.0  0.48200  0.48600  0.26000  1.0000
  Cu  Cu6       1.0  0.80900  0.25000  0.36100  1.0000
  Cu  Cu7       1.0  0.19100  0.75000  0.63900  1.0000
  Cu  Cu8       1.0  0.51800  0.51400  0.74000  1.0000
  Cu  Cu9       1.0  0.51800  0.98600  0.74000  1.0000
  Cu  Cu10      1.0  0.01800  0.01390  0.76000  1.0000
  Cu  Cu11      1.0  0.01800  0.48600  0.76000  1.0000
  Cu  Cu12      1.0  0.69100  0.25000  0.86100  1.0000
  O   O1        1.0  0.33500  0.61900  0.03080  1.0000
  O   O2        1.0  0.33500  0.88100  0.03080  1.0000
  O   O3        1.0  0.99700  0.04860  0.10900  1.0000
  O   O4        1.0  0.99700  0.45100  0.10900  1.0000
  O   O5        1.0  0.44800  0.10500  0.14000  1.0000
  O   O6        1.0  0.44800  0.39500  0.14000  1.0000
  O   O7        1.0  0.25000  0.61400  0.23300  1.0000
  O   O8        1.0  0.25000  0.88600  0.23300  1.0000
  O   O9        1.0  0.75000  0.11400  0.26700  1.0000
  O   O10       1.0  0.75000  0.38600  0.26700  1.0000
  O   O11       1.0  0.94800  0.60500  0.36000  1.0000
  O   O12       1.0  0.94800  0.89500  0.36000  1.0000
  O   O13       1.0  0.49700  0.54900  0.39100  1.0000
  O   O14       1.0  0.49700  0.95100  0.39100  1.0000
  O   O15       1.0  0.83500  0.11900  0.46900  1.0000
  O   O16       1.0  0.83500  0.38100  0.46900  1.0000
  O   O17       1.0  0.16500  0.61900  0.53100  1.0000
  O   O18       1.0  0.16500  0.88100  0.53100  1.0000
  O   O19       1.0  0.50300  0.04860  0.60900  1.0000
  O   O20       1.0  0.50300  0.45100  0.60900  1.0000
  O   O21       1.0  0.05230  0.10500  0.64000  1.0000
  O   O22       1.0  0.05230  0.39500  0.64000  1.0000
  O   O23       1.0  0.25000  0.61400  0.73300  1.0000
  O   O24       1.0  0.25000  0.88600  0.73300  1.0000
  O   O25       1.0  0.75000  0.11400  0.76700  1.0000
  O   O26       1.0  0.75000  0.38600  0.76700  1.0000
  O   O27       1.0  0.55200  0.60500  0.86000  1.0000
  O   O28       1.0  0.55200  0.89500  0.86000  1.0000
  O   O29       1.0  0.00343  0.54900  0.89100  1.0000
  O   O30       1.0  0.00343  0.95100  0.89100  1.0000
  O   O31       1.0  0.66500  0.11900  0.96900  1.0000
  O   O32       1.0  0.66500  0.38100  0.96900  1.0000
  Te  Te1       1.0  0.25800  0.07050  0.03360  1.0000
  Te  Te2       1.0  0.25800  0.42900  0.03360  1.0000
  Te  Te3       1.0  0.75800  0.57100  0.46600  1.0000
  Te  Te4       1.0  0.75800  0.92900  0.46600  1.0000
  Te  Te5       1.0  0.24200  0.07050  0.53400  1.0000
  Te  Te6       1.0  0.24200  0.42900  0.53400  1.0000
  Te  Te7       1.0  0.74200  0.57100  0.96600  1.0000
  Te  Te8       1.0  0.74200  0.92900  0.96600  1.0000
