data_image0
_chemical_formula_structural       Li8O48P12Ti8
_chemical_formula_sum              "Li8 O48 P12 Ti8"
_cell_length_a       11.9839
_cell_length_b       8.59188
_cell_length_c       8.67022
_cell_angle_alpha    90
_cell_angle_beta     90
_cell_angle_gamma    90

_space_group_name_H-M_alt    "P 1"
_space_group_IT_number       1

loop_
  _space_group_symop_operation_xyz
  'x, y, z'

loop_
  _atom_site_type_symbol
  _atom_site_label
  _atom_site_symmetry_multiplicity
  _atom_site_fract_x
  _atom_site_fract_y
  _atom_site_fract_z
  _atom_site_occupancy
  Li  Li1       1.0  0.18200  0.28400  0.22100  1.0000
  Li  Li2       1.0  0.31800  0.78400  0.22100  1.0000
  Li  Li3       1.0  0.81800  0.28400  0.27900  1.0000
  Li  Li4       1.0  0.68200  0.78400  0.27900  1.0000
  Li  Li5       1.0  0.31800  0.21600  0.72100  1.0000
  Li  Li6       1.0  0.18200  0.71600  0.72100  1.0000
  Li  Li7       1.0  0.68200  0.21600  0.77900  1.0000
  Li  Li8       1.0  0.81800  0.71600  0.77900  1.0000
  O   O1        1.0  0.22500  0.32700  0.01620  1.0000
  O   O2        1.0  0.27500  0.82700  0.01620  1.0000
  O   O3        1.0  0.52700  0.15100  0.06300  1.0000
  O   O4        1.0  0.97300  0.65100  0.06300  1.0000
  O   O5        1.0  0.84100  0.42500  0.10800  1.0000
  O   O6        1.0  0.65900  0.92500  0.10800  1.0000
  O   O7        1.0  0.43200  0.44200  0.13700  1.0000
  O   O8        1.0  0.06800  0.94200  0.13700  1.0000
  O   O9        1.0  0.91700  0.14700  0.16500  1.0000
  O   O10       1.0  0.58300  0.64700  0.16500  1.0000
  O   O11       1.0  0.32200  0.16400  0.23200  1.0000
  O   O12       1.0  0.17800  0.66400  0.23200  1.0000
  O   O13       1.0  0.67800  0.16400  0.26800  1.0000
  O   O14       1.0  0.82200  0.66400  0.26800  1.0000
  O   O15       1.0  0.08310  0.14700  0.33500  1.0000
  O   O16       1.0  0.41700  0.64700  0.33500  1.0000
  O   O17       1.0  0.56800  0.44200  0.36300  1.0000
  O   O18       1.0  0.93200  0.94200  0.36300  1.0000
  O   O19       1.0  0.15900  0.42500  0.39200  1.0000
  O   O20       1.0  0.34100  0.92500  0.39200  1.0000
  O   O21       1.0  0.47300  0.15100  0.43700  1.0000
  O   O22       1.0  0.02750  0.65100  0.43700  1.0000
  O   O23       1.0  0.77500  0.32700  0.48400  1.0000
  O   O24       1.0  0.72500  0.82700  0.48400  1.0000
  O   O25       1.0  0.27500  0.17300  0.51600  1.0000
  O   O26       1.0  0.22500  0.67300  0.51600  1.0000
  O   O27       1.0  0.97300  0.34900  0.56300  1.0000
  O   O28       1.0  0.52700  0.84900  0.56300  1.0000
  O   O29       1.0  0.65900  0.07500  0.60800  1.0000
  O   O30       1.0  0.84100  0.57500  0.60800  1.0000
  O   O31       1.0  0.06800  0.05770  0.63700  1.0000
  O   O32       1.0  0.43200  0.55800  0.63700  1.0000
  O   O33       1.0  0.58300  0.35300  0.66500  1.0000
  O   O34       1.0  0.91700  0.85300  0.66500  1.0000
  O   O35       1.0  0.17800  0.33600  0.73200  1.0000
  O   O36       1.0  0.32200  0.83600  0.73200  1.0000
  O   O37       1.0  0.82200  0.33600  0.76800  1.0000
  O   O38       1.0  0.67800  0.83600  0.76800  1.0000
  O   O39       1.0  0.41700  0.35300  0.83500  1.0000
  O   O40       1.0  0.08310  0.85300  0.83500  1.0000
  O   O41       1.0  0.93200  0.05770  0.86300  1.0000
  O   O42       1.0  0.56800  0.55800  0.86300  1.0000
  O   O43       1.0  0.34100  0.07500  0.89200  1.0000
  O   O44       1.0  0.15900  0.57500  0.89200  1.0000
  O   O45       1.0  0.02750  0.34900  0.93700  1.0000
  O   O46       1.0  0.47300  0.84900  0.93700  1.0000
  O   O47       1.0  0.72500  0.17300  0.98400  1.0000
  O   O48       1.0  0.77500  0.67300  0.98400  1.0000
  P   P1        1.0  0.64700  0.10300  0.10600  1.0000
  P   P2        1.0  0.85300  0.60300  0.10600  1.0000
  P   P3        1.0  0.00000  0.03980  0.25000  1.0000
  P   P4        1.0  0.50000  0.54000  0.25000  1.0000
  P   P5        1.0  0.35300  0.10300  0.39400  1.0000
  P   P6        1.0  0.14700  0.60300  0.39400  1.0000
  P   P7        1.0  0.85300  0.39700  0.60600  1.0000
  P   P8        1.0  0.64700  0.89700  0.60600  1.0000
  P   P9        1.0  0.50000  0.46000  0.75000  1.0000
  P   P10       1.0  0.00000  0.96000  0.75000  1.0000
  P   P11       1.0  0.14700  0.39700  0.89400  1.0000
  P   P12       1.0  0.35300  0.89700  0.89400  1.0000
  Ti  Ti1       1.0  0.38600  0.25300  0.03720  1.0000
  Ti  Ti2       1.0  0.11400  0.75300  0.03720  1.0000
  Ti  Ti3       1.0  0.61400  0.25300  0.46300  1.0000
  Ti  Ti4       1.0  0.88600  0.75300  0.46300  1.0000
  Ti  Ti5       1.0  0.11400  0.24700  0.53700  1.0000
  Ti  Ti6       1.0  0.38600  0.74700  0.53700  1.0000
  Ti  Ti7       1.0  0.88600  0.24700  0.96300  1.0000
  Ti  Ti8       1.0  0.61400  0.74700  0.96300  1.0000
