data_image0
_chemical_formula_structural       Mn2O2Sn2Te2
_chemical_formula_sum              "Mn2 O2 Sn2 Te2"
_cell_length_a       3.38451
_cell_length_b       3.38473
_cell_length_c       16.5823
_cell_angle_alpha    90
_cell_angle_beta     90
_cell_angle_gamma    119.998

_space_group_name_H-M_alt    "P 1"
_space_group_IT_number       1

loop_
  _space_group_symop_operation_xyz
  'x, y, z'

loop_
  _atom_site_type_symbol
  _atom_site_label
  _atom_site_symmetry_multiplicity
  _atom_site_fract_x
  _atom_site_fract_y
  _atom_site_fract_z
  _atom_site_occupancy
  Mn  Mn1       1.0  0.33300  0.66700  0.27400  1.0000
  Mn  Mn2       1.0  0.66700  0.33300  0.77400  1.0000
  O   O1        1.0  0.00000  0.00000  0.32300  1.0000
  O   O2        1.0  0.00000  0.00000  0.82300  1.0000
  Sn  Sn1       1.0  0.00000  0.00000  0.45400  1.0000
  Sn  Sn2       1.0  0.00000  0.00000  0.95400  1.0000
  Te  Te1       1.0  0.66700  0.33300  0.13700  1.0000
  Te  Te2       1.0  0.33300  0.66700  0.63700  1.0000
