data_image0
_chemical_formula_structural       H24K4O36P4U4
_chemical_formula_sum              "H24 K4 O36 P4 U4"
_cell_length_a       7.04952
_cell_length_b       7.02158
_cell_length_c       15.9882
_cell_angle_alpha    90
_cell_angle_beta     90
_cell_angle_gamma    90

_space_group_name_H-M_alt    "P 1"
_space_group_IT_number       1

loop_
  _space_group_symop_operation_xyz
  'x, y, z'

loop_
  _atom_site_type_symbol
  _atom_site_label
  _atom_site_symmetry_multiplicity
  _atom_site_fract_x
  _atom_site_fract_y
  _atom_site_fract_z
  _atom_site_occupancy
  H   H1        1.0  0.63000  0.41300  0.14300  1.0000
  H   H2        1.0  0.08930  0.61200  0.14800  1.0000
  H   H3        1.0  0.40100  0.87400  0.15200  1.0000
  H   H4        1.0  0.78300  0.54900  0.18400  1.0000
  H   H5        1.0  0.55400  0.72400  0.18500  1.0000
  H   H6        1.0  0.02010  0.52400  0.23500  1.0000
  H   H7        1.0  0.52000  0.02360  0.26500  1.0000
  H   H8        1.0  0.05390  0.22400  0.31500  1.0000
  H   H9        1.0  0.28300  0.04900  0.31600  1.0000
  H   H10       1.0  0.90100  0.37400  0.34800  1.0000
  H   H11       1.0  0.58900  0.11200  0.35200  1.0000
  H   H12       1.0  0.13000  0.91300  0.35700  1.0000
  H   H13       1.0  0.63000  0.08720  0.64300  1.0000
  H   H14       1.0  0.08930  0.88800  0.64800  1.0000
  H   H15       1.0  0.40100  0.62600  0.65200  1.0000
  H   H16       1.0  0.78300  0.95100  0.68400  1.0000
  H   H17       1.0  0.55400  0.77600  0.68500  1.0000
  H   H18       1.0  0.02010  0.97600  0.73500  1.0000
  H   H19       1.0  0.52000  0.47600  0.76500  1.0000
  H   H20       1.0  0.05390  0.27600  0.81500  1.0000
  H   H21       1.0  0.28300  0.45100  0.81600  1.0000
  H   H22       1.0  0.90100  0.12600  0.84800  1.0000
  H   H23       1.0  0.58900  0.38800  0.85200  1.0000
  H   H24       1.0  0.13000  0.58700  0.85700  1.0000
  K   K1        1.0  0.87400  0.00815  0.19500  1.0000
  K   K2        1.0  0.37400  0.50800  0.30500  1.0000
  K   K3        1.0  0.87400  0.49200  0.69500  1.0000
  K   K4        1.0  0.37400  0.99200  0.80500  1.0000
  O   O1        1.0  0.93600  0.24000  0.05120  1.0000
  O   O2        1.0  0.24500  0.57000  0.05530  1.0000
  O   O3        1.0  0.77600  0.77100  0.05800  1.0000
  O   O4        1.0  0.58800  0.24100  0.06170  1.0000
  O   O5        1.0  0.24400  0.91900  0.06470  1.0000
  O   O6        1.0  0.24800  0.25600  0.16600  1.0000
  O   O7        1.0  0.64800  0.50700  0.18800  1.0000
  O   O8        1.0  0.49600  0.85100  0.19700  1.0000
  O   O9        1.0  0.00969  0.63700  0.19700  1.0000
  O   O10       1.0  0.51000  0.13700  0.30300  1.0000
  O   O11       1.0  0.99600  0.35100  0.30300  1.0000
  O   O12       1.0  0.14800  0.00663  0.31200  1.0000
  O   O13       1.0  0.74800  0.75600  0.33400  1.0000
  O   O14       1.0  0.74400  0.41900  0.43500  1.0000
  O   O15       1.0  0.08780  0.74100  0.43800  1.0000
  O   O16       1.0  0.27600  0.27100  0.44200  1.0000
  O   O17       1.0  0.74500  0.06960  0.44500  1.0000
  O   O18       1.0  0.43600  0.74000  0.44900  1.0000
  O   O19       1.0  0.93600  0.26000  0.55100  1.0000
  O   O20       1.0  0.24500  0.93000  0.55500  1.0000
  O   O21       1.0  0.77600  0.72900  0.55800  1.0000
  O   O22       1.0  0.58800  0.25900  0.56200  1.0000
  O   O23       1.0  0.24400  0.58100  0.56500  1.0000
  O   O24       1.0  0.24800  0.24400  0.66600  1.0000
  O   O25       1.0  0.64800  0.99300  0.68800  1.0000
  O   O26       1.0  0.49600  0.64900  0.69700  1.0000
  O   O27       1.0  0.00969  0.86300  0.69700  1.0000
  O   O28       1.0  0.51000  0.36300  0.80300  1.0000
  O   O29       1.0  0.99600  0.14900  0.80300  1.0000
  O   O30       1.0  0.14800  0.49300  0.81200  1.0000
  O   O31       1.0  0.74800  0.74400  0.83400  1.0000
  O   O32       1.0  0.74400  0.08100  0.93500  1.0000
  O   O33       1.0  0.08780  0.75900  0.93800  1.0000
  O   O34       1.0  0.27600  0.22900  0.94200  1.0000
  O   O35       1.0  0.74500  0.43000  0.94500  1.0000
  O   O36       1.0  0.43600  0.76000  0.94900  1.0000
  P   P1        1.0  0.25400  0.75200  0.00157  1.0000
  P   P2        1.0  0.75400  0.25200  0.49800  1.0000
  P   P3        1.0  0.25400  0.74800  0.50200  1.0000
  P   P4        1.0  0.75400  0.24800  0.99800  1.0000
  U   U1        1.0  0.26100  0.24400  0.05370  1.0000
  U   U2        1.0  0.76100  0.74400  0.44600  1.0000
  U   U3        1.0  0.26100  0.25600  0.55400  1.0000
  U   U4        1.0  0.76100  0.75600  0.94600  1.0000
