data_image0
_chemical_formula_structural       Hf2In2K10Mo12O48
_chemical_formula_sum              "Hf2 In2 K10 Mo12 O48"
_cell_length_a       10.5114
_cell_length_b       10.5114
_cell_length_c       13.867
_cell_angle_alpha    90
_cell_angle_beta     112.272
_cell_angle_gamma    60

_space_group_name_H-M_alt    "P 1"
_space_group_IT_number       1

loop_
  _space_group_symop_operation_xyz
  'x, y, z'

loop_
  _atom_site_type_symbol
  _atom_site_label
  _atom_site_symmetry_multiplicity
  _atom_site_fract_x
  _atom_site_fract_y
  _atom_site_fract_z
  _atom_site_occupancy
  Hf  Hf1       1.0  0.50000  0.25000  0.25000  1.0000
  Hf  Hf2       1.0  0.50000  0.75000  0.75000  1.0000
  In  In1       1.0  0.00000  0.00000  0.00000  1.0000
  In  In2       1.0  0.00000  0.50000  0.50000  1.0000
  K   K1        1.0  0.70900  0.64600  0.06310  1.0000
  K   K2        1.0  0.11100  0.25000  0.25000  1.0000
  K   K3        1.0  0.50000  0.63900  0.25000  1.0000
  K   K4        1.0  0.88900  0.86100  0.25000  1.0000
  K   K5        1.0  0.29100  0.85400  0.43700  1.0000
  K   K6        1.0  0.70900  0.14600  0.56300  1.0000
  K   K7        1.0  0.11100  0.13900  0.75000  1.0000
  K   K8        1.0  0.50000  0.36100  0.75000  1.0000
  K   K9        1.0  0.88900  0.75000  0.75000  1.0000
  K   K10       1.0  0.29100  0.35400  0.93700  1.0000
  Mo  Mo1       1.0  0.36300  0.02020  0.09810  1.0000
  Mo  Mo2       1.0  0.71500  0.26500  0.09810  1.0000
  Mo  Mo3       1.0  0.11800  0.61700  0.09810  1.0000
  Mo  Mo4       1.0  0.88200  0.23500  0.40200  1.0000
  Mo  Mo5       1.0  0.28500  0.48000  0.40200  1.0000
  Mo  Mo6       1.0  0.63700  0.88300  0.40200  1.0000
  Mo  Mo7       1.0  0.36300  0.11700  0.59800  1.0000
  Mo  Mo8       1.0  0.71500  0.52000  0.59800  1.0000
  Mo  Mo9       1.0  0.11800  0.76500  0.59800  1.0000
  Mo  Mo10      1.0  0.88200  0.38300  0.90200  1.0000
  Mo  Mo11      1.0  0.28500  0.73500  0.90200  1.0000
  Mo  Mo12      1.0  0.63700  0.98000  0.90200  1.0000
  O   O1        1.0  0.97000  0.37900  0.03800  1.0000
  O   O2        1.0  0.41700  0.65100  0.03800  1.0000
  O   O3        1.0  0.68900  0.93200  0.03800  1.0000
  O   O4        1.0  0.90400  0.10500  0.10900  1.0000
  O   O5        1.0  0.09930  0.79500  0.10900  1.0000
  O   O6        1.0  0.21400  0.99100  0.10900  1.0000
  O   O7        1.0  0.35200  0.18300  0.15400  1.0000
  O   O8        1.0  0.61900  0.19800  0.15400  1.0000
  O   O9        1.0  0.33700  0.46500  0.15400  1.0000
  O   O10       1.0  0.75300  0.39400  0.16300  1.0000
  O   O11       1.0  0.01590  0.59000  0.16300  1.0000
  O   O12       1.0  0.55800  0.85200  0.16300  1.0000
  O   O13       1.0  0.98400  0.10600  0.33700  1.0000
  O   O14       1.0  0.24700  0.64800  0.33700  1.0000
  O   O15       1.0  0.44200  0.91000  0.33700  1.0000
  O   O16       1.0  0.64800  0.03460  0.34600  1.0000
  O   O17       1.0  0.66300  0.30200  0.34600  1.0000
  O   O18       1.0  0.38100  0.31700  0.34600  1.0000
  O   O19       1.0  0.90100  0.39500  0.39100  1.0000
  O   O20       1.0  0.09590  0.50900  0.39100  1.0000
  O   O21       1.0  0.78600  0.70500  0.39100  1.0000
  O   O22       1.0  0.31100  0.12100  0.46200  1.0000
  O   O23       1.0  0.58300  0.56800  0.46200  1.0000
  O   O24       1.0  0.03040  0.84900  0.46200  1.0000
  O   O25       1.0  0.97000  0.15100  0.53800  1.0000
  O   O26       1.0  0.41700  0.43200  0.53800  1.0000
  O   O27       1.0  0.68900  0.87900  0.53800  1.0000
  O   O28       1.0  0.21400  0.29500  0.60900  1.0000
  O   O29       1.0  0.90400  0.49100  0.60900  1.0000
  O   O30       1.0  0.09930  0.60500  0.60900  1.0000
  O   O31       1.0  0.61900  0.68300  0.65400  1.0000
  O   O32       1.0  0.33700  0.69800  0.65400  1.0000
  O   O33       1.0  0.35200  0.96500  0.65400  1.0000
  O   O34       1.0  0.55800  0.08970  0.66300  1.0000
  O   O35       1.0  0.75300  0.35200  0.66300  1.0000
  O   O36       1.0  0.01590  0.89400  0.66300  1.0000
  O   O37       1.0  0.44200  0.14800  0.83700  1.0000
  O   O38       1.0  0.98400  0.41000  0.83700  1.0000
  O   O39       1.0  0.24700  0.60600  0.83700  1.0000
  O   O40       1.0  0.66300  0.53500  0.84600  1.0000
  O   O41       1.0  0.38100  0.80200  0.84600  1.0000
  O   O42       1.0  0.64800  0.81700  0.84600  1.0000
  O   O43       1.0  0.78600  0.00943  0.89100  1.0000
  O   O44       1.0  0.90100  0.20500  0.89100  1.0000
  O   O45       1.0  0.09590  0.89500  0.89100  1.0000
  O   O46       1.0  0.31100  0.06830  0.96200  1.0000
  O   O47       1.0  0.58300  0.34900  0.96200  1.0000
  O   O48       1.0  0.03040  0.62100  0.96200  1.0000
