data_image0
_chemical_formula_structural       B24Na4Ni4O42
_chemical_formula_sum              "B24 Na4 Ni4 O42"
_cell_length_a       4.44453
_cell_length_b       11.5127
_cell_length_c       14.3581
_cell_angle_alpha    80.9016
_cell_angle_beta     98.9037
_cell_angle_gamma    101.13

_space_group_name_H-M_alt    "P 1"
_space_group_IT_number       1

loop_
  _space_group_symop_operation_xyz
  'x, y, z'

loop_
  _atom_site_type_symbol
  _atom_site_label
  _atom_site_symmetry_multiplicity
  _atom_site_fract_x
  _atom_site_fract_y
  _atom_site_fract_z
  _atom_site_occupancy
  B   B1        1.0  0.94400  0.88400  0.00679  1.0000
  B   B2        1.0  0.18200  0.16500  0.15600  1.0000
  B   B3        1.0  0.95300  0.80000  0.17300  1.0000
  B   B4        1.0  0.61700  0.32700  0.17900  1.0000
  B   B5        1.0  0.56700  0.62200  0.20000  1.0000
  B   B6        1.0  0.08810  0.46400  0.20300  1.0000
  B   B7        1.0  0.42200  0.03630  0.29700  1.0000
  B   B8        1.0  0.74400  0.87800  0.30000  1.0000
  B   B9        1.0  0.11100  0.17300  0.32100  1.0000
  B   B10       1.0  0.98000  0.70000  0.32700  1.0000
  B   B11       1.0  0.86100  0.33500  0.34400  1.0000
  B   B12       1.0  0.05300  0.61600  0.49300  1.0000
  B   B13       1.0  0.94700  0.38400  0.50700  1.0000
  B   B14       1.0  0.13900  0.66500  0.65600  1.0000
  B   B15       1.0  0.01950  0.30000  0.67300  1.0000
  B   B16       1.0  0.88900  0.82700  0.67900  1.0000
  B   B17       1.0  0.25600  0.12200  0.70000  1.0000
  B   B18       1.0  0.57800  0.96400  0.70300  1.0000
  B   B19       1.0  0.91200  0.53600  0.79700  1.0000
  B   B20       1.0  0.43300  0.37800  0.80000  1.0000
  B   B21       1.0  0.38300  0.67300  0.82100  1.0000
  B   B22       1.0  0.04720  0.20000  0.82700  1.0000
  B   B23       1.0  0.81800  0.83500  0.84400  1.0000
  B   B24       1.0  0.05600  0.11600  0.99300  1.0000
  Na  Na1       1.0  0.29900  0.70100  0.00959  1.0000
  Na  Na2       1.0  0.58900  0.79900  0.49000  1.0000
  Na  Na3       1.0  0.41100  0.20100  0.51000  1.0000
  Na  Na4       1.0  0.70100  0.29900  0.99000  1.0000
  Ni  Ni1       1.0  0.54400  0.99000  0.10600  1.0000
  Ni  Ni2       1.0  0.44800  0.51000  0.39400  1.0000
  Ni  Ni3       1.0  0.55200  0.49000  0.60600  1.0000
  Ni  Ni4       1.0  0.45600  0.01020  0.89400  1.0000
  O   O1        1.0  0.67200  0.91900  0.00383  1.0000
  O   O2        1.0  0.94900  0.12900  0.07640  1.0000
  O   O3        1.0  0.12500  0.85600  0.09300  1.0000
  O   O4        1.0  0.39800  0.26900  0.11700  1.0000
  O   O5        1.0  0.69900  0.70800  0.13500  1.0000
  O   O6        1.0  0.84800  0.41300  0.14000  1.0000
  O   O7        1.0  0.31000  0.54700  0.16200  1.0000
  O   O8        1.0  0.36600  0.06590  0.20000  1.0000
  O   O9        1.0  0.79100  0.89200  0.20600  1.0000
  O   O10       1.0  0.01570  0.19100  0.22600  1.0000
  O   O11       1.0  0.14800  0.75000  0.25000  1.0000
  O   O12       1.0  0.59900  0.30900  0.27400  1.0000
  O   O13       1.0  0.69200  0.60800  0.29400  1.0000
  O   O14       1.0  0.09990  0.43400  0.30000  1.0000
  O   O15       1.0  0.60200  0.95300  0.33800  1.0000
  O   O16       1.0  0.29500  0.08700  0.36000  1.0000
  O   O17       1.0  0.85500  0.79200  0.36500  1.0000
  O   O18       1.0  0.01180  0.23100  0.38300  1.0000
  O   O19       1.0  0.17700  0.64400  0.40700  1.0000
  O   O20       1.0  0.74300  0.37100  0.42400  1.0000
  O   O21       1.0  0.74900  0.58100  0.49600  1.0000
  O   O22       1.0  0.25100  0.41900  0.50400  1.0000
  O   O23       1.0  0.25700  0.62900  0.57600  1.0000
  O   O24       1.0  0.82300  0.35600  0.59300  1.0000
  O   O25       1.0  0.98800  0.76900  0.61700  1.0000
  O   O26       1.0  0.14500  0.20800  0.63500  1.0000
  O   O27       1.0  0.70500  0.91300  0.64000  1.0000
  O   O28       1.0  0.39800  0.04660  0.66200  1.0000
  O   O29       1.0  0.90000  0.56600  0.70000  1.0000
  O   O30       1.0  0.30800  0.39200  0.70600  1.0000
  O   O31       1.0  0.40100  0.69100  0.72600  1.0000
  O   O32       1.0  0.85200  0.25000  0.75000  1.0000
  O   O33       1.0  0.98400  0.80900  0.77400  1.0000
  O   O34       1.0  0.20900  0.10800  0.79400  1.0000
  O   O35       1.0  0.63400  0.93400  0.80000  1.0000
  O   O36       1.0  0.69000  0.45300  0.83800  1.0000
  O   O37       1.0  0.15200  0.58700  0.86000  1.0000
  O   O38       1.0  0.30100  0.29200  0.86500  1.0000
  O   O39       1.0  0.60200  0.73100  0.88300  1.0000
  O   O40       1.0  0.87500  0.14400  0.90700  1.0000
  O   O41       1.0  0.05150  0.87100  0.92400  1.0000
  O   O42       1.0  0.32800  0.08100  0.99600  1.0000
