data_image0
_chemical_formula_structural       Ca8K8O48S12
_chemical_formula_sum              "Ca8 K8 O48 S12"
_cell_length_a       10.3382
_cell_length_b       10.3382
_cell_length_c       10.3382
_cell_angle_alpha    90
_cell_angle_beta     90
_cell_angle_gamma    90

_space_group_name_H-M_alt    "P 1"
_space_group_IT_number       1

loop_
  _space_group_symop_operation_xyz
  'x, y, z'

loop_
  _atom_site_type_symbol
  _atom_site_label
  _atom_site_symmetry_multiplicity
  _atom_site_fract_x
  _atom_site_fract_y
  _atom_site_fract_z
  _atom_site_occupancy
  Ca  Ca1       1.0  0.91600  0.41600  0.08360  1.0000
  Ca  Ca2       1.0  0.67600  0.82400  0.17600  1.0000
  Ca  Ca3       1.0  0.32400  0.32400  0.32400  1.0000
  Ca  Ca4       1.0  0.08360  0.91600  0.41600  1.0000
  Ca  Ca5       1.0  0.58400  0.58400  0.58400  1.0000
  Ca  Ca6       1.0  0.82400  0.17600  0.67600  1.0000
  Ca  Ca7       1.0  0.17600  0.67600  0.82400  1.0000
  Ca  Ca8       1.0  0.41600  0.08360  0.91600  1.0000
  K   K1        1.0  0.05010  0.05010  0.05010  1.0000
  K   K2        1.0  0.31300  0.68700  0.18700  1.0000
  K   K3        1.0  0.68700  0.18700  0.31300  1.0000
  K   K4        1.0  0.95000  0.55000  0.45000  1.0000
  K   K5        1.0  0.45000  0.95000  0.55000  1.0000
  K   K6        1.0  0.18700  0.31300  0.68700  1.0000
  K   K7        1.0  0.81300  0.81300  0.81300  1.0000
  K   K8        1.0  0.55000  0.45000  0.95000  1.0000
  O   O1        1.0  0.10100  0.31000  0.00446  1.0000
  O   O2        1.0  0.09230  0.73100  0.02030  1.0000
  O   O3        1.0  0.83200  0.22000  0.03210  1.0000
  O   O4        1.0  0.86500  0.75800  0.07230  1.0000
  O   O5        1.0  0.73100  0.02030  0.09230  1.0000
  O   O6        1.0  0.31000  0.00446  0.10100  1.0000
  O   O7        1.0  0.25800  0.42800  0.13500  1.0000
  O   O8        1.0  0.72000  0.46800  0.16800  1.0000
  O   O9        1.0  0.99600  0.60100  0.19000  1.0000
  O   O10       1.0  0.03210  0.83200  0.22000  1.0000
  O   O11       1.0  0.48000  0.90800  0.23100  1.0000
  O   O12       1.0  0.57200  0.63500  0.24200  1.0000
  O   O13       1.0  0.42800  0.13500  0.25800  1.0000
  O   O14       1.0  0.52000  0.40800  0.26900  1.0000
  O   O15       1.0  0.96800  0.33200  0.28000  1.0000
  O   O16       1.0  0.00446  0.10100  0.31000  1.0000
  O   O17       1.0  0.28000  0.96800  0.33200  1.0000
  O   O18       1.0  0.74200  0.92800  0.36500  1.0000
  O   O19       1.0  0.69000  0.50400  0.39900  1.0000
  O   O20       1.0  0.26900  0.52000  0.40800  1.0000
  O   O21       1.0  0.13500  0.25800  0.42800  1.0000
  O   O22       1.0  0.16800  0.72000  0.46800  1.0000
  O   O23       1.0  0.90800  0.23100  0.48000  1.0000
  O   O24       1.0  0.89900  0.81000  0.49600  1.0000
  O   O25       1.0  0.39900  0.69000  0.50400  1.0000
  O   O26       1.0  0.40800  0.26900  0.52000  1.0000
  O   O27       1.0  0.66800  0.78000  0.53200  1.0000
  O   O28       1.0  0.63500  0.24200  0.57200  1.0000
  O   O29       1.0  0.76900  0.98000  0.59200  1.0000
  O   O30       1.0  0.19000  0.99600  0.60100  1.0000
  O   O31       1.0  0.24200  0.57200  0.63500  1.0000
  O   O32       1.0  0.78000  0.53200  0.66800  1.0000
  O   O33       1.0  0.50400  0.39900  0.69000  1.0000
  O   O34       1.0  0.46800  0.16800  0.72000  1.0000
  O   O35       1.0  0.02030  0.09230  0.73100  1.0000
  O   O36       1.0  0.92800  0.36500  0.74200  1.0000
  O   O37       1.0  0.07230  0.86500  0.75800  1.0000
  O   O38       1.0  0.98000  0.59200  0.76900  1.0000
  O   O39       1.0  0.53200  0.66800  0.78000  1.0000
  O   O40       1.0  0.49600  0.89900  0.81000  1.0000
  O   O41       1.0  0.22000  0.03210  0.83200  1.0000
  O   O42       1.0  0.75800  0.07230  0.86500  1.0000
  O   O43       1.0  0.81000  0.49600  0.89900  1.0000
  O   O44       1.0  0.23100  0.48000  0.90800  1.0000
  O   O45       1.0  0.36500  0.74200  0.92800  1.0000
  O   O46       1.0  0.33200  0.28000  0.96800  1.0000
  O   O47       1.0  0.59200  0.76900  0.98000  1.0000
  O   O48       1.0  0.60100  0.19000  0.99600  1.0000
  S   S1        1.0  0.23000  0.37400  0.00441  1.0000
  S   S2        1.0  0.99600  0.73000  0.12600  1.0000
  S   S3        1.0  0.37400  0.00441  0.23000  1.0000
  S   S4        1.0  0.62600  0.50400  0.27000  1.0000
  S   S5        1.0  0.00441  0.23000  0.37400  1.0000
  S   S6        1.0  0.77000  0.87400  0.49600  1.0000
  S   S7        1.0  0.27000  0.62600  0.50400  1.0000
  S   S8        1.0  0.50400  0.27000  0.62600  1.0000
  S   S9        1.0  0.12600  0.99600  0.73000  1.0000
  S   S10       1.0  0.87400  0.49600  0.77000  1.0000
  S   S11       1.0  0.49600  0.77000  0.87400  1.0000
  S   S12       1.0  0.73000  0.12600  0.99600  1.0000
