data_image0
_chemical_formula_structural       Cu4Ge4Ti3
_chemical_formula_sum              "Cu4 Ge4 Ti3"
_cell_length_a       5.67273
_cell_length_b       5.67273
_cell_length_c       6.97531
_cell_angle_alpha    66.0067
_cell_angle_beta     66.0067
_cell_angle_gamma    90

_space_group_name_H-M_alt    "P 1"
_space_group_IT_number       1

loop_
  _space_group_symop_operation_xyz
  'x, y, z'

loop_
  _atom_site_type_symbol
  _atom_site_label
  _atom_site_symmetry_multiplicity
  _atom_site_fract_x
  _atom_site_fract_y
  _atom_site_fract_z
  _atom_site_occupancy
  Cu  Cu1       1.0  0.63800  0.12000  0.24200  1.0000
  Cu  Cu2       1.0  0.12000  0.63800  0.24200  1.0000
  Cu  Cu3       1.0  0.36200  0.36200  0.75800  1.0000
  Cu  Cu4       1.0  0.88000  0.88000  0.75800  1.0000
  Ge  Ge1       1.0  0.50000  0.00000  0.00000  1.0000
  Ge  Ge2       1.0  0.00000  0.50000  0.00000  1.0000
  Ge  Ge3       1.0  0.25100  0.25100  0.49800  1.0000
  Ge  Ge4       1.0  0.74900  0.74900  0.50200  1.0000
  Ti  Ti1       1.0  0.50000  0.50000  0.00000  1.0000
  Ti  Ti2       1.0  0.75000  0.25000  0.50000  1.0000
  Ti  Ti3       1.0  0.25000  0.75000  0.50000  1.0000
