data_image0
_chemical_formula_structural       B20K8Na4O40Zn4
_chemical_formula_sum              "B20 K8 Na4 O40 Zn4"
_cell_length_a       7.53255
_cell_length_b       7.53255
_cell_length_c       18.9495
_cell_angle_alpha    95.0487
_cell_angle_beta     95.0487
_cell_angle_gamma    116.553

_space_group_name_H-M_alt    "P 1"
_space_group_IT_number       1

loop_
  _space_group_symop_operation_xyz
  'x, y, z'

loop_
  _atom_site_type_symbol
  _atom_site_label
  _atom_site_symmetry_multiplicity
  _atom_site_fract_x
  _atom_site_fract_y
  _atom_site_fract_z
  _atom_site_occupancy
  B   B1        1.0  0.36700  0.69400  0.07690  1.0000
  B   B2        1.0  0.67800  0.00570  0.07950  1.0000
  B   B3        1.0  0.43700  0.99600  0.16600  1.0000
  B   B4        1.0  0.90100  0.57000  0.20300  1.0000
  B   B5        1.0  0.26600  0.20400  0.20400  1.0000
  B   B6        1.0  0.79600  0.73400  0.29600  1.0000
  B   B7        1.0  0.43000  0.09930  0.29700  1.0000
  B   B8        1.0  0.00442  0.56300  0.33400  1.0000
  B   B9        1.0  0.99400  0.32200  0.42000  1.0000
  B   B10       1.0  0.30600  0.63300  0.42300  1.0000
  B   B11       1.0  0.69400  0.36700  0.57700  1.0000
  B   B12       1.0  0.00570  0.67800  0.58000  1.0000
  B   B13       1.0  0.99600  0.43700  0.66600  1.0000
  B   B14       1.0  0.57000  0.90100  0.70300  1.0000
  B   B15       1.0  0.20400  0.26600  0.70400  1.0000
  B   B16       1.0  0.73400  0.79600  0.79600  1.0000
  B   B17       1.0  0.09930  0.43000  0.79700  1.0000
  B   B18       1.0  0.56300  0.00442  0.83400  1.0000
  B   B19       1.0  0.32200  0.99400  0.92000  1.0000
  B   B20       1.0  0.63300  0.30600  0.92300  1.0000
  K   K1        1.0  0.98600  0.82200  0.06370  1.0000
  K   K2        1.0  0.53400  0.38700  0.07960  1.0000
  K   K3        1.0  0.61300  0.46600  0.42000  1.0000
  K   K4        1.0  0.17800  0.01440  0.43600  1.0000
  K   K5        1.0  0.82200  0.98600  0.56400  1.0000
  K   K6        1.0  0.38700  0.53400  0.58000  1.0000
  K   K7        1.0  0.46600  0.61300  0.92000  1.0000
  K   K8        1.0  0.01440  0.17800  0.93600  1.0000
  Na  Na1       1.0  0.84900  0.15100  0.25000  1.0000
  Na  Na2       1.0  0.34800  0.65200  0.25000  1.0000
  Na  Na3       1.0  0.65200  0.34800  0.75000  1.0000
  Na  Na4       1.0  0.15100  0.84900  0.75000  1.0000
  O   O1        1.0  0.24800  0.50400  0.04580  1.0000
  O   O2        1.0  0.54900  0.80400  0.05050  1.0000
  O   O3        1.0  0.84900  0.10100  0.05210  1.0000
  O   O4        1.0  0.90100  0.52200  0.13400  1.0000
  O   O5        1.0  0.32300  0.78300  0.13500  1.0000
  O   O6        1.0  0.62700  0.09260  0.13600  1.0000
  O   O7        1.0  0.31500  0.10000  0.15200  1.0000
  O   O8        1.0  0.17000  0.31200  0.18900  1.0000
  O   O9        1.0  0.79800  0.67900  0.22300  1.0000
  O   O10       1.0  0.48600  0.00643  0.24300  1.0000
  O   O11       1.0  0.99400  0.51400  0.25700  1.0000
  O   O12       1.0  0.32100  0.20200  0.27700  1.0000
  O   O13       1.0  0.68800  0.83000  0.31100  1.0000
  O   O14       1.0  0.90000  0.68500  0.34800  1.0000
  O   O15       1.0  0.90700  0.37300  0.36400  1.0000
  O   O16       1.0  0.21700  0.67700  0.36500  1.0000
  O   O17       1.0  0.47800  0.09860  0.36600  1.0000
  O   O18       1.0  0.89900  0.15100  0.44800  1.0000
  O   O19       1.0  0.19600  0.45100  0.45000  1.0000
  O   O20       1.0  0.49600  0.75200  0.45400  1.0000
  O   O21       1.0  0.50400  0.24800  0.54600  1.0000
  O   O22       1.0  0.80400  0.54900  0.55000  1.0000
  O   O23       1.0  0.10100  0.84900  0.55200  1.0000
  O   O24       1.0  0.52200  0.90100  0.63400  1.0000
  O   O25       1.0  0.78300  0.32300  0.63500  1.0000
  O   O26       1.0  0.09260  0.62700  0.63600  1.0000
  O   O27       1.0  0.10000  0.31500  0.65200  1.0000
  O   O28       1.0  0.31200  0.17000  0.68900  1.0000
  O   O29       1.0  0.67900  0.79800  0.72300  1.0000
  O   O30       1.0  0.00643  0.48600  0.74300  1.0000
  O   O31       1.0  0.51400  0.99400  0.75700  1.0000
  O   O32       1.0  0.20200  0.32100  0.77700  1.0000
  O   O33       1.0  0.83000  0.68800  0.81100  1.0000
  O   O34       1.0  0.68500  0.90000  0.84800  1.0000
  O   O35       1.0  0.37300  0.90700  0.86400  1.0000
  O   O36       1.0  0.67700  0.21700  0.86500  1.0000
  O   O37       1.0  0.09860  0.47800  0.86600  1.0000
  O   O38       1.0  0.15100  0.89900  0.94800  1.0000
  O   O39       1.0  0.45100  0.19600  0.95000  1.0000
  O   O40       1.0  0.75200  0.49600  0.95400  1.0000
  Zn  Zn1       1.0  0.03690  0.36500  0.10500  1.0000
  Zn  Zn2       1.0  0.63500  0.96300  0.39500  1.0000
  Zn  Zn3       1.0  0.36500  0.03690  0.60500  1.0000
  Zn  Zn4       1.0  0.96300  0.63500  0.89500  1.0000
