data_image0
_chemical_formula_structural       Al4Cl2F50Sr20
_chemical_formula_sum              "Al4 Cl2 F50 Sr20"
_cell_length_a       11.442
_cell_length_b       11.442
_cell_length_c       11.442
_cell_angle_alpha    120
_cell_angle_beta     90
_cell_angle_gamma    120

_space_group_name_H-M_alt    "P 1"
_space_group_IT_number       1

loop_
  _space_group_symop_operation_xyz
  'x, y, z'

loop_
  _atom_site_type_symbol
  _atom_site_label
  _atom_site_symmetry_multiplicity
  _atom_site_fract_x
  _atom_site_fract_y
  _atom_site_fract_z
  _atom_site_occupancy
  Al  Al1       1.0  0.37500  0.75000  0.12500  1.0000
  Al  Al2       1.0  0.37500  0.25000  0.62500  1.0000
  Al  Al3       1.0  0.87500  0.25000  0.62500  1.0000
  Al  Al4       1.0  0.37500  0.75000  0.62500  1.0000
  Cl  Cl1       1.0  0.00000  0.00000  0.00000  1.0000
  Cl  Cl2       1.0  0.75000  0.50000  0.25000  1.0000
  F   F1        1.0  0.19000  0.60400  0.01790  1.0000
  F   F2        1.0  0.41400  0.60400  0.01790  1.0000
  F   F3        1.0  0.41400  0.82800  0.01790  1.0000
  F   F4        1.0  0.33600  0.89600  0.23200  1.0000
  F   F5        1.0  0.56000  0.89600  0.23200  1.0000
  F   F6        1.0  0.33600  0.67200  0.23200  1.0000
  F   F7        1.0  0.47400  0.20800  0.26600  1.0000
  F   F8        1.0  0.73400  0.20800  0.26600  1.0000
  F   F9        1.0  0.05860  0.53200  0.26600  1.0000
  F   F10       1.0  0.47400  0.53200  0.26600  1.0000
  F   F11       1.0  0.05860  0.79200  0.26600  1.0000
  F   F12       1.0  0.73400  0.79200  0.26600  1.0000
  F   F13       1.0  0.01620  0.03230  0.30900  1.0000
  F   F14       1.0  0.01620  0.29200  0.30900  1.0000
  F   F15       1.0  0.27600  0.29200  0.30900  1.0000
  F   F16       1.0  0.33600  0.10400  0.44000  1.0000
  F   F17       1.0  0.76800  0.10400  0.44000  1.0000
  F   F18       1.0  0.33600  0.67200  0.44000  1.0000
  F   F19       1.0  0.50000  0.00000  0.50000  1.0000
  F   F20       1.0  0.73400  0.46800  0.52600  1.0000
  F   F21       1.0  0.05860  0.79200  0.52600  1.0000
  F   F22       1.0  0.73400  0.79200  0.52600  1.0000
  F   F23       1.0  0.98200  0.17200  0.58600  1.0000
  F   F24       1.0  0.41400  0.39600  0.58600  1.0000
  F   F25       1.0  0.98200  0.39600  0.58600  1.0000
  F   F26       1.0  0.19000  0.60400  0.58600  1.0000
  F   F27       1.0  0.41400  0.60400  0.58600  1.0000
  F   F28       1.0  0.19000  0.17200  0.58600  1.0000
  F   F29       1.0  0.33600  0.10400  0.66400  1.0000
  F   F30       1.0  0.56000  0.32800  0.66400  1.0000
  F   F31       1.0  0.76800  0.10400  0.66400  1.0000
  F   F32       1.0  0.76800  0.32800  0.66400  1.0000
  F   F33       1.0  0.33600  0.89600  0.66400  1.0000
  F   F34       1.0  0.56000  0.89600  0.66400  1.0000
  F   F35       1.0  0.01620  0.03230  0.72400  1.0000
  F   F36       1.0  0.01620  0.70800  0.72400  1.0000
  F   F37       1.0  0.69100  0.70800  0.72400  1.0000
  F   F38       1.0  0.25000  0.50000  0.75000  1.0000
  F   F39       1.0  0.98200  0.39600  0.81000  1.0000
  F   F40       1.0  0.41400  0.39600  0.81000  1.0000
  F   F41       1.0  0.41400  0.82800  0.81000  1.0000
  F   F42       1.0  0.47400  0.20800  0.94100  1.0000
  F   F43       1.0  0.73400  0.20800  0.94100  1.0000
  F   F44       1.0  0.73400  0.46800  0.94100  1.0000
  F   F45       1.0  0.01620  0.70800  0.98400  1.0000
  F   F46       1.0  0.69100  0.70800  0.98400  1.0000
  F   F47       1.0  0.01620  0.29200  0.98400  1.0000
  F   F48       1.0  0.27600  0.29200  0.98400  1.0000
  F   F49       1.0  0.27600  0.96800  0.98400  1.0000
  F   F50       1.0  0.69100  0.96800  0.98400  1.0000
  Sr  Sr1       1.0  0.94300  0.50000  0.05690  1.0000
  Sr  Sr2       1.0  0.55700  0.50000  0.05690  1.0000
  Sr  Sr3       1.0  0.55700  0.11400  0.05690  1.0000
  Sr  Sr4       1.0  0.19300  0.00000  0.19300  1.0000
  Sr  Sr5       1.0  0.19300  0.38600  0.19300  1.0000
  Sr  Sr6       1.0  0.80700  0.00000  0.19300  1.0000
  Sr  Sr7       1.0  0.58600  0.17200  0.41400  1.0000
  Sr  Sr8       1.0  0.24200  0.82800  0.41400  1.0000
  Sr  Sr9       1.0  0.58600  0.82800  0.41400  1.0000
  Sr  Sr10      1.0  0.55700  0.50000  0.44300  1.0000
  Sr  Sr11      1.0  0.94300  0.50000  0.44300  1.0000
  Sr  Sr12      1.0  0.94300  0.88600  0.44300  1.0000
  Sr  Sr13      1.0  0.16400  0.32800  0.49200  1.0000
  Sr  Sr14      1.0  0.58600  0.17200  0.75800  1.0000
  Sr  Sr15      1.0  0.80700  1.00000  0.80700  1.0000
  Sr  Sr16      1.0  0.19300  1.00000  0.80700  1.0000
  Sr  Sr17      1.0  0.80700  0.61400  0.80700  1.0000
  Sr  Sr18      1.0  0.16400  0.32800  0.83600  1.0000
  Sr  Sr19      1.0  0.16400  0.67200  0.83600  1.0000
  Sr  Sr20      1.0  0.50800  0.67200  0.83600  1.0000
