data_image0
_chemical_formula_structural       As4Pd4Zr3
_chemical_formula_sum              "As4 Pd4 Zr3"
_cell_length_a       6.12997
_cell_length_b       6.12997
_cell_length_c       7.43565
_cell_angle_alpha    65.6568
_cell_angle_beta     65.6568
_cell_angle_gamma    90

_space_group_name_H-M_alt    "P 1"
_space_group_IT_number       1

loop_
  _space_group_symop_operation_xyz
  'x, y, z'

loop_
  _atom_site_type_symbol
  _atom_site_label
  _atom_site_symmetry_multiplicity
  _atom_site_fract_x
  _atom_site_fract_y
  _atom_site_fract_z
  _atom_site_occupancy
  As  As1       1.0  0.50000  0.00000  0.00000  1.0000
  As  As2       1.0  0.00000  0.50000  0.00000  1.0000
  As  As3       1.0  0.75200  0.75200  0.49600  1.0000
  As  As4       1.0  0.24800  0.24800  0.50400  1.0000
  Pd  Pd1       1.0  0.62700  0.12300  0.25000  1.0000
  Pd  Pd2       1.0  0.12300  0.62700  0.25000  1.0000
  Pd  Pd3       1.0  0.37300  0.37300  0.75000  1.0000
  Pd  Pd4       1.0  0.87700  0.87700  0.75000  1.0000
  Zr  Zr1       1.0  0.50000  0.50000  0.00000  1.0000
  Zr  Zr2       1.0  0.75000  0.25000  0.50000  1.0000
  Zr  Zr3       1.0  0.25000  0.75000  0.50000  1.0000
