data_image0
_chemical_formula_structural       Fe6H24N4O32P8
_chemical_formula_sum              "Fe6 H24 N4 O32 P8"
_cell_length_a       9.2596
_cell_length_b       8.09192
_cell_length_c       9.33587
_cell_angle_alpha    90
_cell_angle_beta     99.5098
_cell_angle_gamma    90

_space_group_name_H-M_alt    "P 1"
_space_group_IT_number       1

loop_
  _space_group_symop_operation_xyz
  'x, y, z'

loop_
  _atom_site_type_symbol
  _atom_site_label
  _atom_site_symmetry_multiplicity
  _atom_site_fract_x
  _atom_site_fract_y
  _atom_site_fract_z
  _atom_site_occupancy
  Fe  Fe1       1.0  0.00000  0.00000  0.00000  1.0000
  Fe  Fe2       1.0  0.13500  0.36300  0.00081  1.0000
  Fe  Fe3       1.0  0.86500  0.86300  0.49900  1.0000
  Fe  Fe4       1.0  0.00000  0.50000  0.50000  1.0000
  Fe  Fe5       1.0  0.13500  0.13700  0.50100  1.0000
  Fe  Fe6       1.0  0.86500  0.63700  0.99900  1.0000
  H   H1        1.0  0.35100  0.70500  0.01250  1.0000
  H   H2        1.0  0.54000  0.70900  0.05110  1.0000
  H   H3        1.0  0.44200  0.87700  0.08260  1.0000
  H   H4        1.0  0.55000  0.17900  0.09010  1.0000
  H   H5        1.0  0.37700  0.49100  0.20400  1.0000
  H   H6        1.0  0.21700  0.52500  0.24400  1.0000
  H   H7        1.0  0.78300  0.02530  0.25600  1.0000
  H   H8        1.0  0.62300  0.99100  0.29600  1.0000
  H   H9        1.0  0.45000  0.67900  0.41000  1.0000
  H   H10       1.0  0.55800  0.37700  0.41700  1.0000
  H   H11       1.0  0.46000  0.20900  0.44900  1.0000
  H   H12       1.0  0.64900  0.20500  0.48800  1.0000
  H   H13       1.0  0.35100  0.79500  0.51200  1.0000
  H   H14       1.0  0.54000  0.79100  0.55100  1.0000
  H   H15       1.0  0.44200  0.62300  0.58300  1.0000
  H   H16       1.0  0.55000  0.32100  0.59000  1.0000
  H   H17       1.0  0.37700  0.00878  0.70400  1.0000
  H   H18       1.0  0.21700  0.97500  0.74400  1.0000
  H   H19       1.0  0.78300  0.47500  0.75600  1.0000
  H   H20       1.0  0.62300  0.50900  0.79600  1.0000
  H   H21       1.0  0.45000  0.82100  0.91000  1.0000
  H   H22       1.0  0.55800  0.12300  0.91700  1.0000
  H   H23       1.0  0.46000  0.29100  0.94900  1.0000
  H   H24       1.0  0.64900  0.29500  0.98800  1.0000
  N   N1        1.0  0.44300  0.77600  0.01220  1.0000
  N   N2        1.0  0.55700  0.27600  0.48800  1.0000
  N   N3        1.0  0.44300  0.72400  0.51200  1.0000
  N   N4        1.0  0.55700  0.22400  0.98800  1.0000
  O   O1        1.0  0.19200  0.11900  0.10700  1.0000
  O   O2        1.0  0.95900  0.42100  0.11200  1.0000
  O   O3        1.0  0.69900  0.64700  0.12300  1.0000
  O   O4        1.0  0.00324  0.79000  0.13800  1.0000
  O   O5        1.0  0.87100  0.12600  0.14000  1.0000
  O   O6        1.0  0.27000  0.49000  0.16400  1.0000
  O   O7        1.0  0.45800  0.03650  0.20200  1.0000
  O   O8        1.0  0.74300  0.36200  0.23900  1.0000
  O   O9        1.0  0.25700  0.86200  0.26100  1.0000
  O   O10       1.0  0.54200  0.53600  0.29800  1.0000
  O   O11       1.0  0.73000  0.99000  0.33600  1.0000
  O   O12       1.0  0.12900  0.62600  0.36000  1.0000
  O   O13       1.0  0.99700  0.29000  0.36200  1.0000
  O   O14       1.0  0.30100  0.14700  0.37700  1.0000
  O   O15       1.0  0.04100  0.92100  0.38800  1.0000
  O   O16       1.0  0.80800  0.61900  0.39300  1.0000
  O   O17       1.0  0.19200  0.38100  0.60700  1.0000
  O   O18       1.0  0.95900  0.07930  0.61200  1.0000
  O   O19       1.0  0.69900  0.85300  0.62300  1.0000
  O   O20       1.0  0.00324  0.71000  0.63800  1.0000
  O   O21       1.0  0.87100  0.37400  0.64000  1.0000
  O   O22       1.0  0.27000  0.01020  0.66400  1.0000
  O   O23       1.0  0.45800  0.46400  0.70200  1.0000
  O   O24       1.0  0.74300  0.13800  0.73900  1.0000
  O   O25       1.0  0.25700  0.63800  0.76100  1.0000
  O   O26       1.0  0.54200  0.96400  0.79800  1.0000
  O   O27       1.0  0.73000  0.51000  0.83600  1.0000
  O   O28       1.0  0.12900  0.87400  0.86000  1.0000
  O   O29       1.0  0.99700  0.21000  0.86200  1.0000
  O   O30       1.0  0.30100  0.35300  0.87700  1.0000
  O   O31       1.0  0.04100  0.57900  0.88800  1.0000
  O   O32       1.0  0.80800  0.88100  0.89300  1.0000
  P   P1        1.0  0.90300  0.29500  0.21100  1.0000
  P   P2        1.0  0.30300  0.05390  0.23500  1.0000
  P   P3        1.0  0.69700  0.55400  0.26500  1.0000
  P   P4        1.0  0.09740  0.79500  0.28900  1.0000
  P   P5        1.0  0.90300  0.20500  0.71100  1.0000
  P   P6        1.0  0.30300  0.44600  0.73500  1.0000
  P   P7        1.0  0.69700  0.94600  0.76500  1.0000
  P   P8        1.0  0.09740  0.70500  0.78900  1.0000
