data_image0
_chemical_formula_structural       As5Nb4Rh5
_chemical_formula_sum              "As5 Nb4 Rh5"
_cell_length_a       5.99643
_cell_length_b       7.27448
_cell_length_c       7.27448
_cell_angle_alpha    80.2196
_cell_angle_beta     114.34
_cell_angle_gamma    114.34

_space_group_name_H-M_alt    "P 1"
_space_group_IT_number       1

loop_
  _space_group_symop_operation_xyz
  'x, y, z'

loop_
  _atom_site_type_symbol
  _atom_site_label
  _atom_site_symmetry_multiplicity
  _atom_site_fract_x
  _atom_site_fract_y
  _atom_site_fract_z
  _atom_site_occupancy
  As  As1       1.0  0.50000  0.00000  0.00000  1.0000
  As  As2       1.0  0.90300  0.61600  0.19600  1.0000
  As  As3       1.0  0.29300  0.19600  0.38400  1.0000
  As  As4       1.0  0.71300  0.80400  0.61600  1.0000
  As  As5       1.0  0.09080  0.38400  0.80400  1.0000
  Nb  Nb1       1.0  0.40000  0.60200  0.20000  1.0000
  Nb  Nb2       1.0  0.80100  0.20000  0.39800  1.0000
  Nb  Nb3       1.0  0.20200  0.80000  0.60200  1.0000
  Nb  Nb4       1.0  0.59800  0.39800  0.80000  1.0000
  Rh  Rh1       1.0  0.94800  0.31600  0.10400  1.0000
  Rh  Rh2       1.0  0.36900  0.89600  0.31600  1.0000
  Rh  Rh3       1.0  0.75000  0.50000  0.50000  1.0000
  Rh  Rh4       1.0  0.15700  0.10400  0.68400  1.0000
  Rh  Rh5       1.0  0.52700  0.68400  0.89600  1.0000
