data_image0
_chemical_formula_structural       K8Mn8O48S12
_chemical_formula_sum              "K8 Mn8 O48 S12"
_cell_length_a       10.0483
_cell_length_b       10.0483
_cell_length_c       10.0483
_cell_angle_alpha    90
_cell_angle_beta     90
_cell_angle_gamma    90

_space_group_name_H-M_alt    "P 1"
_space_group_IT_number       1

loop_
  _space_group_symop_operation_xyz
  'x, y, z'

loop_
  _atom_site_type_symbol
  _atom_site_label
  _atom_site_symmetry_multiplicity
  _atom_site_fract_x
  _atom_site_fract_y
  _atom_site_fract_z
  _atom_site_occupancy
  K   K1        1.0  0.04920  0.04920  0.04920  1.0000
  K   K2        1.0  0.31300  0.68700  0.18700  1.0000
  K   K3        1.0  0.68700  0.18700  0.31300  1.0000
  K   K4        1.0  0.95100  0.54900  0.45100  1.0000
  K   K5        1.0  0.45100  0.95100  0.54900  1.0000
  K   K6        1.0  0.18700  0.31300  0.68700  1.0000
  K   K7        1.0  0.81300  0.81300  0.81300  1.0000
  K   K8        1.0  0.54900  0.45100  0.95100  1.0000
  Mn  Mn1       1.0  0.91200  0.41200  0.08830  1.0000
  Mn  Mn2       1.0  0.67000  0.83000  0.17000  1.0000
  Mn  Mn3       1.0  0.33000  0.33000  0.33000  1.0000
  Mn  Mn4       1.0  0.08830  0.91200  0.41200  1.0000
  Mn  Mn5       1.0  0.58800  0.58800  0.58800  1.0000
  Mn  Mn6       1.0  0.83000  0.17000  0.67000  1.0000
  Mn  Mn7       1.0  0.17000  0.67000  0.83000  1.0000
  Mn  Mn8       1.0  0.41200  0.08830  0.91200  1.0000
  O   O1        1.0  0.58700  0.17800  0.00177  1.0000
  O   O2        1.0  0.07440  0.74300  0.00693  1.0000
  O   O3        1.0  0.82100  0.22600  0.03270  1.0000
  O   O4        1.0  0.74300  0.00693  0.07440  1.0000
  O   O5        1.0  0.84800  0.75000  0.08540  1.0000
  O   O6        1.0  0.32200  0.99800  0.08710  1.0000
  O   O7        1.0  0.25000  0.41500  0.15200  1.0000
  O   O8        1.0  0.00177  0.58700  0.17800  1.0000
  O   O9        1.0  0.72600  0.46700  0.17900  1.0000
  O   O10       1.0  0.03270  0.82100  0.22600  1.0000
  O   O11       1.0  0.49300  0.92600  0.24300  1.0000
  O   O12       1.0  0.58500  0.65200  0.25000  1.0000
  O   O13       1.0  0.41500  0.15200  0.25000  1.0000
  O   O14       1.0  0.50700  0.42600  0.25700  1.0000
  O   O15       1.0  0.96700  0.32100  0.27400  1.0000
  O   O16       1.0  0.27400  0.96700  0.32100  1.0000
  O   O17       1.0  0.99800  0.08710  0.32200  1.0000
  O   O18       1.0  0.75000  0.91500  0.34800  1.0000
  O   O19       1.0  0.67800  0.49800  0.41300  1.0000
  O   O20       1.0  0.15200  0.25000  0.41500  1.0000
  O   O21       1.0  0.25700  0.50700  0.42600  1.0000
  O   O22       1.0  0.17900  0.72600  0.46700  1.0000
  O   O23       1.0  0.92600  0.24300  0.49300  1.0000
  O   O24       1.0  0.41300  0.67800  0.49800  1.0000
  O   O25       1.0  0.91300  0.82200  0.50200  1.0000
  O   O26       1.0  0.42600  0.25700  0.50700  1.0000
  O   O27       1.0  0.67900  0.77400  0.53300  1.0000
  O   O28       1.0  0.75700  0.99300  0.57400  1.0000
  O   O29       1.0  0.65200  0.25000  0.58500  1.0000
  O   O30       1.0  0.17800  0.00177  0.58700  1.0000
  O   O31       1.0  0.25000  0.58500  0.65200  1.0000
  O   O32       1.0  0.49800  0.41300  0.67800  1.0000
  O   O33       1.0  0.77400  0.53300  0.67900  1.0000
  O   O34       1.0  0.46700  0.17900  0.72600  1.0000
  O   O35       1.0  0.00693  0.07440  0.74300  1.0000
  O   O36       1.0  0.91500  0.34800  0.75000  1.0000
  O   O37       1.0  0.08540  0.84800  0.75000  1.0000
  O   O38       1.0  0.99300  0.57400  0.75700  1.0000
  O   O39       1.0  0.53300  0.67900  0.77400  1.0000
  O   O40       1.0  0.22600  0.03270  0.82100  1.0000
  O   O41       1.0  0.50200  0.91300  0.82200  1.0000
  O   O42       1.0  0.75000  0.08540  0.84800  1.0000
  O   O43       1.0  0.82200  0.50200  0.91300  1.0000
  O   O44       1.0  0.34800  0.75000  0.91500  1.0000
  O   O45       1.0  0.24300  0.49300  0.92600  1.0000
  O   O46       1.0  0.32100  0.27400  0.96700  1.0000
  O   O47       1.0  0.57400  0.75700  0.99300  1.0000
  O   O48       1.0  0.08710  0.32200  0.99800  1.0000
  S   S1        1.0  0.22500  0.37500  0.01210  1.0000
  S   S2        1.0  0.98800  0.72500  0.12500  1.0000
  S   S3        1.0  0.37500  0.01210  0.22500  1.0000
  S   S4        1.0  0.62500  0.51200  0.27500  1.0000
  S   S5        1.0  0.01210  0.22500  0.37500  1.0000
  S   S6        1.0  0.77500  0.87500  0.48800  1.0000
  S   S7        1.0  0.27500  0.62500  0.51200  1.0000
  S   S8        1.0  0.51200  0.27500  0.62500  1.0000
  S   S9        1.0  0.12500  0.98800  0.72500  1.0000
  S   S10       1.0  0.87500  0.48800  0.77500  1.0000
  S   S11       1.0  0.48800  0.77500  0.87500  1.0000
  S   S12       1.0  0.72500  0.12500  0.98800  1.0000
