data_image0
_chemical_formula_structural       C8F4H32N8O24V4
_chemical_formula_sum              "C8 F4 H32 N8 O24 V4"
_cell_length_a       10.9993
_cell_length_b       9.26531
_cell_length_c       6.93477
_cell_angle_alpha    90
_cell_angle_beta     97.8091
_cell_angle_gamma    90

_space_group_name_H-M_alt    "P 1"
_space_group_IT_number       1

loop_
  _space_group_symop_operation_xyz
  'x, y, z'

loop_
  _atom_site_type_symbol
  _atom_site_label
  _atom_site_symmetry_multiplicity
  _atom_site_fract_x
  _atom_site_fract_y
  _atom_site_fract_z
  _atom_site_occupancy
  C   C1        1.0  0.84600  0.27000  0.03970  1.0000
  C   C2        1.0  0.72600  0.22300  0.11200  1.0000
  C   C3        1.0  0.27400  0.72300  0.38800  1.0000
  C   C4        1.0  0.15400  0.77000  0.46000  1.0000
  C   C5        1.0  0.84600  0.23000  0.54000  1.0000
  C   C6        1.0  0.72600  0.27700  0.61200  1.0000
  C   C7        1.0  0.27400  0.77700  0.88800  1.0000
  C   C8        1.0  0.15400  0.73000  0.96000  1.0000
  F   F1        1.0  0.41000  0.07080  0.23900  1.0000
  F   F2        1.0  0.59000  0.57100  0.26100  1.0000
  F   F3        1.0  0.41000  0.42900  0.73900  1.0000
  F   F4        1.0  0.59000  0.92900  0.76100  1.0000
  H   H1        1.0  0.42400  0.13200  0.00657  1.0000
  H   H2        1.0  0.53100  0.73300  0.13400  1.0000
  H   H3        1.0  0.96600  0.88500  0.13500  1.0000
  H   H4        1.0  0.82500  0.95900  0.13800  1.0000
  H   H5        1.0  0.47000  0.90000  0.14600  1.0000
  H   H6        1.0  0.07440  0.46000  0.15900  1.0000
  H   H7        1.0  0.13500  0.30000  0.24100  1.0000
  H   H8        1.0  0.61500  0.86800  0.24100  1.0000
  H   H9        1.0  0.38500  0.36800  0.25900  1.0000
  H   H10       1.0  0.86500  0.80000  0.25900  1.0000
  H   H11       1.0  0.92600  0.96000  0.34100  1.0000
  H   H12       1.0  0.53000  0.40000  0.35400  1.0000
  H   H13       1.0  0.17500  0.45900  0.36200  1.0000
  H   H14       1.0  0.03410  0.38500  0.36500  1.0000
  H   H15       1.0  0.46900  0.23300  0.36600  1.0000
  H   H16       1.0  0.57600  0.63200  0.49300  1.0000
  H   H17       1.0  0.42400  0.36800  0.50700  1.0000
  H   H18       1.0  0.53100  0.76700  0.63400  1.0000
  H   H19       1.0  0.96600  0.61500  0.63500  1.0000
  H   H20       1.0  0.82500  0.54100  0.63800  1.0000
  H   H21       1.0  0.47000  0.60000  0.64600  1.0000
  H   H22       1.0  0.07440  0.03970  0.65900  1.0000
  H   H23       1.0  0.13500  0.20000  0.74100  1.0000
  H   H24       1.0  0.61500  0.63200  0.74100  1.0000
  H   H25       1.0  0.38500  0.13200  0.75900  1.0000
  H   H26       1.0  0.86500  0.70000  0.75900  1.0000
  H   H27       1.0  0.92600  0.54000  0.84100  1.0000
  H   H28       1.0  0.53000  0.09970  0.85400  1.0000
  H   H29       1.0  0.17500  0.04120  0.86200  1.0000
  H   H30       1.0  0.03410  0.11500  0.86500  1.0000
  H   H31       1.0  0.46900  0.26700  0.86600  1.0000
  H   H32       1.0  0.57600  0.86800  0.99300  1.0000
  N   N1        1.0  0.54700  0.84200  0.12500  1.0000
  N   N2        1.0  0.89600  0.90100  0.21800  1.0000
  N   N3        1.0  0.10400  0.40100  0.28200  1.0000
  N   N4        1.0  0.45300  0.34200  0.37500  1.0000
  N   N5        1.0  0.54700  0.65800  0.62500  1.0000
  N   N6        1.0  0.89600  0.59900  0.71800  1.0000
  N   N7        1.0  0.10400  0.09880  0.78200  1.0000
  N   N8        1.0  0.45300  0.15800  0.87500  1.0000
  O   O1        1.0  0.08590  0.82000  0.01910  1.0000
  O   O2        1.0  0.29300  0.36400  0.04200  1.0000
  O   O3        1.0  0.86200  0.40900  0.04430  1.0000
  O   O4        1.0  0.69600  0.09440  0.11700  1.0000
  O   O5        1.0  0.66200  0.33100  0.16200  1.0000
  O   O6        1.0  0.16300  0.11700  0.19200  1.0000
  O   O7        1.0  0.83700  0.61700  0.30800  1.0000
  O   O8        1.0  0.33800  0.83100  0.33800  1.0000
  O   O9        1.0  0.30400  0.59400  0.38300  1.0000
  O   O10       1.0  0.13800  0.90900  0.45600  1.0000
  O   O11       1.0  0.70700  0.86400  0.45800  1.0000
  O   O12       1.0  0.91400  0.32000  0.48100  1.0000
  O   O13       1.0  0.08590  0.68000  0.51900  1.0000
  O   O14       1.0  0.29300  0.13600  0.54200  1.0000
  O   O15       1.0  0.86200  0.09110  0.54400  1.0000
  O   O16       1.0  0.69600  0.40600  0.61700  1.0000
  O   O17       1.0  0.66200  0.16900  0.66200  1.0000
  O   O18       1.0  0.16300  0.38300  0.69200  1.0000
  O   O19       1.0  0.83700  0.88300  0.80800  1.0000
  O   O20       1.0  0.33800  0.66900  0.83800  1.0000
  O   O21       1.0  0.30400  0.90600  0.88300  1.0000
  O   O22       1.0  0.13800  0.59100  0.95600  1.0000
  O   O23       1.0  0.70700  0.63600  0.95800  1.0000
  O   O24       1.0  0.91400  0.18000  0.98100  1.0000
  V   V1        1.0  0.73700  0.53100  0.15100  1.0000
  V   V2        1.0  0.26300  0.03150  0.34900  1.0000
  V   V3        1.0  0.73700  0.96800  0.65100  1.0000
  V   V4        1.0  0.26300  0.46900  0.84900  1.0000
