data_image0
_chemical_formula_structural       Ga20Gd12O48
_chemical_formula_sum              "Ga20 Gd12 O48"
_cell_length_a       10.6984
_cell_length_b       10.6984
_cell_length_c       10.6984
_cell_angle_alpha    109.471
_cell_angle_beta     109.471
_cell_angle_gamma    109.471

_space_group_name_H-M_alt    "P 1"
_space_group_IT_number       1

loop_
  _space_group_symop_operation_xyz
  'x, y, z'

loop_
  _atom_site_type_symbol
  _atom_site_label
  _atom_site_symmetry_multiplicity
  _atom_site_fract_x
  _atom_site_fract_y
  _atom_site_fract_z
  _atom_site_occupancy
  Ga  Ga1       1.0  0.00000  0.00000  0.00000  1.0000
  Ga  Ga2       1.0  0.50000  0.00000  0.00000  1.0000
  Ga  Ga3       1.0  0.00000  0.50000  0.00000  1.0000
  Ga  Ga4       1.0  0.50000  0.50000  0.00000  1.0000
  Ga  Ga5       1.0  0.75000  0.37500  0.12500  1.0000
  Ga  Ga6       1.0  0.87500  0.75000  0.12500  1.0000
  Ga  Ga7       1.0  0.12500  0.37500  0.25000  1.0000
  Ga  Ga8       1.0  0.62500  0.87500  0.25000  1.0000
  Ga  Ga9       1.0  0.62500  0.25000  0.37500  1.0000
  Ga  Ga10      1.0  0.25000  0.12500  0.37500  1.0000
  Ga  Ga11      1.0  0.00000  0.00000  0.50000  1.0000
  Ga  Ga12      1.0  0.50000  0.00000  0.50000  1.0000
  Ga  Ga13      1.0  1.00000  0.50000  0.50000  1.0000
  Ga  Ga14      1.0  0.50000  0.50000  0.50000  1.0000
  Ga  Ga15      1.0  0.37500  0.75000  0.62500  1.0000
  Ga  Ga16      1.0  0.75000  0.87500  0.62500  1.0000
  Ga  Ga17      1.0  0.37500  0.12500  0.75000  1.0000
  Ga  Ga18      1.0  0.87500  0.62500  0.75000  1.0000
  Ga  Ga19      1.0  0.12500  0.25000  0.87500  1.0000
  Ga  Ga20      1.0  0.25000  0.62500  0.87500  1.0000
  Gd  Gd1       1.0  0.25000  0.87500  0.12500  1.0000
  Gd  Gd2       1.0  0.37500  0.25000  0.12500  1.0000
  Gd  Gd3       1.0  0.87500  0.12500  0.25000  1.0000
  Gd  Gd4       1.0  0.37500  0.62500  0.25000  1.0000
  Gd  Gd5       1.0  0.75000  0.62500  0.37500  1.0000
  Gd  Gd6       1.0  0.12500  0.75000  0.37500  1.0000
  Gd  Gd7       1.0  0.87500  0.25000  0.62500  1.0000
  Gd  Gd8       1.0  0.25000  0.37500  0.62500  1.0000
  Gd  Gd9       1.0  0.12500  0.87500  0.75000  1.0000
  Gd  Gd10      1.0  0.62500  0.37500  0.75000  1.0000
  Gd  Gd11      1.0  0.75000  0.12500  0.87500  1.0000
  Gd  Gd12      1.0  0.62500  0.75000  0.87500  1.0000
  O   O1        1.0  0.32200  0.40600  0.02770  1.0000
  O   O2        1.0  0.20600  0.62200  0.02770  1.0000
  O   O3        1.0  0.87800  0.90600  0.08390  1.0000
  O   O4        1.0  0.70600  0.17800  0.08390  1.0000
  O   O5        1.0  0.97200  0.17800  0.09390  1.0000
  O   O6        1.0  0.62200  0.91600  0.09390  1.0000
  O   O7        1.0  0.59400  0.41600  0.12200  1.0000
  O   O8        1.0  0.02770  0.70600  0.12200  1.0000
  O   O9        1.0  0.20600  0.08390  0.17800  1.0000
  O   O10       1.0  0.47200  0.09390  0.17800  1.0000
  O   O11       1.0  0.58400  0.67800  0.20600  1.0000
  O   O12       1.0  0.12200  0.52800  0.20600  1.0000
  O   O13       1.0  0.32200  0.41600  0.29400  1.0000
  O   O14       1.0  0.47200  0.87800  0.29400  1.0000
  O   O15       1.0  0.91600  0.79400  0.32200  1.0000
  O   O16       1.0  0.90600  0.52800  0.32200  1.0000
  O   O17       1.0  0.58400  0.40600  0.37800  1.0000
  O   O18       1.0  0.29400  0.97200  0.37800  1.0000
  O   O19       1.0  0.08390  0.37800  0.40600  1.0000
  O   O20       1.0  0.82200  0.02770  0.40600  1.0000
  O   O21       1.0  0.09390  0.12200  0.41600  1.0000
  O   O22       1.0  0.82200  0.29400  0.41600  1.0000
  O   O23       1.0  0.59400  0.67800  0.47200  1.0000
  O   O24       1.0  0.37800  0.79400  0.47200  1.0000
  O   O25       1.0  0.62200  0.20600  0.52800  1.0000
  O   O26       1.0  0.40600  0.32200  0.52800  1.0000
  O   O27       1.0  0.17800  0.70600  0.58400  1.0000
  O   O28       1.0  0.90600  0.87800  0.58400  1.0000
  O   O29       1.0  0.91600  0.62200  0.59400  1.0000
  O   O30       1.0  0.17800  0.97200  0.59400  1.0000
  O   O31       1.0  0.70600  0.02770  0.62200  1.0000
  O   O32       1.0  0.41600  0.59400  0.62200  1.0000
  O   O33       1.0  0.08390  0.20600  0.67800  1.0000
  O   O34       1.0  0.09390  0.47200  0.67800  1.0000
  O   O35       1.0  0.52800  0.12200  0.70600  1.0000
  O   O36       1.0  0.67800  0.58400  0.70600  1.0000
  O   O37       1.0  0.41600  0.32200  0.79400  1.0000
  O   O38       1.0  0.87800  0.47200  0.79400  1.0000
  O   O39       1.0  0.79400  0.91600  0.82200  1.0000
  O   O40       1.0  0.52800  0.90600  0.82200  1.0000
  O   O41       1.0  0.97200  0.29400  0.87800  1.0000
  O   O42       1.0  0.40600  0.58400  0.87800  1.0000
  O   O43       1.0  0.02770  0.82200  0.90600  1.0000
  O   O44       1.0  0.37800  0.08390  0.90600  1.0000
  O   O45       1.0  0.12200  0.09390  0.91600  1.0000
  O   O46       1.0  0.29400  0.82200  0.91600  1.0000
  O   O47       1.0  0.79400  0.37800  0.97200  1.0000
  O   O48       1.0  0.67800  0.59400  0.97200  1.0000
