data_image0
_chemical_formula_structural       Cs2H4Mg
_chemical_formula_sum              "Cs2 H4 Mg1"
_cell_length_a       4.2589
_cell_length_b       4.2589
_cell_length_c       7.88149
_cell_angle_alpha    105.675
_cell_angle_beta     105.675
_cell_angle_gamma    90

_space_group_name_H-M_alt    "P 1"
_space_group_IT_number       1

loop_
  _space_group_symop_operation_xyz
  'x, y, z'

loop_
  _atom_site_type_symbol
  _atom_site_label
  _atom_site_symmetry_multiplicity
  _atom_site_fract_x
  _atom_site_fract_y
  _atom_site_fract_z
  _atom_site_occupancy
  Cs  Cs1       1.0  0.64700  0.64700  0.29500  1.0000
  Cs  Cs2       1.0  0.35300  0.35300  0.70500  1.0000
  H   H1        1.0  0.50000  0.00000  0.00000  1.0000
  H   H2        1.0  0.00000  0.50000  0.00000  1.0000
  H   H3        1.0  0.13300  0.13300  0.26700  1.0000
  H   H4        1.0  0.86700  0.86700  0.73300  1.0000
  Mg  Mg1       1.0  0.00000  0.00000  0.00000  1.0000
