data_image0
_chemical_formula_structural       As4Pt4Ti3
_chemical_formula_sum              "As4 Pt4 Ti3"
_cell_length_a       5.99768
_cell_length_b       5.99768
_cell_length_c       7.23255
_cell_angle_alpha    65.5039
_cell_angle_beta     65.5039
_cell_angle_gamma    90

_space_group_name_H-M_alt    "P 1"
_space_group_IT_number       1

loop_
  _space_group_symop_operation_xyz
  'x, y, z'

loop_
  _atom_site_type_symbol
  _atom_site_label
  _atom_site_symmetry_multiplicity
  _atom_site_fract_x
  _atom_site_fract_y
  _atom_site_fract_z
  _atom_site_occupancy
  As  As1       1.0  0.50000  0.00000  0.00000  1.0000
  As  As2       1.0  0.00000  0.50000  0.00000  1.0000
  As  As3       1.0  0.76200  0.76200  0.47500  1.0000
  As  As4       1.0  0.23800  0.23800  0.52500  1.0000
  Pt  Pt1       1.0  0.60800  0.13200  0.25900  1.0000
  Pt  Pt2       1.0  0.13200  0.60800  0.25900  1.0000
  Pt  Pt3       1.0  0.86800  0.86800  0.74100  1.0000
  Pt  Pt4       1.0  0.39200  0.39200  0.74100  1.0000
  Ti  Ti1       1.0  0.50000  0.50000  0.00000  1.0000
  Ti  Ti2       1.0  0.75000  0.25000  0.50000  1.0000
  Ti  Ti3       1.0  0.25000  0.75000  0.50000  1.0000
