data_image0
_chemical_formula_structural       O56Re16
_chemical_formula_sum              "O56 Re16"
_cell_length_a       12.3802
_cell_length_b       14.844
_cell_length_c       5.35154
_cell_angle_alpha    90
_cell_angle_beta     90
_cell_angle_gamma    90

_space_group_name_H-M_alt    "P 1"
_space_group_IT_number       1

loop_
  _space_group_symop_operation_xyz
  'x, y, z'

loop_
  _atom_site_type_symbol
  _atom_site_label
  _atom_site_symmetry_multiplicity
  _atom_site_fract_x
  _atom_site_fract_y
  _atom_site_fract_z
  _atom_site_occupancy
  O   O1        1.0  0.05460  0.51500  0.01660  1.0000
  O   O2        1.0  0.24400  0.22600  0.02100  1.0000
  O   O3        1.0  0.28600  0.48000  0.02370  1.0000
  O   O4        1.0  0.99700  0.76500  0.02730  1.0000
  O   O5        1.0  0.51800  0.54200  0.02880  1.0000
  O   O6        1.0  0.77000  0.46600  0.04550  1.0000
  O   O7        1.0  0.20500  0.84800  0.05020  1.0000
  O   O8        1.0  0.45000  0.15600  0.06260  1.0000
  O   O9        1.0  0.87100  0.16000  0.22500  1.0000
  O   O10       1.0  0.62600  0.83900  0.22600  1.0000
  O   O11       1.0  0.41600  0.87400  0.22600  1.0000
  O   O12       1.0  0.08620  0.11800  0.22600  1.0000
  O   O13       1.0  0.84500  0.86600  0.23100  1.0000
  O   O14       1.0  0.66300  0.13900  0.23400  1.0000
  O   O15       1.0  0.33700  0.63900  0.26600  1.0000
  O   O16       1.0  0.15500  0.36600  0.26900  1.0000
  O   O17       1.0  0.91400  0.61800  0.27400  1.0000
  O   O18       1.0  0.58400  0.37400  0.27400  1.0000
  O   O19       1.0  0.37400  0.33900  0.27400  1.0000
  O   O20       1.0  0.12900  0.66000  0.27500  1.0000
  O   O21       1.0  0.55000  0.65600  0.43700  1.0000
  O   O22       1.0  0.79500  0.34800  0.45000  1.0000
  O   O23       1.0  0.23000  0.96600  0.45400  1.0000
  O   O24       1.0  0.48200  0.04150  0.47100  1.0000
  O   O25       1.0  0.00313  0.26500  0.47300  1.0000
  O   O26       1.0  0.71400  0.98000  0.47600  1.0000
  O   O27       1.0  0.75600  0.72600  0.47900  1.0000
  O   O28       1.0  0.94500  0.01510  0.48300  1.0000
  O   O29       1.0  0.44500  0.48500  0.51700  1.0000
  O   O30       1.0  0.25600  0.77400  0.52100  1.0000
  O   O31       1.0  0.21400  0.52000  0.52400  1.0000
  O   O32       1.0  0.50300  0.23500  0.52700  1.0000
  O   O33       1.0  0.98200  0.45800  0.52900  1.0000
  O   O34       1.0  0.73000  0.53400  0.54600  1.0000
  O   O35       1.0  0.29500  0.15200  0.55000  1.0000
  O   O36       1.0  0.05030  0.84400  0.56300  1.0000
  O   O37       1.0  0.62900  0.84000  0.72500  1.0000
  O   O38       1.0  0.87400  0.16100  0.72600  1.0000
  O   O39       1.0  0.08350  0.12600  0.72600  1.0000
  O   O40       1.0  0.41400  0.88200  0.72600  1.0000
  O   O41       1.0  0.65500  0.13400  0.73100  1.0000
  O   O42       1.0  0.83700  0.86100  0.73400  1.0000
  O   O43       1.0  0.16300  0.36100  0.76600  1.0000
  O   O44       1.0  0.34500  0.63400  0.76900  1.0000
  O   O45       1.0  0.58600  0.38200  0.77400  1.0000
  O   O46       1.0  0.91600  0.62600  0.77400  1.0000
  O   O47       1.0  0.12600  0.66100  0.77400  1.0000
  O   O48       1.0  0.37100  0.34000  0.77500  1.0000
  O   O49       1.0  0.95000  0.34400  0.93700  1.0000
  O   O50       1.0  0.70500  0.65200  0.95000  1.0000
  O   O51       1.0  0.27000  0.03420  0.95400  1.0000
  O   O52       1.0  0.01790  0.95800  0.97100  1.0000
  O   O53       1.0  0.49700  0.73500  0.97300  1.0000
  O   O54       1.0  0.78600  0.02020  0.97600  1.0000
  O   O55       1.0  0.74400  0.27400  0.97900  1.0000
  O   O56       1.0  0.55500  0.98500  0.98300  1.0000
  Re  Re1       1.0  0.26500  0.36700  0.06960  1.0000
  Re  Re2       1.0  0.02200  0.62600  0.07120  1.0000
  Re  Re3       1.0  0.47600  0.64000  0.17000  1.0000
  Re  Re4       1.0  0.72300  0.36800  0.18100  1.0000
  Re  Re5       1.0  0.27700  0.86800  0.31900  1.0000
  Re  Re6       1.0  0.52400  0.14000  0.33000  1.0000
  Re  Re7       1.0  0.97800  0.12600  0.42900  1.0000
  Re  Re8       1.0  0.73500  0.86700  0.43000  1.0000
  Re  Re9       1.0  0.23500  0.63300  0.57000  1.0000
  Re  Re10      1.0  0.47800  0.37400  0.57100  1.0000
  Re  Re11      1.0  0.02370  0.36000  0.67000  1.0000
  Re  Re12      1.0  0.77700  0.63200  0.68100  1.0000
  Re  Re13      1.0  0.22300  0.13200  0.81900  1.0000
  Re  Re14      1.0  0.97600  0.86000  0.83000  1.0000
  Re  Re15      1.0  0.52200  0.87400  0.92900  1.0000
  Re  Re16      1.0  0.76500  0.13300  0.93000  1.0000
