data_image0
_chemical_formula_structural       Li8O6Pm
_chemical_formula_sum              "Li8 O6 Pm1"
_cell_length_a       6.29418
_cell_length_b       6.29418
_cell_length_c       6.29418
_cell_angle_alpha    53.0423
_cell_angle_beta     53.0423
_cell_angle_gamma    53.0423

_space_group_name_H-M_alt    "P 1"
_space_group_IT_number       1

loop_
  _space_group_symop_operation_xyz
  'x, y, z'

loop_
  _atom_site_type_symbol
  _atom_site_label
  _atom_site_symmetry_multiplicity
  _atom_site_fract_x
  _atom_site_fract_y
  _atom_site_fract_z
  _atom_site_occupancy
  Li  Li1       1.0  0.77600  0.49100  0.10400  1.0000
  Li  Li2       1.0  0.50900  0.89600  0.22400  1.0000
  Li  Li3       1.0  0.35300  0.35300  0.35300  1.0000
  Li  Li4       1.0  0.10400  0.77600  0.49100  1.0000
  Li  Li5       1.0  0.89600  0.22400  0.50900  1.0000
  Li  Li6       1.0  0.64700  0.64700  0.64700  1.0000
  Li  Li7       1.0  0.49100  0.10400  0.77600  1.0000
  Li  Li8       1.0  0.22400  0.50900  0.89600  1.0000
  O   O1        1.0  0.40500  0.75300  0.10200  1.0000
  O   O2        1.0  0.89800  0.59500  0.24700  1.0000
  O   O3        1.0  0.75300  0.10200  0.40500  1.0000
  O   O4        1.0  0.24700  0.89800  0.59500  1.0000
  O   O5        1.0  0.10200  0.40500  0.75300  1.0000
  O   O6        1.0  0.59500  0.24700  0.89800  1.0000
  Pm  Pm1       1.0  0.00000  0.00000  0.00000  1.0000
