data_image0
_chemical_formula_structural       AuLi8O6
_chemical_formula_sum              "Au1 Li8 O6"
_cell_length_a       5.99011
_cell_length_b       5.99011
_cell_length_c       5.99011
_cell_angle_alpha    54.2973
_cell_angle_beta     54.2973
_cell_angle_gamma    54.2973

_space_group_name_H-M_alt    "P 1"
_space_group_IT_number       1

loop_
  _space_group_symop_operation_xyz
  'x, y, z'

loop_
  _atom_site_type_symbol
  _atom_site_label
  _atom_site_symmetry_multiplicity
  _atom_site_fract_x
  _atom_site_fract_y
  _atom_site_fract_z
  _atom_site_occupancy
  Au  Au1       1.0  0.00000  0.00000  0.00000  1.0000
  Li  Li1       1.0  0.77300  0.48100  0.10100  1.0000
  Li  Li2       1.0  0.51900  0.89900  0.22700  1.0000
  Li  Li3       1.0  0.34400  0.34400  0.34400  1.0000
  Li  Li4       1.0  0.10100  0.77300  0.48100  1.0000
  Li  Li5       1.0  0.89900  0.22700  0.51900  1.0000
  Li  Li6       1.0  0.65600  0.65600  0.65600  1.0000
  Li  Li7       1.0  0.48100  0.10100  0.77300  1.0000
  Li  Li8       1.0  0.22700  0.51900  0.89900  1.0000
  O   O1        1.0  0.39400  0.75700  0.09650  1.0000
  O   O2        1.0  0.90400  0.60600  0.24300  1.0000
  O   O3        1.0  0.75700  0.09650  0.39400  1.0000
  O   O4        1.0  0.24300  0.90400  0.60600  1.0000
  O   O5        1.0  0.09650  0.39400  0.75700  1.0000
  O   O6        1.0  0.60600  0.24300  0.90400  1.0000
