data_image0
_chemical_formula_structural       Li8O6Pt
_chemical_formula_sum              "Li8 O6 Pt1"
_cell_length_a       5.41466
_cell_length_b       5.41466
_cell_length_c       5.87691
_cell_angle_alpha    117.431
_cell_angle_beta     90
_cell_angle_gamma    120

_space_group_name_H-M_alt    "P 1"
_space_group_IT_number       1

loop_
  _space_group_symop_operation_xyz
  'x, y, z'

loop_
  _atom_site_type_symbol
  _atom_site_label
  _atom_site_symmetry_multiplicity
  _atom_site_fract_x
  _atom_site_fract_y
  _atom_site_fract_z
  _atom_site_occupancy
  Li  Li1       1.0  0.34100  0.68300  0.02430  1.0000
  Li  Li2       1.0  0.48600  0.25200  0.35300  1.0000
  Li  Li3       1.0  0.76700  0.86700  0.35300  1.0000
  Li  Li4       1.0  0.10000  0.58600  0.35300  1.0000
  Li  Li5       1.0  0.90000  0.41400  0.64700  1.0000
  Li  Li6       1.0  0.23300  0.13300  0.64700  1.0000
  Li  Li7       1.0  0.51400  0.74800  0.64700  1.0000
  Li  Li8       1.0  0.65900  0.31700  0.97600  1.0000
  O   O1        1.0  0.76200  0.14800  0.24100  1.0000
  O   O2        1.0  0.38700  0.47900  0.24100  1.0000
  O   O3        1.0  0.09220  0.85400  0.24100  1.0000
  O   O4        1.0  0.90800  0.14600  0.75900  1.0000
  O   O5        1.0  0.61300  0.52100  0.75900  1.0000
  O   O6        1.0  0.23800  0.85200  0.75900  1.0000
  Pt  Pt1       1.0  0.00000  0.00000  0.00000  1.0000
