data_image0
_chemical_formula_structural       Li8LuO6
_chemical_formula_sum              "Li8 Lu1 O6"
_cell_length_a       6.12125
_cell_length_b       6.12125
_cell_length_c       6.12125
_cell_angle_alpha    53.642
_cell_angle_beta     53.642
_cell_angle_gamma    53.642

_space_group_name_H-M_alt    "P 1"
_space_group_IT_number       1

loop_
  _space_group_symop_operation_xyz
  'x, y, z'

loop_
  _atom_site_type_symbol
  _atom_site_label
  _atom_site_symmetry_multiplicity
  _atom_site_fract_x
  _atom_site_fract_y
  _atom_site_fract_z
  _atom_site_occupancy
  Li  Li1       1.0  0.77100  0.49000  0.10500  1.0000
  Li  Li2       1.0  0.51000  0.89500  0.22900  1.0000
  Li  Li3       1.0  0.34500  0.34500  0.34500  1.0000
  Li  Li4       1.0  0.10500  0.77100  0.49000  1.0000
  Li  Li5       1.0  0.89500  0.22900  0.51000  1.0000
  Li  Li6       1.0  0.65500  0.65500  0.65500  1.0000
  Li  Li7       1.0  0.49000  0.10500  0.77100  1.0000
  Li  Li8       1.0  0.22900  0.51000  0.89500  1.0000
  Lu  Lu1       1.0  0.00000  0.00000  0.00000  1.0000
  O   O1        1.0  0.39700  0.75900  0.09460  1.0000
  O   O2        1.0  0.90500  0.60300  0.24100  1.0000
  O   O3        1.0  0.75900  0.09460  0.39700  1.0000
  O   O4        1.0  0.24100  0.90500  0.60300  1.0000
  O   O5        1.0  0.09460  0.39700  0.75900  1.0000
  O   O6        1.0  0.60300  0.24100  0.90500  1.0000
