data_image0
_chemical_formula_structural       Li8NiO6
_chemical_formula_sum              "Li8 Ni1 O6"
_cell_length_a       5.68416
_cell_length_b       5.68416
_cell_length_c       5.68416
_cell_angle_alpha    55.753
_cell_angle_beta     55.753
_cell_angle_gamma    55.753

_space_group_name_H-M_alt    "P 1"
_space_group_IT_number       1

loop_
  _space_group_symop_operation_xyz
  'x, y, z'

loop_
  _atom_site_type_symbol
  _atom_site_label
  _atom_site_symmetry_multiplicity
  _atom_site_fract_x
  _atom_site_fract_y
  _atom_site_fract_z
  _atom_site_occupancy
  Li  Li1       1.0  0.76400  0.48700  0.09600  1.0000
  Li  Li2       1.0  0.51300  0.90400  0.23600  1.0000
  Li  Li3       1.0  0.34100  0.34100  0.34100  1.0000
  Li  Li4       1.0  0.09600  0.76400  0.48700  1.0000
  Li  Li5       1.0  0.90400  0.23600  0.51300  1.0000
  Li  Li6       1.0  0.65900  0.65900  0.65900  1.0000
  Li  Li7       1.0  0.48700  0.09600  0.76400  1.0000
  Li  Li8       1.0  0.23600  0.51300  0.90400  1.0000
  Ni  Ni1       1.0  0.00000  0.00000  0.00000  1.0000
  O   O1        1.0  0.37000  0.77000  0.08950  1.0000
  O   O2        1.0  0.91100  0.63000  0.23000  1.0000
  O   O3        1.0  0.77000  0.08950  0.37000  1.0000
  O   O4        1.0  0.23000  0.91100  0.63000  1.0000
  O   O5        1.0  0.08950  0.37000  0.77000  1.0000
  O   O6        1.0  0.63000  0.23000  0.91100  1.0000
