data_image0
_chemical_formula_structural       Co2Li16O12
_chemical_formula_sum              "Co2 Li16 O12"
_cell_length_a       5.45585
_cell_length_b       5.45585
_cell_length_c       10.7425
_cell_angle_alpha    90
_cell_angle_beta     90
_cell_angle_gamma    119.999

_space_group_name_H-M_alt    "P 1"
_space_group_IT_number       1

loop_
  _space_group_symop_operation_xyz
  'x, y, z'

loop_
  _atom_site_type_symbol
  _atom_site_label
  _atom_site_symmetry_multiplicity
  _atom_site_fract_x
  _atom_site_fract_y
  _atom_site_fract_z
  _atom_site_occupancy
  Co  Co1       1.0  0.00000  0.00000  0.49600  1.0000
  Co  Co2       1.0  0.00000  0.00000  0.99600  1.0000
  Li  Li1       1.0  0.39000  0.39000  0.12700  1.0000
  Li  Li2       1.0  0.61000  0.00000  0.12700  1.0000
  Li  Li3       1.0  0.00000  0.61000  0.12700  1.0000
  Li  Li4       1.0  0.68800  0.68800  0.26800  1.0000
  Li  Li5       1.0  0.31200  0.00000  0.26800  1.0000
  Li  Li6       1.0  0.00000  0.31200  0.26800  1.0000
  Li  Li7       1.0  0.66700  0.33300  0.40700  1.0000
  Li  Li8       1.0  0.33300  0.66700  0.40700  1.0000
  Li  Li9       1.0  0.61000  0.61000  0.62700  1.0000
  Li  Li10      1.0  0.39000  0.00000  0.62700  1.0000
  Li  Li11      1.0  0.00000  0.39000  0.62700  1.0000
  Li  Li12      1.0  0.31200  0.31200  0.76800  1.0000
  Li  Li13      1.0  0.68800  0.00000  0.76800  1.0000
  Li  Li14      1.0  1.00000  0.68800  0.76800  1.0000
  Li  Li15      1.0  0.66700  0.33300  0.90700  1.0000
  Li  Li16      1.0  0.33300  0.66700  0.90700  1.0000
  O   O1        1.0  0.00000  0.00000  0.16700  1.0000
  O   O2        1.0  0.66700  0.33300  0.21600  1.0000
  O   O3        1.0  0.33300  0.66700  0.21600  1.0000
  O   O4        1.0  0.68700  0.68700  0.44900  1.0000
  O   O5        1.0  0.31300  0.00000  0.44900  1.0000
  O   O6        1.0  0.00000  0.31300  0.44900  1.0000
  O   O7        1.0  0.00000  0.00000  0.66700  1.0000
  O   O8        1.0  0.66700  0.33300  0.71600  1.0000
  O   O9        1.0  0.33300  0.66700  0.71600  1.0000
  O   O10       1.0  0.31300  0.31300  0.94900  1.0000
  O   O11       1.0  0.68700  0.00000  0.94900  1.0000
  O   O12       1.0  0.00000  0.68700  0.94900  1.0000
