data_image0
_chemical_formula_structural       DyLi8O6
_chemical_formula_sum              "Dy1 Li8 O6"
_cell_length_a       6.19343
_cell_length_b       6.19343
_cell_length_c       6.19343
_cell_angle_alpha    53.3533
_cell_angle_beta     53.3533
_cell_angle_gamma    53.3533

_space_group_name_H-M_alt    "P 1"
_space_group_IT_number       1

loop_
  _space_group_symop_operation_xyz
  'x, y, z'

loop_
  _atom_site_type_symbol
  _atom_site_label
  _atom_site_symmetry_multiplicity
  _atom_site_fract_x
  _atom_site_fract_y
  _atom_site_fract_z
  _atom_site_occupancy
  Dy  Dy1       1.0  0.00000  0.00000  0.00000  1.0000
  Li  Li1       1.0  0.77300  0.48900  0.10600  1.0000
  Li  Li2       1.0  0.51100  0.89400  0.22700  1.0000
  Li  Li3       1.0  0.34600  0.34600  0.34600  1.0000
  Li  Li4       1.0  0.10600  0.77300  0.48900  1.0000
  Li  Li5       1.0  0.89400  0.22700  0.51100  1.0000
  Li  Li6       1.0  0.65400  0.65400  0.65400  1.0000
  Li  Li7       1.0  0.48900  0.10600  0.77300  1.0000
  Li  Li8       1.0  0.22700  0.51100  0.89400  1.0000
  O   O1        1.0  0.40200  0.75600  0.09650  1.0000
  O   O2        1.0  0.90400  0.59800  0.24400  1.0000
  O   O3        1.0  0.75600  0.09650  0.40200  1.0000
  O   O4        1.0  0.24400  0.90300  0.59800  1.0000
  O   O5        1.0  0.09650  0.40200  0.75600  1.0000
  O   O6        1.0  0.59800  0.24400  0.90400  1.0000
