data_image0
_chemical_formula_structural       LaLi8O6
_chemical_formula_sum              "La1 Li8 O6"
_cell_length_a       6.38677
_cell_length_b       6.38677
_cell_length_c       6.38677
_cell_angle_alpha    52.5114
_cell_angle_beta     52.5114
_cell_angle_gamma    52.5114

_space_group_name_H-M_alt    "P 1"
_space_group_IT_number       1

loop_
  _space_group_symop_operation_xyz
  'x, y, z'

loop_
  _atom_site_type_symbol
  _atom_site_label
  _atom_site_symmetry_multiplicity
  _atom_site_fract_x
  _atom_site_fract_y
  _atom_site_fract_z
  _atom_site_occupancy
  La  La1       1.0  0.00000  0.00000  0.00000  1.0000
  Li  Li1       1.0  0.77800  0.49600  0.09900  1.0000
  Li  Li2       1.0  0.50400  0.90100  0.22200  1.0000
  Li  Li3       1.0  0.36400  0.36400  0.36400  1.0000
  Li  Li4       1.0  0.09900  0.77800  0.49600  1.0000
  Li  Li5       1.0  0.90100  0.22200  0.50400  1.0000
  Li  Li6       1.0  0.63600  0.63600  0.63600  1.0000
  Li  Li7       1.0  0.49600  0.09900  0.77800  1.0000
  Li  Li8       1.0  0.22200  0.50400  0.90100  1.0000
  O   O1        1.0  0.40400  0.75400  0.11000  1.0000
  O   O2        1.0  0.89000  0.59600  0.24600  1.0000
  O   O3        1.0  0.75400  0.11000  0.40400  1.0000
  O   O4        1.0  0.24600  0.89000  0.59600  1.0000
  O   O5        1.0  0.11000  0.40400  0.75400  1.0000
  O   O6        1.0  0.59600  0.24600  0.89000  1.0000
