data_image0
_chemical_formula_structural       Li8O6Os
_chemical_formula_sum              "Li8 O6 Os1"
_cell_length_a       5.90842
_cell_length_b       5.90842
_cell_length_c       5.90842
_cell_angle_alpha    54.3718
_cell_angle_beta     54.3718
_cell_angle_gamma    54.3718

_space_group_name_H-M_alt    "P 1"
_space_group_IT_number       1

loop_
  _space_group_symop_operation_xyz
  'x, y, z'

loop_
  _atom_site_type_symbol
  _atom_site_label
  _atom_site_symmetry_multiplicity
  _atom_site_fract_x
  _atom_site_fract_y
  _atom_site_fract_z
  _atom_site_occupancy
  Li  Li1       1.0  0.76500  0.48600  0.10300  1.0000
  Li  Li2       1.0  0.51400  0.89700  0.23500  1.0000
  Li  Li3       1.0  0.34000  0.34000  0.34000  1.0000
  Li  Li4       1.0  0.10300  0.76500  0.48600  1.0000
  Li  Li5       1.0  0.89700  0.23500  0.51400  1.0000
  Li  Li6       1.0  0.66000  0.66000  0.66000  1.0000
  Li  Li7       1.0  0.48600  0.10300  0.76500  1.0000
  Li  Li8       1.0  0.23500  0.51400  0.89700  1.0000
  O   O1        1.0  0.38700  0.76400  0.08900  1.0000
  O   O2        1.0  0.91100  0.61300  0.23600  1.0000
  O   O3        1.0  0.76400  0.08900  0.38700  1.0000
  O   O4        1.0  0.23600  0.91100  0.61300  1.0000
  O   O5        1.0  0.08900  0.38700  0.76400  1.0000
  O   O6        1.0  0.61300  0.23600  0.91100  1.0000
  Os  Os1       1.0  0.00000  0.00000  0.00000  1.0000
