data_image0
_chemical_formula_structural       BeLi8O6
_chemical_formula_sum              "Be1 Li8 O6"
_cell_length_a       5.57903
_cell_length_b       5.57903
_cell_length_c       5.57903
_cell_angle_alpha    57.3473
_cell_angle_beta     57.3473
_cell_angle_gamma    57.3473

_space_group_name_H-M_alt    "P 1"
_space_group_IT_number       1

loop_
  _space_group_symop_operation_xyz
  'x, y, z'

loop_
  _atom_site_type_symbol
  _atom_site_label
  _atom_site_symmetry_multiplicity
  _atom_site_fract_x
  _atom_site_fract_y
  _atom_site_fract_z
  _atom_site_occupancy
  Be  Be1       1.0  0.00000  0.00000  0.00000  1.0000
  Li  Li1       1.0  0.76300  0.47200  0.10300  1.0000
  Li  Li2       1.0  0.52800  0.89700  0.23700  1.0000
  Li  Li3       1.0  0.33700  0.33700  0.33700  1.0000
  Li  Li4       1.0  0.10300  0.76300  0.47200  1.0000
  Li  Li5       1.0  0.89700  0.23700  0.52800  1.0000
  Li  Li6       1.0  0.66300  0.66300  0.66300  1.0000
  Li  Li7       1.0  0.47200  0.10300  0.76300  1.0000
  Li  Li8       1.0  0.23700  0.52800  0.89700  1.0000
  O   O1        1.0  0.37900  0.76600  0.08150  1.0000
  O   O2        1.0  0.91800  0.62100  0.23400  1.0000
  O   O3        1.0  0.76600  0.08150  0.37900  1.0000
  O   O4        1.0  0.23400  0.91800  0.62100  1.0000
  O   O5        1.0  0.08150  0.37900  0.76600  1.0000
  O   O6        1.0  0.62100  0.23400  0.91800  1.0000
