data_image0
_chemical_formula_structural       Be8Cd8O8Se8
_chemical_formula_sum              "Be8 Cd8 O8 Se8"
_cell_length_a       7.43835
_cell_length_b       12.6459
_cell_length_c       5.32618
_cell_angle_alpha    90
_cell_angle_beta     90
_cell_angle_gamma    90

_space_group_name_H-M_alt    "P 1"
_space_group_IT_number       1

loop_
  _space_group_symop_operation_xyz
  'x, y, z'

loop_
  _atom_site_type_symbol
  _atom_site_label
  _atom_site_symmetry_multiplicity
  _atom_site_fract_x
  _atom_site_fract_y
  _atom_site_fract_z
  _atom_site_occupancy
  Be  Be1       1.0  0.12700  0.20400  0.13500  1.0000
  Be  Be2       1.0  0.37300  0.70400  0.13500  1.0000
  Be  Be3       1.0  0.62700  0.20400  0.36500  1.0000
  Be  Be4       1.0  0.87300  0.70400  0.36500  1.0000
  Be  Be5       1.0  0.12700  0.29600  0.63500  1.0000
  Be  Be6       1.0  0.37300  0.79600  0.63500  1.0000
  Be  Be7       1.0  0.62700  0.29600  0.86500  1.0000
  Be  Be8       1.0  0.87300  0.79600  0.86500  1.0000
  Cd  Cd1       1.0  0.87800  0.40900  0.24700  1.0000
  Cd  Cd2       1.0  0.62200  0.90900  0.24700  1.0000
  Cd  Cd3       1.0  0.37800  0.40900  0.25300  1.0000
  Cd  Cd4       1.0  0.12200  0.90900  0.25300  1.0000
  Cd  Cd5       1.0  0.87800  0.09060  0.74700  1.0000
  Cd  Cd6       1.0  0.62200  0.59100  0.74700  1.0000
  Cd  Cd7       1.0  0.37800  0.09060  0.75300  1.0000
  Cd  Cd8       1.0  0.12200  0.59100  0.75300  1.0000
  O   O1        1.0  0.62800  0.29300  0.16300  1.0000
  O   O2        1.0  0.87200  0.79300  0.16300  1.0000
  O   O3        1.0  0.12800  0.29300  0.33700  1.0000
  O   O4        1.0  0.37200  0.79300  0.33700  1.0000
  O   O5        1.0  0.62800  0.20700  0.66300  1.0000
  O   O6        1.0  0.87200  0.70700  0.66300  1.0000
  O   O7        1.0  0.12800  0.20700  0.83700  1.0000
  O   O8        1.0  0.37200  0.70700  0.83700  1.0000
  Se  Se1       1.0  0.87700  0.08760  0.24600  1.0000
  Se  Se2       1.0  0.62300  0.58800  0.24600  1.0000
  Se  Se3       1.0  0.37700  0.08760  0.25400  1.0000
  Se  Se4       1.0  0.12300  0.58800  0.25400  1.0000
  Se  Se5       1.0  0.87700  0.41200  0.74600  1.0000
  Se  Se6       1.0  0.62300  0.91200  0.74600  1.0000
  Se  Se7       1.0  0.37700  0.41200  0.75400  1.0000
  Se  Se8       1.0  0.12300  0.91200  0.75400  1.0000
