data_image0
_chemical_formula_structural       Li8O6Ta
_chemical_formula_sum              "Li8 O6 Ta1"
_cell_length_a       5.9905
_cell_length_b       5.9905
_cell_length_c       5.9905
_cell_angle_alpha    53.7982
_cell_angle_beta     53.7982
_cell_angle_gamma    53.7982

_space_group_name_H-M_alt    "P 1"
_space_group_IT_number       1

loop_
  _space_group_symop_operation_xyz
  'x, y, z'

loop_
  _atom_site_type_symbol
  _atom_site_label
  _atom_site_symmetry_multiplicity
  _atom_site_fract_x
  _atom_site_fract_y
  _atom_site_fract_z
  _atom_site_occupancy
  Li  Li1       1.0  0.76400  0.49300  0.10500  1.0000
  Li  Li2       1.0  0.50700  0.89500  0.23600  1.0000
  Li  Li3       1.0  0.34100  0.34100  0.34100  1.0000
  Li  Li4       1.0  0.10500  0.76400  0.49300  1.0000
  Li  Li5       1.0  0.89500  0.23600  0.50700  1.0000
  Li  Li6       1.0  0.65900  0.65900  0.65900  1.0000
  Li  Li7       1.0  0.49300  0.10500  0.76400  1.0000
  Li  Li8       1.0  0.23600  0.50700  0.89500  1.0000
  O   O1        1.0  0.38600  0.76600  0.08930  1.0000
  O   O2        1.0  0.91100  0.61400  0.23400  1.0000
  O   O3        1.0  0.76600  0.08930  0.38600  1.0000
  O   O4        1.0  0.23400  0.91100  0.61400  1.0000
  O   O5        1.0  0.08930  0.38600  0.76600  1.0000
  O   O6        1.0  0.61400  0.23400  0.91100  1.0000
  Ta  Ta1       1.0  0.00000  0.00000  0.00000  1.0000
