data_image0
_chemical_formula_structural       BiLi8O6
_chemical_formula_sum              "Bi1 Li8 O6"
_cell_length_a       6.22095
_cell_length_b       6.22095
_cell_length_c       6.22095
_cell_angle_alpha    53.4112
_cell_angle_beta     53.4112
_cell_angle_gamma    53.4113

_space_group_name_H-M_alt    "P 1"
_space_group_IT_number       1

loop_
  _space_group_symop_operation_xyz
  'x, y, z'

loop_
  _atom_site_type_symbol
  _atom_site_label
  _atom_site_symmetry_multiplicity
  _atom_site_fract_x
  _atom_site_fract_y
  _atom_site_fract_z
  _atom_site_occupancy
  Bi  Bi1       1.0  0.00000  0.00000  0.00000  1.0000
  Li  Li1       1.0  0.77300  0.48800  0.10500  1.0000
  Li  Li2       1.0  0.51200  0.89500  0.22700  1.0000
  Li  Li3       1.0  0.34700  0.34700  0.34700  1.0000
  Li  Li4       1.0  0.10500  0.77300  0.48800  1.0000
  Li  Li5       1.0  0.89500  0.22700  0.51200  1.0000
  Li  Li6       1.0  0.65300  0.65300  0.65300  1.0000
  Li  Li7       1.0  0.48800  0.10500  0.77300  1.0000
  Li  Li8       1.0  0.22700  0.51200  0.89500  1.0000
  O   O1        1.0  0.40200  0.75600  0.09780  1.0000
  O   O2        1.0  0.90200  0.59800  0.24400  1.0000
  O   O3        1.0  0.75600  0.09780  0.40200  1.0000
  O   O4        1.0  0.24400  0.90200  0.59800  1.0000
  O   O5        1.0  0.09780  0.40200  0.75600  1.0000
  O   O6        1.0  0.59800  0.24400  0.90200  1.0000
