data_image0
_chemical_formula_structural       InLi8O6
_chemical_formula_sum              "In1 Li8 O6"
_cell_length_a       6.0746
_cell_length_b       6.0746
_cell_length_c       6.0746
_cell_angle_alpha    53.8553
_cell_angle_beta     53.8553
_cell_angle_gamma    53.8553

_space_group_name_H-M_alt    "P 1"
_space_group_IT_number       1

loop_
  _space_group_symop_operation_xyz
  'x, y, z'

loop_
  _atom_site_type_symbol
  _atom_site_label
  _atom_site_symmetry_multiplicity
  _atom_site_fract_x
  _atom_site_fract_y
  _atom_site_fract_z
  _atom_site_occupancy
  In  In1       1.0  0.00000  0.00000  0.00000  1.0000
  Li  Li1       1.0  0.77200  0.48300  0.10600  1.0000
  Li  Li2       1.0  0.51700  0.89400  0.22800  1.0000
  Li  Li3       1.0  0.34200  0.34200  0.34200  1.0000
  Li  Li4       1.0  0.10600  0.77200  0.48300  1.0000
  Li  Li5       1.0  0.89400  0.22800  0.51700  1.0000
  Li  Li6       1.0  0.65800  0.65800  0.65800  1.0000
  Li  Li7       1.0  0.48300  0.10600  0.77200  1.0000
  Li  Li8       1.0  0.22800  0.51700  0.89400  1.0000
  O   O1        1.0  0.40000  0.75700  0.09310  1.0000
  O   O2        1.0  0.90700  0.60000  0.24300  1.0000
  O   O3        1.0  0.75700  0.09310  0.40000  1.0000
  O   O4        1.0  0.24300  0.90700  0.60000  1.0000
  O   O5        1.0  0.09310  0.40000  0.75700  1.0000
  O   O6        1.0  0.60000  0.24300  0.90700  1.0000
