data_image0
_chemical_formula_structural       AlLi8O6
_chemical_formula_sum              "Al1 Li8 O6"
_cell_length_a       5.76054
_cell_length_b       5.76054
_cell_length_c       5.76054
_cell_angle_alpha    55.0788
_cell_angle_beta     55.0788
_cell_angle_gamma    55.0788

_space_group_name_H-M_alt    "P 1"
_space_group_IT_number       1

loop_
  _space_group_symop_operation_xyz
  'x, y, z'

loop_
  _atom_site_type_symbol
  _atom_site_label
  _atom_site_symmetry_multiplicity
  _atom_site_fract_x
  _atom_site_fract_y
  _atom_site_fract_z
  _atom_site_occupancy
  Al  Al1       1.0  0.00000  0.00000  0.00000  1.0000
  Li  Li1       1.0  0.76100  0.49000  0.10200  1.0000
  Li  Li2       1.0  0.51000  0.89800  0.23900  1.0000
  Li  Li3       1.0  0.34000  0.34000  0.34000  1.0000
  Li  Li4       1.0  0.10200  0.76100  0.49000  1.0000
  Li  Li5       1.0  0.89800  0.23900  0.51000  1.0000
  Li  Li6       1.0  0.66000  0.66000  0.66000  1.0000
  Li  Li7       1.0  0.49000  0.10200  0.76100  1.0000
  Li  Li8       1.0  0.23900  0.51000  0.89800  1.0000
  O   O1        1.0  0.37400  0.77000  0.08640  1.0000
  O   O2        1.0  0.91400  0.62600  0.23000  1.0000
  O   O3        1.0  0.77000  0.08640  0.37400  1.0000
  O   O4        1.0  0.23000  0.91400  0.62600  1.0000
  O   O5        1.0  0.08640  0.37400  0.77000  1.0000
  O   O6        1.0  0.62600  0.23000  0.91400  1.0000
