data_image0
_chemical_formula_structural       CsLi8O6
_chemical_formula_sum              "Cs1 Li8 O6"
_cell_length_a       7.14457
_cell_length_b       7.14457
_cell_length_c       7.14457
_cell_angle_alpha    47.1912
_cell_angle_beta     47.1912
_cell_angle_gamma    47.1912

_space_group_name_H-M_alt    "P 1"
_space_group_IT_number       1

loop_
  _space_group_symop_operation_xyz
  'x, y, z'

loop_
  _atom_site_type_symbol
  _atom_site_label
  _atom_site_symmetry_multiplicity
  _atom_site_fract_x
  _atom_site_fract_y
  _atom_site_fract_z
  _atom_site_occupancy
  Cs  Cs1       1.0  0.00000  0.00000  0.00000  1.0000
  Li  Li1       1.0  0.80400  0.48400  0.08800  1.0000
  Li  Li2       1.0  0.51600  0.91200  0.19600  1.0000
  Li  Li3       1.0  0.40200  0.40200  0.40200  1.0000
  Li  Li4       1.0  0.08800  0.80400  0.48400  1.0000
  Li  Li5       1.0  0.91200  0.19600  0.51600  1.0000
  Li  Li6       1.0  0.59800  0.59800  0.59800  1.0000
  Li  Li7       1.0  0.48400  0.08800  0.80400  1.0000
  Li  Li8       1.0  0.19600  0.51600  0.91200  1.0000
  O   O1        1.0  0.42100  0.75700  0.13400  1.0000
  O   O2        1.0  0.86600  0.57900  0.24300  1.0000
  O   O3        1.0  0.75700  0.13400  0.42100  1.0000
  O   O4        1.0  0.24300  0.86600  0.57900  1.0000
  O   O5        1.0  0.13400  0.42100  0.75700  1.0000
  O   O6        1.0  0.57900  0.24300  0.86600  1.0000
