data_image0
_chemical_formula_structural       BLi8O6
_chemical_formula_sum              "B1 Li8 O6"
_cell_length_a       5.54162
_cell_length_b       5.54162
_cell_length_c       5.54162
_cell_angle_alpha    56.1685
_cell_angle_beta     56.1685
_cell_angle_gamma    56.1685

_space_group_name_H-M_alt    "P 1"
_space_group_IT_number       1

loop_
  _space_group_symop_operation_xyz
  'x, y, z'

loop_
  _atom_site_type_symbol
  _atom_site_label
  _atom_site_symmetry_multiplicity
  _atom_site_fract_x
  _atom_site_fract_y
  _atom_site_fract_z
  _atom_site_occupancy
  B   B1        1.0  0.00000  0.00000  0.00000  1.0000
  Li  Li1       1.0  0.75500  0.49200  0.09570  1.0000
  Li  Li2       1.0  0.50800  0.90400  0.24500  1.0000
  Li  Li3       1.0  0.34000  0.34000  0.34000  1.0000
  Li  Li4       1.0  0.09570  0.75500  0.49200  1.0000
  Li  Li5       1.0  0.90400  0.24500  0.50800  1.0000
  Li  Li6       1.0  0.66000  0.66000  0.66000  1.0000
  Li  Li7       1.0  0.49200  0.09570  0.75500  1.0000
  Li  Li8       1.0  0.24500  0.50800  0.90400  1.0000
  O   O1        1.0  0.35500  0.77900  0.08360  1.0000
  O   O2        1.0  0.91600  0.64500  0.22100  1.0000
  O   O3        1.0  0.77900  0.08360  0.35500  1.0000
  O   O4        1.0  0.22100  0.91600  0.64500  1.0000
  O   O5        1.0  0.08360  0.35500  0.77900  1.0000
  O   O6        1.0  0.64500  0.22100  0.91600  1.0000
