data_image0
_chemical_formula_structural       CdLi8O6
_chemical_formula_sum              "Cd1 Li8 O6"
_cell_length_a       6.05782
_cell_length_b       6.05782
_cell_length_c       6.05782
_cell_angle_alpha    54.094
_cell_angle_beta     54.094
_cell_angle_gamma    54.094

_space_group_name_H-M_alt    "P 1"
_space_group_IT_number       1

loop_
  _space_group_symop_operation_xyz
  'x, y, z'

loop_
  _atom_site_type_symbol
  _atom_site_label
  _atom_site_symmetry_multiplicity
  _atom_site_fract_x
  _atom_site_fract_y
  _atom_site_fract_z
  _atom_site_occupancy
  Cd  Cd1       1.0  0.00000  0.00000  0.00000  1.0000
  Li  Li1       1.0  0.77800  0.47700  0.10300  1.0000
  Li  Li2       1.0  0.52300  0.89700  0.22200  1.0000
  Li  Li3       1.0  0.34500  0.34500  0.34500  1.0000
  Li  Li4       1.0  0.10300  0.77800  0.47700  1.0000
  Li  Li5       1.0  0.89700  0.22200  0.52300  1.0000
  Li  Li6       1.0  0.65500  0.65500  0.65500  1.0000
  Li  Li7       1.0  0.47700  0.10300  0.77800  1.0000
  Li  Li8       1.0  0.22200  0.52300  0.89700  1.0000
  O   O1        1.0  0.40300  0.75200  0.09850  1.0000
  O   O2        1.0  0.90200  0.59700  0.24800  1.0000
  O   O3        1.0  0.75200  0.09850  0.40300  1.0000
  O   O4        1.0  0.24800  0.90200  0.59700  1.0000
  O   O5        1.0  0.09850  0.40300  0.75200  1.0000
  O   O6        1.0  0.59700  0.24800  0.90200  1.0000
