data_image0
_chemical_formula_structural       BaLi8O6
_chemical_formula_sum              "Ba1 Li8 O6"
_cell_length_a       6.76562
_cell_length_b       6.76562
_cell_length_c       6.76562
_cell_angle_alpha    50.4012
_cell_angle_beta     50.4012
_cell_angle_gamma    50.4012

_space_group_name_H-M_alt    "P 1"
_space_group_IT_number       1

loop_
  _space_group_symop_operation_xyz
  'x, y, z'

loop_
  _atom_site_type_symbol
  _atom_site_label
  _atom_site_symmetry_multiplicity
  _atom_site_fract_x
  _atom_site_fract_y
  _atom_site_fract_z
  _atom_site_occupancy
  Ba  Ba1       1.0  0.00000  0.00000  0.00000  1.0000
  Li  Li1       1.0  0.79100  0.49500  0.08950  1.0000
  Li  Li2       1.0  0.50500  0.91100  0.20900  1.0000
  Li  Li3       1.0  0.39000  0.39000  0.39000  1.0000
  Li  Li4       1.0  0.08950  0.79100  0.49500  1.0000
  Li  Li5       1.0  0.91100  0.20900  0.50500  1.0000
  Li  Li6       1.0  0.61000  0.61000  0.61000  1.0000
  Li  Li7       1.0  0.49500  0.08950  0.79100  1.0000
  Li  Li8       1.0  0.20900  0.50500  0.91100  1.0000
  O   O1        1.0  0.41300  0.75400  0.12600  1.0000
  O   O2        1.0  0.87400  0.58700  0.24600  1.0000
  O   O3        1.0  0.75400  0.12600  0.41300  1.0000
  O   O4        1.0  0.24600  0.87400  0.58700  1.0000
  O   O5        1.0  0.12600  0.41300  0.75400  1.0000
  O   O6        1.0  0.58700  0.24600  0.87400  1.0000
