data_image0
_chemical_formula_structural       Li8MgO6
_chemical_formula_sum              "Li8 Mg1 O6"
_cell_length_a       5.87461
_cell_length_b       5.87461
_cell_length_c       5.87461
_cell_angle_alpha    54.9725
_cell_angle_beta     54.9725
_cell_angle_gamma    54.9725

_space_group_name_H-M_alt    "P 1"
_space_group_IT_number       1

loop_
  _space_group_symop_operation_xyz
  'x, y, z'

loop_
  _atom_site_type_symbol
  _atom_site_label
  _atom_site_symmetry_multiplicity
  _atom_site_fract_x
  _atom_site_fract_y
  _atom_site_fract_z
  _atom_site_occupancy
  Li  Li1       1.0  0.77000  0.47400  0.11000  1.0000
  Li  Li2       1.0  0.52600  0.89000  0.23000  1.0000
  Li  Li3       1.0  0.33700  0.33700  0.33700  1.0000
  Li  Li4       1.0  0.11000  0.77000  0.47400  1.0000
  Li  Li5       1.0  0.89000  0.23000  0.52600  1.0000
  Li  Li6       1.0  0.66300  0.66300  0.66300  1.0000
  Li  Li7       1.0  0.47400  0.11000  0.77000  1.0000
  Li  Li8       1.0  0.23000  0.52600  0.89000  1.0000
  Mg  Mg1       1.0  0.00000  0.00000  0.00000  1.0000
  O   O1        1.0  0.39700  0.75900  0.08530  1.0000
  O   O2        1.0  0.91500  0.60300  0.24100  1.0000
  O   O3        1.0  0.75900  0.08530  0.39700  1.0000
  O   O4        1.0  0.24100  0.91500  0.60300  1.0000
  O   O5        1.0  0.08530  0.39700  0.75900  1.0000
  O   O6        1.0  0.60300  0.24100  0.91500  1.0000
