data_image0
_chemical_formula_structural       Li8NdO6
_chemical_formula_sum              "Li8 Nd1 O6"
_cell_length_a       6.32127
_cell_length_b       6.32127
_cell_length_c       6.32128
_cell_angle_alpha    52.917
_cell_angle_beta     52.917
_cell_angle_gamma    52.917

_space_group_name_H-M_alt    "P 1"
_space_group_IT_number       1

loop_
  _space_group_symop_operation_xyz
  'x, y, z'

loop_
  _atom_site_type_symbol
  _atom_site_label
  _atom_site_symmetry_multiplicity
  _atom_site_fract_x
  _atom_site_fract_y
  _atom_site_fract_z
  _atom_site_occupancy
  Li  Li1       1.0  0.77700  0.49200  0.10300  1.0000
  Li  Li2       1.0  0.50800  0.89700  0.22300  1.0000
  Li  Li3       1.0  0.35600  0.35600  0.35600  1.0000
  Li  Li4       1.0  0.10300  0.77700  0.49200  1.0000
  Li  Li5       1.0  0.89700  0.22300  0.50800  1.0000
  Li  Li6       1.0  0.64400  0.64400  0.64400  1.0000
  Li  Li7       1.0  0.49200  0.10300  0.77700  1.0000
  Li  Li8       1.0  0.22300  0.50800  0.89700  1.0000
  Nd  Nd1       1.0  0.00000  0.00000  0.00000  1.0000
  O   O1        1.0  0.40600  0.75200  0.10400  1.0000
  O   O2        1.0  0.89600  0.59400  0.24800  1.0000
  O   O3        1.0  0.75200  0.10400  0.40600  1.0000
  O   O4        1.0  0.24800  0.89600  0.59400  1.0000
  O   O5        1.0  0.10400  0.40600  0.75200  1.0000
  O   O6        1.0  0.59400  0.24800  0.89600  1.0000
