data_image0
_chemical_formula_structural       GaLi8O6
_chemical_formula_sum              "Ga1 Li8 O6"
_cell_length_a       5.84562
_cell_length_b       5.84562
_cell_length_c       5.84562
_cell_angle_alpha    54.8343
_cell_angle_beta     54.8343
_cell_angle_gamma    54.8343

_space_group_name_H-M_alt    "P 1"
_space_group_IT_number       1

loop_
  _space_group_symop_operation_xyz
  'x, y, z'

loop_
  _atom_site_type_symbol
  _atom_site_label
  _atom_site_symmetry_multiplicity
  _atom_site_fract_x
  _atom_site_fract_y
  _atom_site_fract_z
  _atom_site_occupancy
  Ga  Ga1       1.0  0.00000  0.00000  0.00000  1.0000
  Li  Li1       1.0  0.76600  0.48400  0.10400  1.0000
  Li  Li2       1.0  0.51600  0.89600  0.23400  1.0000
  Li  Li3       1.0  0.33900  0.33900  0.33900  1.0000
  Li  Li4       1.0  0.10400  0.76600  0.48400  1.0000
  Li  Li5       1.0  0.89600  0.23400  0.51600  1.0000
  Li  Li6       1.0  0.66100  0.66100  0.66100  1.0000
  Li  Li7       1.0  0.48400  0.10400  0.76600  1.0000
  Li  Li8       1.0  0.23400  0.51600  0.89600  1.0000
  O   O1        1.0  0.38400  0.76500  0.08770  1.0000
  O   O2        1.0  0.91200  0.61600  0.23500  1.0000
  O   O3        1.0  0.76500  0.08770  0.38400  1.0000
  O   O4        1.0  0.23500  0.91200  0.61600  1.0000
  O   O5        1.0  0.08770  0.38400  0.76500  1.0000
  O   O6        1.0  0.61600  0.23500  0.91200  1.0000
