data_image0
_chemical_formula_structural       IrLi8O6
_chemical_formula_sum              "Ir1 Li8 O6"
_cell_length_a       5.40726
_cell_length_b       5.40726
_cell_length_c       5.87583
_cell_angle_alpha    90
_cell_angle_beta     117.395
_cell_angle_gamma    120

_space_group_name_H-M_alt    "P 1"
_space_group_IT_number       1

loop_
  _space_group_symop_operation_xyz
  'x, y, z'

loop_
  _atom_site_type_symbol
  _atom_site_label
  _atom_site_symmetry_multiplicity
  _atom_site_fract_x
  _atom_site_fract_y
  _atom_site_fract_z
  _atom_site_occupancy
  Ir  Ir1       1.0  0.00000  0.00000  0.00000  1.0000
  Li  Li1       1.0  0.68100  0.34100  0.02180  1.0000
  Li  Li2       1.0  0.58700  0.10200  0.35300  1.0000
  Li  Li3       1.0  0.86800  0.76600  0.35300  1.0000
  Li  Li4       1.0  0.25100  0.48500  0.35300  1.0000
  Li  Li5       1.0  0.74900  0.51500  0.64700  1.0000
  Li  Li6       1.0  0.13200  0.23400  0.64700  1.0000
  Li  Li7       1.0  0.41300  0.89800  0.64700  1.0000
  Li  Li8       1.0  0.31900  0.65900  0.97800  1.0000
  O   O1        1.0  0.85200  0.08950  0.23900  1.0000
  O   O2        1.0  0.47700  0.38700  0.23900  1.0000
  O   O3        1.0  0.15000  0.76200  0.23900  1.0000
  O   O4        1.0  0.85000  0.23800  0.76100  1.0000
  O   O5        1.0  0.52300  0.61300  0.76100  1.0000
  O   O6        1.0  0.14800  0.91100  0.76100  1.0000
