data_image0
_chemical_formula_structural       Ag4Fe4O4Se4
_chemical_formula_sum              "Ag4 Fe4 O4 Se4"
_cell_length_a       5.60725
_cell_length_b       3.83848
_cell_length_c       13.5413
_cell_angle_alpha    90
_cell_angle_beta     90
_cell_angle_gamma    90

_space_group_name_H-M_alt    "P 1"
_space_group_IT_number       1

loop_
  _space_group_symop_operation_xyz
  'x, y, z'

loop_
  _atom_site_type_symbol
  _atom_site_label
  _atom_site_symmetry_multiplicity
  _atom_site_fract_x
  _atom_site_fract_y
  _atom_site_fract_z
  _atom_site_occupancy
  Ag  Ag1       1.0  0.25300  0.75000  0.08770  1.0000
  Ag  Ag2       1.0  0.75300  0.75000  0.41200  1.0000
  Ag  Ag3       1.0  0.24700  0.25000  0.58800  1.0000
  Ag  Ag4       1.0  0.74700  0.25000  0.91200  1.0000
  Fe  Fe1       1.0  0.66100  0.25000  0.18300  1.0000
  Fe  Fe2       1.0  0.16100  0.25000  0.31700  1.0000
  Fe  Fe3       1.0  0.83900  0.75000  0.68300  1.0000
  Fe  Fe4       1.0  0.33900  0.75000  0.81700  1.0000
  O   O1        1.0  0.32600  0.25000  0.19700  1.0000
  O   O2        1.0  0.82600  0.25000  0.30300  1.0000
  O   O3        1.0  0.17400  0.75000  0.69700  1.0000
  O   O4        1.0  0.67400  0.75000  0.80300  1.0000
  Se  Se1       1.0  0.77100  0.75000  0.07290  1.0000
  Se  Se2       1.0  0.27100  0.75000  0.42700  1.0000
  Se  Se3       1.0  0.72900  0.25000  0.57300  1.0000
  Se  Se4       1.0  0.22900  0.25000  0.92700  1.0000
