data_image0
_chemical_formula_structural       CaLi8O6
_chemical_formula_sum              "Ca1 Li8 O6"
_cell_length_a       6.17189
_cell_length_b       6.17189
_cell_length_c       6.17189
_cell_angle_alpha    53.3787
_cell_angle_beta     53.3787
_cell_angle_gamma    53.3787

_space_group_name_H-M_alt    "P 1"
_space_group_IT_number       1

loop_
  _space_group_symop_operation_xyz
  'x, y, z'

loop_
  _atom_site_type_symbol
  _atom_site_label
  _atom_site_symmetry_multiplicity
  _atom_site_fract_x
  _atom_site_fract_y
  _atom_site_fract_z
  _atom_site_occupancy
  Ca  Ca1       1.0  0.00000  0.00000  0.00000  1.0000
  Li  Li1       1.0  0.77900  0.47500  0.11100  1.0000
  Li  Li2       1.0  0.52500  0.88900  0.22100  1.0000
  Li  Li3       1.0  0.34300  0.34300  0.34300  1.0000
  Li  Li4       1.0  0.11100  0.77900  0.47500  1.0000
  Li  Li5       1.0  0.88900  0.22100  0.52500  1.0000
  Li  Li6       1.0  0.65700  0.65700  0.65700  1.0000
  Li  Li7       1.0  0.47500  0.11100  0.77900  1.0000
  Li  Li8       1.0  0.22100  0.52500  0.88900  1.0000
  O   O1        1.0  0.41300  0.75100  0.09380  1.0000
  O   O2        1.0  0.90600  0.58700  0.24900  1.0000
  O   O3        1.0  0.75100  0.09380  0.41300  1.0000
  O   O4        1.0  0.24900  0.90600  0.58700  1.0000
  O   O5        1.0  0.09380  0.41300  0.75100  1.0000
  O   O6        1.0  0.58700  0.24900  0.90600  1.0000
