data_image0
_chemical_formula_structural       Li8O6Pd
_chemical_formula_sum              "Li8 O6 Pd1"
_cell_length_a       5.87849
_cell_length_b       5.87849
_cell_length_c       5.87849
_cell_angle_alpha    54.7394
_cell_angle_beta     54.7394
_cell_angle_gamma    54.7394

_space_group_name_H-M_alt    "P 1"
_space_group_IT_number       1

loop_
  _space_group_symop_operation_xyz
  'x, y, z'

loop_
  _atom_site_type_symbol
  _atom_site_label
  _atom_site_symmetry_multiplicity
  _atom_site_fract_x
  _atom_site_fract_y
  _atom_site_fract_z
  _atom_site_occupancy
  Li  Li1       1.0  0.76800  0.48400  0.09970  1.0000
  Li  Li2       1.0  0.51600  0.90000  0.23200  1.0000
  Li  Li3       1.0  0.34200  0.34200  0.34200  1.0000
  Li  Li4       1.0  0.09970  0.76800  0.48400  1.0000
  Li  Li5       1.0  0.90000  0.23200  0.51600  1.0000
  Li  Li6       1.0  0.65800  0.65800  0.65800  1.0000
  Li  Li7       1.0  0.48400  0.09970  0.76800  1.0000
  Li  Li8       1.0  0.23200  0.51600  0.90000  1.0000
  O   O1        1.0  0.38600  0.76200  0.09190  1.0000
  O   O2        1.0  0.90800  0.61400  0.23800  1.0000
  O   O3        1.0  0.76200  0.09190  0.38600  1.0000
  O   O4        1.0  0.23800  0.90800  0.61400  1.0000
  O   O5        1.0  0.09190  0.38600  0.76200  1.0000
  O   O6        1.0  0.61400  0.23800  0.90800  1.0000
  Pd  Pd1       1.0  0.00000  0.00000  0.00000  1.0000
