data_image0
_chemical_formula_structural       FeLi8O6
_chemical_formula_sum              "Fe1 Li8 O6"
_cell_length_a       5.82578
_cell_length_b       5.82578
_cell_length_c       5.82578
_cell_angle_alpha    54.6685
_cell_angle_beta     54.6685
_cell_angle_gamma    54.6685

_space_group_name_H-M_alt    "P 1"
_space_group_IT_number       1

loop_
  _space_group_symop_operation_xyz
  'x, y, z'

loop_
  _atom_site_type_symbol
  _atom_site_label
  _atom_site_symmetry_multiplicity
  _atom_site_fract_x
  _atom_site_fract_y
  _atom_site_fract_z
  _atom_site_occupancy
  Fe  Fe1       1.0  0.00000  0.00000  0.00000  1.0000
  Li  Li1       1.0  0.76600  0.48700  0.09920  1.0000
  Li  Li2       1.0  0.51300  0.90100  0.23400  1.0000
  Li  Li3       1.0  0.34100  0.34100  0.34100  1.0000
  Li  Li4       1.0  0.09920  0.76600  0.48700  1.0000
  Li  Li5       1.0  0.90100  0.23400  0.51300  1.0000
  Li  Li6       1.0  0.65900  0.65900  0.65900  1.0000
  Li  Li7       1.0  0.48700  0.09920  0.76600  1.0000
  Li  Li8       1.0  0.23400  0.51300  0.90100  1.0000
  O   O1        1.0  0.37700  0.76700  0.09100  1.0000
  O   O2        1.0  0.90900  0.62300  0.23300  1.0000
  O   O3        1.0  0.76700  0.09100  0.37700  1.0000
  O   O4        1.0  0.23300  0.90900  0.62300  1.0000
  O   O5        1.0  0.09100  0.37700  0.76700  1.0000
  O   O6        1.0  0.62300  0.23300  0.90900  1.0000
