data_image0
_chemical_formula_structural       KLi8O6
_chemical_formula_sum              "K1 Li8 O6"
_cell_length_a       6.61962
_cell_length_b       6.61962
_cell_length_c       6.61962
_cell_angle_alpha    50.6217
_cell_angle_beta     50.6217
_cell_angle_gamma    50.6217

_space_group_name_H-M_alt    "P 1"
_space_group_IT_number       1

loop_
  _space_group_symop_operation_xyz
  'x, y, z'

loop_
  _atom_site_type_symbol
  _atom_site_label
  _atom_site_symmetry_multiplicity
  _atom_site_fract_x
  _atom_site_fract_y
  _atom_site_fract_z
  _atom_site_occupancy
  K   K1        1.0  0.00000  0.00000  0.00000  1.0000
  Li  Li1       1.0  0.80000  0.47000  0.09690  1.0000
  Li  Li2       1.0  0.53000  0.90300  0.20000  1.0000
  Li  Li3       1.0  0.37800  0.37800  0.37800  1.0000
  Li  Li4       1.0  0.09690  0.80000  0.47000  1.0000
  Li  Li5       1.0  0.90300  0.20000  0.53000  1.0000
  Li  Li6       1.0  0.62200  0.62200  0.62200  1.0000
  Li  Li7       1.0  0.47000  0.09690  0.80000  1.0000
  Li  Li8       1.0  0.20000  0.53000  0.90300  1.0000
  O   O1        1.0  0.42700  0.74400  0.11800  1.0000
  O   O2        1.0  0.88200  0.57300  0.25600  1.0000
  O   O3        1.0  0.74400  0.11800  0.42700  1.0000
  O   O4        1.0  0.25600  0.88200  0.57300  1.0000
  O   O5        1.0  0.11800  0.42700  0.74400  1.0000
  O   O6        1.0  0.57300  0.25600  0.88200  1.0000
