data_image0
_chemical_formula_structural       Li7O6Sm
_chemical_formula_sum              "Li7 O6 Sm1"
_cell_length_a       5.66004
_cell_length_b       5.65904
_cell_length_c       6.18509
_cell_angle_alpha    62.7702
_cell_angle_beta     117.236
_cell_angle_gamma    119.998

_space_group_name_H-M_alt    "P 1"
_space_group_IT_number       1

loop_
  _space_group_symop_operation_xyz
  'x, y, z'

loop_
  _atom_site_type_symbol
  _atom_site_label
  _atom_site_symmetry_multiplicity
  _atom_site_fract_x
  _atom_site_fract_y
  _atom_site_fract_z
  _atom_site_occupancy
  Li  Li1       1.0  0.35000  0.65000  0.04970  1.0000
  Li  Li2       1.0  0.78200  0.49800  0.35500  1.0000
  Li  Li3       1.0  0.50200  0.92900  0.35500  1.0000
  Li  Li4       1.0  0.07100  0.21800  0.35600  1.0000
  Li  Li5       1.0  0.86700  0.73800  0.64100  1.0000
  Li  Li6       1.0  0.26200  0.48800  0.64100  1.0000
  Li  Li7       1.0  0.51200  0.13300  0.64100  1.0000
  O   O1        1.0  0.74500  0.87000  0.26200  1.0000
  O   O2        1.0  0.13000  0.61300  0.26200  1.0000
  O   O3        1.0  0.38700  0.25500  0.26200  1.0000
  O   O4        1.0  0.20600  0.07420  0.72300  1.0000
  O   O5        1.0  0.59100  0.79400  0.72300  1.0000
  O   O6        1.0  0.92600  0.40900  0.72300  1.0000
  Sm  Sm1       1.0  0.99900  0.00145  0.99600  1.0000
