data_image0
_chemical_formula_structural       Li7O6Pt
_chemical_formula_sum              "Li7 O6 Pt1"
_cell_length_a       5.52001
_cell_length_b       5.51943
_cell_length_c       5.71954
_cell_angle_alpha    61.148
_cell_angle_beta     118.855
_cell_angle_gamma    120

_space_group_name_H-M_alt    "P 1"
_space_group_IT_number       1

loop_
  _space_group_symop_operation_xyz
  'x, y, z'

loop_
  _atom_site_type_symbol
  _atom_site_label
  _atom_site_symmetry_multiplicity
  _atom_site_fract_x
  _atom_site_fract_y
  _atom_site_fract_z
  _atom_site_occupancy
  Li  Li1       1.0  0.34300  0.65700  0.02990  1.0000
  Li  Li2       1.0  0.50300  0.94000  0.32800  1.0000
  Li  Li3       1.0  0.76500  0.49700  0.32800  1.0000
  Li  Li4       1.0  0.05960  0.23500  0.32800  1.0000
  Li  Li5       1.0  0.87800  0.72600  0.66600  1.0000
  Li  Li6       1.0  0.27400  0.48600  0.66600  1.0000
  Li  Li7       1.0  0.51400  0.12200  0.66600  1.0000
  O   O1        1.0  0.76100  0.88400  0.24200  1.0000
  O   O2        1.0  0.11600  0.63400  0.24200  1.0000
  O   O3        1.0  0.36600  0.23900  0.24200  1.0000
  O   O4        1.0  0.62000  0.79100  0.75100  1.0000
  O   O5        1.0  0.92300  0.38100  0.75100  1.0000
  O   O6        1.0  0.20900  0.07710  0.75100  1.0000
  Pt  Pt1       1.0  0.99900  0.00053  0.99800  1.0000
