data_image0
_chemical_formula_structural       Li21O18Ta3
_chemical_formula_sum              "Li21 O18 Ta3"
_cell_length_a       5.48245
_cell_length_b       5.48245
_cell_length_c       14.6867
_cell_angle_alpha    90
_cell_angle_beta     89.9999
_cell_angle_gamma    120

_space_group_name_H-M_alt    "P 1"
_space_group_IT_number       1

loop_
  _space_group_symop_operation_xyz
  'x, y, z'

loop_
  _atom_site_type_symbol
  _atom_site_label
  _atom_site_symmetry_multiplicity
  _atom_site_fract_x
  _atom_site_fract_y
  _atom_site_fract_z
  _atom_site_occupancy
  Li  Li1       1.0  0.00877  0.62100  0.11600  1.0000
  Li  Li2       1.0  0.37900  0.38800  0.11600  1.0000
  Li  Li3       1.0  0.61200  0.99100  0.11600  1.0000
  Li  Li4       1.0  0.71200  0.72800  0.21800  1.0000
  Li  Li5       1.0  0.27200  0.98300  0.21800  1.0000
  Li  Li6       1.0  0.01650  0.28800  0.21800  1.0000
  Li  Li7       1.0  0.33300  0.66700  0.32400  1.0000
  Li  Li8       1.0  0.27900  0.32500  0.44900  1.0000
  Li  Li9       1.0  0.04580  0.72100  0.44900  1.0000
  Li  Li10      1.0  0.67500  0.95400  0.44900  1.0000
  Li  Li11      1.0  0.93800  0.31700  0.55100  1.0000
  Li  Li12      1.0  0.68300  0.62200  0.55100  1.0000
  Li  Li13      1.0  0.37800  0.06170  0.55100  1.0000
  Li  Li14      1.0  0.00000  0.00000  0.65800  1.0000
  Li  Li15      1.0  0.94500  0.65800  0.78300  1.0000
  Li  Li16      1.0  0.71200  0.05460  0.78300  1.0000
  Li  Li17      1.0  0.34200  0.28800  0.78300  1.0000
  Li  Li18      1.0  0.60500  0.65000  0.88400  1.0000
  Li  Li19      1.0  0.35000  0.95500  0.88400  1.0000
  Li  Li20      1.0  0.04510  0.39500  0.88400  1.0000
  Li  Li21      1.0  0.66700  0.33300  0.99100  1.0000
  O   O1        1.0  0.29800  0.01100  0.08150  1.0000
  O   O2        1.0  0.71300  0.70200  0.08150  1.0000
  O   O3        1.0  0.98900  0.28700  0.08150  1.0000
  O   O4        1.0  0.98100  0.61500  0.25300  1.0000
  O   O5        1.0  0.38500  0.36600  0.25300  1.0000
  O   O6        1.0  0.63400  0.01890  0.25300  1.0000
  O   O7        1.0  0.37900  0.03500  0.41500  1.0000
  O   O8        1.0  0.65600  0.62100  0.41500  1.0000
  O   O9        1.0  0.96500  0.34400  0.41500  1.0000
  O   O10       1.0  0.64800  0.94800  0.58600  1.0000
  O   O11       1.0  0.30000  0.35200  0.58600  1.0000
  O   O12       1.0  0.05200  0.70000  0.58600  1.0000
  O   O13       1.0  0.63200  0.67800  0.74800  1.0000
  O   O14       1.0  0.32200  0.95400  0.74800  1.0000
  O   O15       1.0  0.04590  0.36800  0.74800  1.0000
  O   O16       1.0  0.31400  0.28100  0.91900  1.0000
  O   O17       1.0  0.96700  0.68600  0.91900  1.0000
  O   O18       1.0  0.71900  0.03310  0.91900  1.0000
  Ta  Ta1       1.0  0.00000  0.00000  0.00070  1.0000
  Ta  Ta2       1.0  0.66700  0.33300  0.33400  1.0000
  Ta  Ta3       1.0  0.33300  0.66700  0.66700  1.0000
