data_image0
_chemical_formula_structural       Li7O6Ti
_chemical_formula_sum              "Li7 O6 Ti1"
_cell_length_a       5.50181
_cell_length_b       5.50143
_cell_length_c       5.69983
_cell_angle_alpha    61.1443
_cell_angle_beta     118.859
_cell_angle_gamma    120.004

_space_group_name_H-M_alt    "P 1"
_space_group_IT_number       1

loop_
  _space_group_symop_operation_xyz
  'x, y, z'

loop_
  _atom_site_type_symbol
  _atom_site_label
  _atom_site_symmetry_multiplicity
  _atom_site_fract_x
  _atom_site_fract_y
  _atom_site_fract_z
  _atom_site_occupancy
  Li  Li1       1.0  0.34100  0.65900  0.02380  1.0000
  Li  Li2       1.0  0.50300  0.93600  0.33100  1.0000
  Li  Li3       1.0  0.76400  0.49700  0.33100  1.0000
  Li  Li4       1.0  0.06360  0.23600  0.33100  1.0000
  Li  Li5       1.0  0.87300  0.72400  0.66300  1.0000
  Li  Li6       1.0  0.27600  0.48600  0.66300  1.0000
  Li  Li7       1.0  0.51400  0.12700  0.66300  1.0000
  O   O1        1.0  0.76500  0.88600  0.23900  1.0000
  O   O2        1.0  0.11400  0.63900  0.23900  1.0000
  O   O3        1.0  0.36100  0.23500  0.23900  1.0000
  O   O4        1.0  0.62000  0.79600  0.75700  1.0000
  O   O5        1.0  0.93300  0.38000  0.75700  1.0000
  O   O6        1.0  0.20400  0.06740  0.75700  1.0000
  Ti  Ti1       1.0  0.99800  0.00155  0.99500  1.0000
