data_image0
_chemical_formula_structural       IrLi7O6
_chemical_formula_sum              "Ir1 Li7 O6"
_cell_length_a       5.49869
_cell_length_b       5.49827
_cell_length_c       5.71481
_cell_angle_alpha    61.2458
_cell_angle_beta     118.757
_cell_angle_gamma    120

_space_group_name_H-M_alt    "P 1"
_space_group_IT_number       1

loop_
  _space_group_symop_operation_xyz
  'x, y, z'

loop_
  _atom_site_type_symbol
  _atom_site_label
  _atom_site_symmetry_multiplicity
  _atom_site_fract_x
  _atom_site_fract_y
  _atom_site_fract_z
  _atom_site_occupancy
  Ir  Ir1       1.0  0.99900  0.00075  0.99800  1.0000
  Li  Li1       1.0  0.34300  0.65700  0.02980  1.0000
  Li  Li2       1.0  0.76500  0.49600  0.33000  1.0000
  Li  Li3       1.0  0.50400  0.93800  0.33000  1.0000
  Li  Li4       1.0  0.06170  0.23500  0.33100  1.0000
  Li  Li5       1.0  0.87700  0.72600  0.66300  1.0000
  Li  Li6       1.0  0.27400  0.48800  0.66300  1.0000
  Li  Li7       1.0  0.51200  0.12300  0.66300  1.0000
  O   O1        1.0  0.76300  0.88600  0.24100  1.0000
  O   O2        1.0  0.11400  0.63600  0.24100  1.0000
  O   O3        1.0  0.36400  0.23700  0.24100  1.0000
  O   O4        1.0  0.62200  0.79300  0.75300  1.0000
  O   O5        1.0  0.92400  0.37800  0.75300  1.0000
  O   O6        1.0  0.20700  0.07620  0.75300  1.0000
