data_image0
_chemical_formula_structural       HfLi7O6
_chemical_formula_sum              "Hf1 Li7 O6"
_cell_length_a       5.56053
_cell_length_b       5.56024
_cell_length_c       5.89835
_cell_angle_alpha    61.8809
_cell_angle_beta     118.127
_cell_angle_gamma    120.004

_space_group_name_H-M_alt    "P 1"
_space_group_IT_number       1

loop_
  _space_group_symop_operation_xyz
  'x, y, z'

loop_
  _atom_site_type_symbol
  _atom_site_label
  _atom_site_symmetry_multiplicity
  _atom_site_fract_x
  _atom_site_fract_y
  _atom_site_fract_z
  _atom_site_occupancy
  Hf  Hf1       1.0  0.99900  0.00050  0.99800  1.0000
  Li  Li1       1.0  0.34300  0.65700  0.02950  1.0000
  Li  Li2       1.0  0.76800  0.49200  0.34600  1.0000
  Li  Li3       1.0  0.50800  0.93000  0.34600  1.0000
  Li  Li4       1.0  0.07000  0.23200  0.34600  1.0000
  Li  Li5       1.0  0.87200  0.73000  0.65000  1.0000
  Li  Li6       1.0  0.50700  0.12800  0.65000  1.0000
  Li  Li7       1.0  0.27000  0.49300  0.65000  1.0000
  O   O1        1.0  0.76100  0.88400  0.24600  1.0000
  O   O2        1.0  0.11600  0.63100  0.24700  1.0000
  O   O3        1.0  0.36900  0.23900  0.24700  1.0000
  O   O4        1.0  0.61100  0.79500  0.74500  1.0000
  O   O5        1.0  0.93000  0.38900  0.74600  1.0000
  O   O6        1.0  0.20500  0.07050  0.74600  1.0000
