data_image0
_chemical_formula_structural       CdLi7O6
_chemical_formula_sum              "Cd1 Li7 O6"
_cell_length_a       5.59107
_cell_length_b       5.59075
_cell_length_c       5.867
_cell_angle_alpha    61.5436
_cell_angle_beta     118.461
_cell_angle_gamma    120

_space_group_name_H-M_alt    "P 1"
_space_group_IT_number       1

loop_
  _space_group_symop_operation_xyz
  'x, y, z'

loop_
  _atom_site_type_symbol
  _atom_site_label
  _atom_site_symmetry_multiplicity
  _atom_site_fract_x
  _atom_site_fract_y
  _atom_site_fract_z
  _atom_site_occupancy
  Cd  Cd1       1.0  0.00000  0.00012  0.00000  1.0000
  Li  Li1       1.0  0.34200  0.65800  0.02520  1.0000
  Li  Li2       1.0  0.05830  0.22100  0.33400  1.0000
  Li  Li3       1.0  0.49700  0.94200  0.33400  1.0000
  Li  Li4       1.0  0.77900  0.50300  0.33400  1.0000
  Li  Li5       1.0  0.27000  0.47300  0.66500  1.0000
  Li  Li6       1.0  0.86800  0.73000  0.66500  1.0000
  Li  Li7       1.0  0.52700  0.13200  0.66500  1.0000
  O   O1        1.0  0.74600  0.86800  0.25400  1.0000
  O   O2        1.0  0.13200  0.62300  0.25400  1.0000
  O   O3        1.0  0.37700  0.25400  0.25500  1.0000
  O   O4        1.0  0.20600  0.07020  0.73400  1.0000
  O   O5        1.0  0.59900  0.79400  0.73500  1.0000
  O   O6        1.0  0.93000  0.40200  0.73500  1.0000
