data_image0
_chemical_formula_structural       AgLi7O6
_chemical_formula_sum              "Ag1 Li7 O6"
_cell_length_a       5.54604
_cell_length_b       5.54565
_cell_length_c       5.73986
_cell_angle_alpha    61.1132
_cell_angle_beta     118.89
_cell_angle_gamma    120.003

_space_group_name_H-M_alt    "P 1"
_space_group_IT_number       1

loop_
  _space_group_symop_operation_xyz
  'x, y, z'

loop_
  _atom_site_type_symbol
  _atom_site_label
  _atom_site_symmetry_multiplicity
  _atom_site_fract_x
  _atom_site_fract_y
  _atom_site_fract_z
  _atom_site_occupancy
  Ag  Ag1       1.0  0.00000  0.00028  0.99900  1.0000
  Li  Li1       1.0  0.34300  0.65700  0.03020  1.0000
  Li  Li2       1.0  0.77100  0.49800  0.32800  1.0000
  Li  Li3       1.0  0.50200  0.94500  0.32800  1.0000
  Li  Li4       1.0  0.05480  0.22900  0.32800  1.0000
  Li  Li5       1.0  0.87600  0.72700  0.66900  1.0000
  Li  Li6       1.0  0.27300  0.48100  0.66900  1.0000
  Li  Li7       1.0  0.51900  0.12400  0.66900  1.0000
  O   O1        1.0  0.75600  0.87700  0.24500  1.0000
  O   O2        1.0  0.12300  0.63400  0.24500  1.0000
  O   O3        1.0  0.36600  0.24400  0.24500  1.0000
  O   O4        1.0  0.61500  0.79400  0.74500  1.0000
  O   O5        1.0  0.92400  0.38500  0.74500  1.0000
  O   O6        1.0  0.20600  0.07580  0.74500  1.0000
