data_image0
_chemical_formula_structural       GeLi7O6
_chemical_formula_sum              "Ge1 Li7 O6"
_cell_length_a       5.50855
_cell_length_b       5.50927
_cell_length_c       5.60058
_cell_angle_alpha    60.5433
_cell_angle_beta     119.456
_cell_angle_gamma    120.003

_space_group_name_H-M_alt    "P 1"
_space_group_IT_number       1

loop_
  _space_group_symop_operation_xyz
  'x, y, z'

loop_
  _atom_site_type_symbol
  _atom_site_label
  _atom_site_symmetry_multiplicity
  _atom_site_fract_x
  _atom_site_fract_y
  _atom_site_fract_z
  _atom_site_occupancy
  Ge  Ge1       1.0  0.99900  0.00087  0.99700  1.0000
  Li  Li1       1.0  0.34200  0.65800  0.02730  1.0000
  Li  Li2       1.0  0.50700  0.94200  0.32400  1.0000
  Li  Li3       1.0  0.75900  0.49300  0.32400  1.0000
  Li  Li4       1.0  0.05800  0.24100  0.32400  1.0000
  Li  Li5       1.0  0.87700  0.71900  0.67000  1.0000
  Li  Li6       1.0  0.28100  0.48900  0.67000  1.0000
  Li  Li7       1.0  0.51100  0.12300  0.67000  1.0000
  O   O1        1.0  0.35300  0.23000  0.23500  1.0000
  O   O2        1.0  0.11200  0.64700  0.23500  1.0000
  O   O3        1.0  0.76900  0.88800  0.23500  1.0000
  O   O4        1.0  0.63000  0.79900  0.76000  1.0000
  O   O5        1.0  0.92900  0.37000  0.76000  1.0000
  O   O6        1.0  0.20100  0.07140  0.76000  1.0000
