data_image0
_chemical_formula_structural       As7Mg6Ni16
_chemical_formula_sum              "As7 Mg6 Ni16"
_cell_length_a       8.14763
_cell_length_b       8.14763
_cell_length_c       8.14763
_cell_angle_alpha    120
_cell_angle_beta     90
_cell_angle_gamma    120

_space_group_name_H-M_alt    "P 1"
_space_group_IT_number       1

loop_
  _space_group_symop_operation_xyz
  'x, y, z'

loop_
  _atom_site_type_symbol
  _atom_site_label
  _atom_site_symmetry_multiplicity
  _atom_site_fract_x
  _atom_site_fract_y
  _atom_site_fract_z
  _atom_site_occupancy
  As  As1       1.0  0.50000  0.00000  0.00000  1.0000
  As  As2       1.0  0.50000  0.50000  0.00000  1.0000
  As  As3       1.0  0.00000  0.50000  0.00000  1.0000
  As  As4       1.0  0.50000  0.50000  0.50000  1.0000
  As  As5       1.0  0.00000  0.00000  0.50000  1.0000
  As  As6       1.0  0.00000  0.50000  0.50000  1.0000
  As  As7       1.0  0.50000  0.00000  0.50000  1.0000
  Mg  Mg1       1.0  0.20000  0.00000  0.20000  1.0000
  Mg  Mg2       1.0  0.20000  0.39900  0.20000  1.0000
  Mg  Mg3       1.0  0.80000  0.00000  0.20000  1.0000
  Mg  Mg4       1.0  0.20000  0.00000  0.80000  1.0000
  Mg  Mg5       1.0  0.80000  0.00000  0.80000  1.0000
  Mg  Mg6       1.0  0.80000  0.60100  0.80000  1.0000
  Ni  Ni1       1.0  0.38200  0.76400  0.14600  1.0000
  Ni  Ni2       1.0  0.83300  0.33400  0.16700  1.0000
  Ni  Ni3       1.0  0.83300  0.66600  0.16700  1.0000
  Ni  Ni4       1.0  0.50000  0.33400  0.16700  1.0000
  Ni  Ni5       1.0  0.61800  0.76400  0.38200  1.0000
  Ni  Ni6       1.0  0.61800  0.23600  0.38200  1.0000
  Ni  Ni7       1.0  0.14600  0.76400  0.38200  1.0000
  Ni  Ni8       1.0  0.83300  0.66600  0.50000  1.0000
  Ni  Ni9       1.0  0.16700  0.33400  0.50000  1.0000
  Ni  Ni10      1.0  0.38200  0.23600  0.61800  1.0000
  Ni  Ni11      1.0  0.85400  0.23600  0.61800  1.0000
  Ni  Ni12      1.0  0.38200  0.76400  0.61800  1.0000
  Ni  Ni13      1.0  0.16700  0.66600  0.83300  1.0000
  Ni  Ni14      1.0  0.50000  0.66600  0.83300  1.0000
  Ni  Ni15      1.0  0.16700  0.33400  0.83300  1.0000
  Ni  Ni16      1.0  0.61800  0.23600  0.85400  1.0000
