data_image0
_chemical_formula_structural       Li8O6Te
_chemical_formula_sum              "Li8 O6 Te1"
_cell_length_a       6.13767
_cell_length_b       6.13767
_cell_length_c       6.13767
_cell_angle_alpha    53.6435
_cell_angle_beta     53.6435
_cell_angle_gamma    53.6435

_space_group_name_H-M_alt    "P 1"
_space_group_IT_number       1

loop_
  _space_group_symop_operation_xyz
  'x, y, z'

loop_
  _atom_site_type_symbol
  _atom_site_label
  _atom_site_symmetry_multiplicity
  _atom_site_fract_x
  _atom_site_fract_y
  _atom_site_fract_z
  _atom_site_occupancy
  Li  Li1       1.0  0.77100  0.48900  0.10400  1.0000
  Li  Li2       1.0  0.51100  0.89600  0.22900  1.0000
  Li  Li3       1.0  0.34600  0.34600  0.34600  1.0000
  Li  Li4       1.0  0.10400  0.77100  0.48900  1.0000
  Li  Li5       1.0  0.89600  0.22900  0.51100  1.0000
  Li  Li6       1.0  0.65400  0.65400  0.65400  1.0000
  Li  Li7       1.0  0.48900  0.10400  0.77100  1.0000
  Li  Li8       1.0  0.22900  0.51100  0.89600  1.0000
  O   O1        1.0  0.39700  0.75900  0.09500  1.0000
  O   O2        1.0  0.90500  0.60300  0.24100  1.0000
  O   O3        1.0  0.75900  0.09500  0.39700  1.0000
  O   O4        1.0  0.24100  0.90500  0.60300  1.0000
  O   O5        1.0  0.09500  0.39700  0.75900  1.0000
  O   O6        1.0  0.60300  0.24100  0.90500  1.0000
  Te  Te1       1.0  0.00000  0.00000  0.00000  1.0000
