data_image0
_chemical_formula_structural       Be8Hg8O8Se8
_chemical_formula_sum              "Be8 Hg8 O8 Se8"
_cell_length_a       8.00569
_cell_length_b       13.0813
_cell_length_c       5.30132
_cell_angle_alpha    90
_cell_angle_beta     90
_cell_angle_gamma    90

_space_group_name_H-M_alt    "P 1"
_space_group_IT_number       1

loop_
  _space_group_symop_operation_xyz
  'x, y, z'

loop_
  _atom_site_type_symbol
  _atom_site_label
  _atom_site_symmetry_multiplicity
  _atom_site_fract_x
  _atom_site_fract_y
  _atom_site_fract_z
  _atom_site_occupancy
  Be  Be1       1.0  0.12500  0.21500  0.12800  1.0000
  Be  Be2       1.0  0.37500  0.71500  0.12800  1.0000
  Be  Be3       1.0  0.62500  0.21500  0.37200  1.0000
  Be  Be4       1.0  0.87500  0.71500  0.37200  1.0000
  Be  Be5       1.0  0.12500  0.28500  0.62800  1.0000
  Be  Be6       1.0  0.37500  0.78500  0.62800  1.0000
  Be  Be7       1.0  0.62500  0.28500  0.87200  1.0000
  Be  Be8       1.0  0.87500  0.78500  0.87200  1.0000
  Hg  Hg1       1.0  0.85900  0.42200  0.24500  1.0000
  Hg  Hg2       1.0  0.64100  0.92200  0.24500  1.0000
  Hg  Hg3       1.0  0.35900  0.42200  0.25500  1.0000
  Hg  Hg4       1.0  0.14100  0.92200  0.25500  1.0000
  Hg  Hg5       1.0  0.85900  0.07840  0.74500  1.0000
  Hg  Hg6       1.0  0.64100  0.57800  0.74500  1.0000
  Hg  Hg7       1.0  0.35900  0.07840  0.75500  1.0000
  Hg  Hg8       1.0  0.14100  0.57800  0.75500  1.0000
  O   O1        1.0  0.65400  0.28800  0.15600  1.0000
  O   O2        1.0  0.84600  0.78800  0.15600  1.0000
  O   O3        1.0  0.15400  0.28800  0.34400  1.0000
  O   O4        1.0  0.34600  0.78800  0.34400  1.0000
  O   O5        1.0  0.65400  0.21200  0.65600  1.0000
  O   O6        1.0  0.84600  0.71200  0.65600  1.0000
  O   O7        1.0  0.15400  0.21200  0.84400  1.0000
  O   O8        1.0  0.34600  0.71200  0.84400  1.0000
  Se  Se1       1.0  0.92500  0.09070  0.24000  1.0000
  Se  Se2       1.0  0.57500  0.59100  0.24000  1.0000
  Se  Se3       1.0  0.42500  0.09070  0.26000  1.0000
  Se  Se4       1.0  0.07520  0.59100  0.26000  1.0000
  Se  Se5       1.0  0.92500  0.40900  0.74000  1.0000
  Se  Se6       1.0  0.57500  0.90900  0.74000  1.0000
  Se  Se7       1.0  0.42500  0.40900  0.76000  1.0000
  Se  Se8       1.0  0.07520  0.90900  0.76000  1.0000
