data_image0
_chemical_formula_structural       Li8O6Yb
_chemical_formula_sum              "Li8 O6 Yb1"
_cell_length_a       6.13397
_cell_length_b       6.13397
_cell_length_c       6.13397
_cell_angle_alpha    53.6019
_cell_angle_beta     53.6019
_cell_angle_gamma    53.6019

_space_group_name_H-M_alt    "P 1"
_space_group_IT_number       1

loop_
  _space_group_symop_operation_xyz
  'x, y, z'

loop_
  _atom_site_type_symbol
  _atom_site_label
  _atom_site_symmetry_multiplicity
  _atom_site_fract_x
  _atom_site_fract_y
  _atom_site_fract_z
  _atom_site_occupancy
  Li  Li1       1.0  0.77900  0.47300  0.11100  1.0000
  Li  Li2       1.0  0.52700  0.88900  0.22100  1.0000
  Li  Li3       1.0  0.34100  0.34100  0.34100  1.0000
  Li  Li4       1.0  0.11100  0.77900  0.47300  1.0000
  Li  Li5       1.0  0.88900  0.22100  0.52700  1.0000
  Li  Li6       1.0  0.65900  0.65900  0.65900  1.0000
  Li  Li7       1.0  0.47300  0.11100  0.77900  1.0000
  Li  Li8       1.0  0.22100  0.52700  0.88900  1.0000
  O   O1        1.0  0.41000  0.75200  0.09300  1.0000
  O   O2        1.0  0.90700  0.59000  0.24800  1.0000
  O   O3        1.0  0.75200  0.09300  0.41000  1.0000
  O   O4        1.0  0.24800  0.90700  0.59000  1.0000
  O   O5        1.0  0.09300  0.41000  0.75200  1.0000
  O   O6        1.0  0.59000  0.24800  0.90700  1.0000
  Yb  Yb1       1.0  0.00000  0.00000  0.00000  1.0000
