data_image0
_chemical_formula_structural       Li8O6Sr
_chemical_formula_sum              "Li8 O6 Sr1"
_cell_length_a       6.48412
_cell_length_b       6.48412
_cell_length_c       6.48412
_cell_angle_alpha    51.5334
_cell_angle_beta     51.5334
_cell_angle_gamma    51.5334

_space_group_name_H-M_alt    "P 1"
_space_group_IT_number       1

loop_
  _space_group_symop_operation_xyz
  'x, y, z'

loop_
  _atom_site_type_symbol
  _atom_site_label
  _atom_site_symmetry_multiplicity
  _atom_site_fract_x
  _atom_site_fract_y
  _atom_site_fract_z
  _atom_site_occupancy
  Li  Li1       1.0  0.78700  0.48700  0.09730  1.0000
  Li  Li2       1.0  0.51300  0.90300  0.21300  1.0000
  Li  Li3       1.0  0.37000  0.37000  0.37000  1.0000
  Li  Li4       1.0  0.09730  0.78700  0.48700  1.0000
  Li  Li5       1.0  0.90300  0.21300  0.51300  1.0000
  Li  Li6       1.0  0.63000  0.63000  0.63000  1.0000
  Li  Li7       1.0  0.48700  0.09730  0.78700  1.0000
  Li  Li8       1.0  0.21300  0.51300  0.90300  1.0000
  O   O1        1.0  0.41200  0.75000  0.11400  1.0000
  O   O2        1.0  0.88600  0.58800  0.25000  1.0000
  O   O3        1.0  0.75000  0.11400  0.41200  1.0000
  O   O4        1.0  0.25000  0.88600  0.58800  1.0000
  O   O5        1.0  0.11400  0.41200  0.75000  1.0000
  O   O6        1.0  0.58800  0.25000  0.88600  1.0000
  Sr  Sr1       1.0  0.00000  0.00000  0.00000  1.0000
