data_image0
_chemical_formula_structural       Li7O6Sb
_chemical_formula_sum              "Li7 O6 Sb1"
_cell_length_a       5.50321
_cell_length_b       5.50321
_cell_length_c       5.82635
_cell_angle_alpha    61.8183
_cell_angle_beta     118.182
_cell_angle_gamma    120

_space_group_name_H-M_alt    "P 1"
_space_group_IT_number       1

loop_
  _space_group_symop_operation_xyz
  'x, y, z'

loop_
  _atom_site_type_symbol
  _atom_site_label
  _atom_site_symmetry_multiplicity
  _atom_site_fract_x
  _atom_site_fract_y
  _atom_site_fract_z
  _atom_site_occupancy
  Li  Li1       1.0  0.34200  0.65800  0.02650  1.0000
  Li  Li2       1.0  0.06520  0.23600  0.34300  1.0000
  Li  Li3       1.0  0.76400  0.48700  0.34300  1.0000
  Li  Li4       1.0  0.51300  0.93500  0.34300  1.0000
  Li  Li5       1.0  0.50300  0.12300  0.65300  1.0000
  Li  Li6       1.0  0.27400  0.49700  0.65300  1.0000
  Li  Li7       1.0  0.87700  0.72600  0.65300  1.0000
  O   O1        1.0  0.36000  0.23500  0.24200  1.0000
  O   O2        1.0  0.11700  0.64000  0.24200  1.0000
  O   O3        1.0  0.76500  0.88300  0.24200  1.0000
  O   O4        1.0  0.20400  0.07430  0.75100  1.0000
  O   O5        1.0  0.92600  0.37900  0.75100  1.0000
  O   O6        1.0  0.62100  0.79600  0.75100  1.0000
  Sb  Sb1       1.0  0.99900  0.00082  0.99800  1.0000
