data_image0
_chemical_formula_structural       Li8O6Sn
_chemical_formula_sum              "Li8 O6 Sn1"
_cell_length_a       5.45598
_cell_length_b       5.45598
_cell_length_c       5.98299
_cell_angle_alpha    62.8734
_cell_angle_beta     117.127
_cell_angle_gamma    120

_space_group_name_H-M_alt    "P 1"
_space_group_IT_number       1

loop_
  _space_group_symop_operation_xyz
  'x, y, z'

loop_
  _atom_site_type_symbol
  _atom_site_label
  _atom_site_symmetry_multiplicity
  _atom_site_fract_x
  _atom_site_fract_y
  _atom_site_fract_z
  _atom_site_occupancy
  Li  Li1       1.0  0.34300  0.65700  0.02970  1.0000
  Li  Li2       1.0  0.10200  0.23400  0.36200  1.0000
  Li  Li3       1.0  0.76600  0.50500  0.36200  1.0000
  Li  Li4       1.0  0.49500  0.89800  0.36200  1.0000
  Li  Li5       1.0  0.50500  0.10200  0.63800  1.0000
  Li  Li6       1.0  0.23400  0.49500  0.63800  1.0000
  Li  Li7       1.0  0.89800  0.76600  0.63800  1.0000
  Li  Li8       1.0  0.65700  0.34300  0.97000  1.0000
  O   O1        1.0  0.38700  0.23700  0.24300  1.0000
  O   O2        1.0  0.09290  0.61300  0.24300  1.0000
  O   O3        1.0  0.76300  0.90700  0.24300  1.0000
  O   O4        1.0  0.23700  0.09290  0.75700  1.0000
  O   O5        1.0  0.90700  0.38700  0.75700  1.0000
  O   O6        1.0  0.61300  0.76300  0.75700  1.0000
  Sn  Sn1       1.0  0.00000  0.00000  0.00000  1.0000
