data_image0
_chemical_formula_structural       Li7O6Pd
_chemical_formula_sum              "Li7 O6 Pd1"
_cell_length_a       5.51977
_cell_length_b       5.51955
_cell_length_c       5.68359
_cell_angle_alpha    60.9518
_cell_angle_beta     119.064
_cell_angle_gamma    120.016

_space_group_name_H-M_alt    "P 1"
_space_group_IT_number       1

loop_
  _space_group_symop_operation_xyz
  'x, y, z'

loop_
  _atom_site_type_symbol
  _atom_site_label
  _atom_site_symmetry_multiplicity
  _atom_site_fract_x
  _atom_site_fract_y
  _atom_site_fract_z
  _atom_site_occupancy
  Li  Li1       1.0  0.34200  0.65800  0.02610  1.0000
  Li  Li2       1.0  0.76600  0.50000  0.32400  1.0000
  Li  Li3       1.0  0.50000  0.94200  0.32400  1.0000
  Li  Li4       1.0  0.05830  0.23400  0.32400  1.0000
  Li  Li5       1.0  0.87600  0.72600  0.66900  1.0000
  Li  Li6       1.0  0.51900  0.12400  0.67000  1.0000
  Li  Li7       1.0  0.27400  0.48100  0.67000  1.0000
  O   O1        1.0  0.75900  0.88400  0.24300  1.0000
  O   O2        1.0  0.11600  0.63300  0.24300  1.0000
  O   O3        1.0  0.36700  0.24100  0.24300  1.0000
  O   O4        1.0  0.61700  0.79100  0.75200  1.0000
  O   O5        1.0  0.20900  0.07380  0.75200  1.0000
  O   O6        1.0  0.92600  0.38300  0.75200  1.0000
  Pd  Pd1       1.0  1.00000  0.00050  0.99900  1.0000
