data_image0
_chemical_formula_structural       EuLi7O6
_chemical_formula_sum              "Eu1 Li7 O6"
_cell_length_a       5.68745
_cell_length_b       5.68715
_cell_length_c       6.15803
_cell_angle_alpha    62.4988
_cell_angle_beta     117.504
_cell_angle_gamma    120

_space_group_name_H-M_alt    "P 1"
_space_group_IT_number       1

loop_
  _space_group_symop_operation_xyz
  'x, y, z'

loop_
  _atom_site_type_symbol
  _atom_site_label
  _atom_site_symmetry_multiplicity
  _atom_site_fract_x
  _atom_site_fract_y
  _atom_site_fract_z
  _atom_site_occupancy
  Eu  Eu1       1.0  0.00000  0.00032  0.99900  1.0000
  Li  Li1       1.0  0.34600  0.65400  0.03920  1.0000
  Li  Li2       1.0  0.49500  0.93400  0.34800  1.0000
  Li  Li3       1.0  0.78700  0.50500  0.34800  1.0000
  Li  Li4       1.0  0.06580  0.21300  0.34800  1.0000
  Li  Li5       1.0  0.86200  0.73800  0.64900  1.0000
  Li  Li6       1.0  0.52500  0.13800  0.64900  1.0000
  Li  Li7       1.0  0.26200  0.47500  0.64900  1.0000
  O   O1        1.0  0.39000  0.25900  0.26400  1.0000
  O   O2        1.0  0.74100  0.86600  0.26400  1.0000
  O   O3        1.0  0.13400  0.61000  0.26400  1.0000
  O   O4        1.0  0.58600  0.79700  0.72200  1.0000
  O   O5        1.0  0.93200  0.41400  0.72200  1.0000
  O   O6        1.0  0.20400  0.06760  0.72200  1.0000
