data_image0
_chemical_formula_structural       BLi7O6
_chemical_formula_sum              "B1 Li7 O6"
_cell_length_a       5.26266
_cell_length_b       5.25374
_cell_length_c       5.87298
_cell_angle_alpha    63.4478
_cell_angle_beta     116.631
_cell_angle_gamma    119.96

_space_group_name_H-M_alt    "P 1"
_space_group_IT_number       1

loop_
  _space_group_symop_operation_xyz
  'x, y, z'

loop_
  _atom_site_type_symbol
  _atom_site_label
  _atom_site_symmetry_multiplicity
  _atom_site_fract_x
  _atom_site_fract_y
  _atom_site_fract_z
  _atom_site_occupancy
  B   B1        1.0  0.94300  0.05670  0.82800  1.0000
  Li  Li1       1.0  0.34600  0.65200  0.04370  1.0000
  Li  Li2       1.0  0.78900  0.58600  0.21900  1.0000
  Li  Li3       1.0  0.01820  0.21000  0.22200  1.0000
  Li  Li4       1.0  0.41500  0.98200  0.22300  1.0000
  Li  Li5       1.0  0.86800  0.69200  0.67500  1.0000
  Li  Li6       1.0  0.30700  0.49900  0.67700  1.0000
  Li  Li7       1.0  0.50100  0.13100  0.67700  1.0000
  O   O1        1.0  0.71500  0.83600  0.31400  1.0000
  O   O2        1.0  0.16400  0.56400  0.31600  1.0000
  O   O3        1.0  0.43700  0.28700  0.31600  1.0000
  O   O4        1.0  0.66900  0.80200  0.82500  1.0000
  O   O5        1.0  0.19900  0.04020  0.82700  1.0000
  O   O6        1.0  0.96000  0.33100  0.82800  1.0000
