data_image0
_chemical_formula_structural       Li7O6Te
_chemical_formula_sum              "Li7 O6 Te1"
_cell_length_a       5.61606
_cell_length_b       5.61565
_cell_length_c       5.94638
_cell_angle_alpha    61.8217
_cell_angle_beta     118.181
_cell_angle_gamma    120.001

_space_group_name_H-M_alt    "P 1"
_space_group_IT_number       1

loop_
  _space_group_symop_operation_xyz
  'x, y, z'

loop_
  _atom_site_type_symbol
  _atom_site_label
  _atom_site_symmetry_multiplicity
  _atom_site_fract_x
  _atom_site_fract_y
  _atom_site_fract_z
  _atom_site_occupancy
  Li  Li1       1.0  0.34900  0.65100  0.04610  1.0000
  Li  Li2       1.0  0.77100  0.49300  0.34200  1.0000
  Li  Li3       1.0  0.50700  0.93700  0.34200  1.0000
  Li  Li4       1.0  0.06340  0.22900  0.34200  1.0000
  Li  Li5       1.0  0.87600  0.72700  0.65100  1.0000
  Li  Li6       1.0  0.27300  0.49800  0.65100  1.0000
  Li  Li7       1.0  0.50200  0.12400  0.65100  1.0000
  O   O1        1.0  0.75700  0.87900  0.24600  1.0000
  O   O2        1.0  0.12100  0.63300  0.24600  1.0000
  O   O3        1.0  0.36700  0.24300  0.24600  1.0000
  O   O4        1.0  0.62000  0.79900  0.74400  1.0000
  O   O5        1.0  0.92400  0.38000  0.74400  1.0000
  O   O6        1.0  0.20100  0.07630  0.74400  1.0000
  Te  Te1       1.0  0.99700  0.00276  0.99200  1.0000
