data_image0
_chemical_formula_structural       Li7NaO6
_chemical_formula_sum              "Li7 Na1 O6"
_cell_length_a       5.97356
_cell_length_b       5.97363
_cell_length_c       5.32204
_cell_angle_alpha    55.8302
_cell_angle_beta     124.13
_cell_angle_gamma    120.009

_space_group_name_H-M_alt    "P 1"
_space_group_IT_number       1

loop_
  _space_group_symop_operation_xyz
  'x, y, z'

loop_
  _atom_site_type_symbol
  _atom_site_label
  _atom_site_symmetry_multiplicity
  _atom_site_fract_x
  _atom_site_fract_y
  _atom_site_fract_z
  _atom_site_occupancy
  Li  Li1       1.0  0.46000  0.94700  0.27700  1.0000
  Li  Li2       1.0  0.76500  0.54000  0.27800  1.0000
  Li  Li3       1.0  0.05260  0.23500  0.27800  1.0000
  Li  Li4       1.0  0.28300  0.43100  0.72100  1.0000
  Li  Li5       1.0  0.86900  0.71700  0.72100  1.0000
  Li  Li6       1.0  0.56900  0.13100  0.72100  1.0000
  Li  Li7       1.0  0.33200  0.66800  0.99600  1.0000
  Na  Na1       1.0  0.00271  0.99700  0.00818  1.0000
  O   O1        1.0  0.72700  0.89200  0.23800  1.0000
  O   O2        1.0  0.40300  0.27300  0.23800  1.0000
  O   O3        1.0  0.10800  0.59700  0.23800  1.0000
  O   O4        1.0  0.57400  0.76700  0.75900  1.0000
  O   O5        1.0  0.23300  0.04840  0.75900  1.0000
  O   O6        1.0  0.95200  0.42600  0.75900  1.0000
