data_image0
_chemical_formula_structural       Li7O6Ru
_chemical_formula_sum              "Li7 O6 Ru1"
_cell_length_a       5.48605
_cell_length_b       5.48559
_cell_length_c       5.70668
_cell_angle_alpha    61.273
_cell_angle_beta     118.731
_cell_angle_gamma    120.002

_space_group_name_H-M_alt    "P 1"
_space_group_IT_number       1

loop_
  _space_group_symop_operation_xyz
  'x, y, z'

loop_
  _atom_site_type_symbol
  _atom_site_label
  _atom_site_symmetry_multiplicity
  _atom_site_fract_x
  _atom_site_fract_y
  _atom_site_fract_z
  _atom_site_occupancy
  Li  Li1       1.0  0.34300  0.65700  0.02880  1.0000
  Li  Li2       1.0  0.76500  0.49600  0.33100  1.0000
  Li  Li3       1.0  0.50400  0.93800  0.33100  1.0000
  Li  Li4       1.0  0.06250  0.23500  0.33100  1.0000
  Li  Li5       1.0  0.87700  0.72700  0.66300  1.0000
  Li  Li6       1.0  0.27300  0.48700  0.66300  1.0000
  Li  Li7       1.0  0.51300  0.12300  0.66300  1.0000
  O   O1        1.0  0.76400  0.88600  0.24000  1.0000
  O   O2        1.0  0.11400  0.63800  0.24000  1.0000
  O   O3        1.0  0.36200  0.23600  0.24000  1.0000
  O   O4        1.0  0.62200  0.79400  0.75400  1.0000
  O   O5        1.0  0.92500  0.37800  0.75400  1.0000
  O   O6        1.0  0.20600  0.07460  0.75400  1.0000
  Ru  Ru1       1.0  0.99900  0.00100  0.99700  1.0000
