data_image0
_chemical_formula_structural       CoLi7O6
_chemical_formula_sum              "Co1 Li7 O6"
_cell_length_a       5.43173
_cell_length_b       5.43765
_cell_length_c       5.53368
_cell_angle_alpha    60.6652
_cell_angle_beta     119.335
_cell_angle_gamma    120.007

_space_group_name_H-M_alt    "P 1"
_space_group_IT_number       1

loop_
  _space_group_symop_operation_xyz
  'x, y, z'

loop_
  _atom_site_type_symbol
  _atom_site_label
  _atom_site_symmetry_multiplicity
  _atom_site_fract_x
  _atom_site_fract_y
  _atom_site_fract_z
  _atom_site_occupancy
  Co  Co1       1.0  0.99900  0.00149  0.99700  1.0000
  Li  Li1       1.0  0.34200  0.65700  0.02630  1.0000
  Li  Li2       1.0  0.76300  0.49800  0.31700  1.0000
  Li  Li3       1.0  0.05280  0.23800  0.31700  1.0000
  Li  Li4       1.0  0.50200  0.94700  0.31800  1.0000
  Li  Li5       1.0  0.27800  0.48400  0.67500  1.0000
  Li  Li6       1.0  0.51700  0.11900  0.67500  1.0000
  Li  Li7       1.0  0.88100  0.72100  0.67600  1.0000
  O   O1        1.0  0.35000  0.23200  0.23300  1.0000
  O   O2        1.0  0.76800  0.88500  0.23300  1.0000
  O   O3        1.0  0.11600  0.65000  0.23400  1.0000
  O   O4        1.0  0.92700  0.36600  0.76200  1.0000
  O   O5        1.0  0.20100  0.07310  0.76300  1.0000
  O   O6        1.0  0.63400  0.79900  0.76300  1.0000
