data_image0
_chemical_formula_structural       AuLi7O6
_chemical_formula_sum              "Au1 Li7 O6"
_cell_length_a       5.54118
_cell_length_b       5.54084
_cell_length_c       5.7713
_cell_angle_alpha    61.3124
_cell_angle_beta     118.69
_cell_angle_gamma    119.999

_space_group_name_H-M_alt    "P 1"
_space_group_IT_number       1

loop_
  _space_group_symop_operation_xyz
  'x, y, z'

loop_
  _atom_site_type_symbol
  _atom_site_label
  _atom_site_symmetry_multiplicity
  _atom_site_fract_x
  _atom_site_fract_y
  _atom_site_fract_z
  _atom_site_occupancy
  Au  Au1       1.0  0.00000  0.00045  0.99900  1.0000
  Li  Li1       1.0  0.34400  0.65500  0.03340  1.0000
  Li  Li2       1.0  0.76900  0.49500  0.33200  1.0000
  Li  Li3       1.0  0.50500  0.94300  0.33200  1.0000
  Li  Li4       1.0  0.05720  0.23100  0.33200  1.0000
  Li  Li5       1.0  0.87800  0.72700  0.66400  1.0000
  Li  Li6       1.0  0.27300  0.48700  0.66400  1.0000
  Li  Li7       1.0  0.51300  0.12200  0.66400  1.0000
  O   O1        1.0  0.75800  0.87900  0.24500  1.0000
  O   O2        1.0  0.12100  0.63500  0.24500  1.0000
  O   O3        1.0  0.36500  0.24200  0.24500  1.0000
  O   O4        1.0  0.92200  0.38200  0.74500  1.0000
  O   O5        1.0  0.61800  0.79400  0.74500  1.0000
  O   O6        1.0  0.20600  0.07830  0.74500  1.0000
