data_image0
_chemical_formula_structural       ErLi7O6
_chemical_formula_sum              "Er1 Li7 O6"
_cell_length_a       5.62799
_cell_length_b       5.6278
_cell_length_c       6.08284
_cell_angle_alpha    62.4359
_cell_angle_beta     117.574
_cell_angle_gamma    120.001

_space_group_name_H-M_alt    "P 1"
_space_group_IT_number       1

loop_
  _space_group_symop_operation_xyz
  'x, y, z'

loop_
  _atom_site_type_symbol
  _atom_site_label
  _atom_site_symmetry_multiplicity
  _atom_site_fract_x
  _atom_site_fract_y
  _atom_site_fract_z
  _atom_site_occupancy
  Er  Er1       1.0  0.00000  0.00038  0.99900  1.0000
  Li  Li1       1.0  0.34800  0.65200  0.04420  1.0000
  Li  Li2       1.0  0.07080  0.22300  0.35000  1.0000
  Li  Li3       1.0  0.77800  0.49800  0.35000  1.0000
  Li  Li4       1.0  0.50200  0.92900  0.35000  1.0000
  Li  Li5       1.0  0.51200  0.13200  0.64500  1.0000
  Li  Li6       1.0  0.26600  0.48800  0.64500  1.0000
  Li  Li7       1.0  0.86800  0.73400  0.64500  1.0000
  O   O1        1.0  0.75100  0.87800  0.25600  1.0000
  O   O2        1.0  0.12200  0.61800  0.25600  1.0000
  O   O3        1.0  0.38200  0.24900  0.25600  1.0000
  O   O4        1.0  0.59700  0.79400  0.73100  1.0000
  O   O5        1.0  0.92900  0.40300  0.73100  1.0000
  O   O6        1.0  0.20600  0.07140  0.73100  1.0000
