data_image0
_chemical_formula_structural       Li7O6Tb
_chemical_formula_sum              "Li7 O6 Tb1"
_cell_length_a       5.63806
_cell_length_b       5.63811
_cell_length_c       6.12857
_cell_angle_alpha    62.6205
_cell_angle_beta     117.38
_cell_angle_gamma    119.997

_space_group_name_H-M_alt    "P 1"
_space_group_IT_number       1

loop_
  _space_group_symop_operation_xyz
  'x, y, z'

loop_
  _atom_site_type_symbol
  _atom_site_label
  _atom_site_symmetry_multiplicity
  _atom_site_fract_x
  _atom_site_fract_y
  _atom_site_fract_z
  _atom_site_occupancy
  Li  Li1       1.0  0.34900  0.65100  0.04600  1.0000
  Li  Li2       1.0  0.50200  0.92900  0.35300  1.0000
  Li  Li3       1.0  0.78000  0.49800  0.35300  1.0000
  Li  Li4       1.0  0.07120  0.22000  0.35300  1.0000
  Li  Li5       1.0  0.51200  0.13300  0.64200  1.0000
  Li  Li6       1.0  0.86700  0.73700  0.64300  1.0000
  Li  Li7       1.0  0.26300  0.48800  0.64300  1.0000
  O   O1        1.0  0.74800  0.87300  0.25900  1.0000
  O   O2        1.0  0.12700  0.61500  0.25900  1.0000
  O   O3        1.0  0.38500  0.25200  0.25900  1.0000
  O   O4        1.0  0.59500  0.79500  0.72700  1.0000
  O   O5        1.0  0.92700  0.40500  0.72700  1.0000
  O   O6        1.0  0.20500  0.07280  0.72700  1.0000
  Tb  Tb1       1.0  0.99900  0.00107  0.99700  1.0000
