data_image0
_chemical_formula_structural       BaLi7O6
_chemical_formula_sum              "Ba1 Li7 O6"
_cell_length_a       5.76268
_cell_length_b       5.76518
_cell_length_c       6.6334
_cell_angle_alpha    64.1717
_cell_angle_beta     115.616
_cell_angle_gamma    119.912

_space_group_name_H-M_alt    "P 1"
_space_group_IT_number       1

loop_
  _space_group_symop_operation_xyz
  'x, y, z'

loop_
  _atom_site_type_symbol
  _atom_site_label
  _atom_site_symmetry_multiplicity
  _atom_site_fract_x
  _atom_site_fract_y
  _atom_site_fract_z
  _atom_site_occupancy
  Ba  Ba1       1.0  0.99500  0.00551  0.98500  1.0000
  Li  Li1       1.0  0.38100  0.62100  0.13900  1.0000
  Li  Li2       1.0  0.49200  0.93200  0.35700  1.0000
  Li  Li3       1.0  0.06660  0.20100  0.35800  1.0000
  Li  Li4       1.0  0.79800  0.50800  0.35800  1.0000
  Li  Li5       1.0  0.86600  0.75100  0.62800  1.0000
  Li  Li6       1.0  0.24800  0.48600  0.62800  1.0000
  Li  Li7       1.0  0.51400  0.13600  0.62800  1.0000
  O   O1        1.0  0.40200  0.25900  0.28000  1.0000
  O   O2        1.0  0.74100  0.86400  0.28000  1.0000
  O   O3        1.0  0.13700  0.59800  0.28000  1.0000
  O   O4        1.0  0.90600  0.42000  0.68900  1.0000
  O   O5        1.0  0.20300  0.09330  0.68900  1.0000
  O   O6        1.0  0.58000  0.79700  0.69000  1.0000
