data_image0
_chemical_formula_structural       Li7O6Tc
_chemical_formula_sum              "Li7 O6 Tc1"
_cell_length_a       5.48637
_cell_length_b       5.48595
_cell_length_c       5.72669
_cell_angle_alpha    61.3817
_cell_angle_beta     118.621
_cell_angle_gamma    120.001

_space_group_name_H-M_alt    "P 1"
_space_group_IT_number       1

loop_
  _space_group_symop_operation_xyz
  'x, y, z'

loop_
  _atom_site_type_symbol
  _atom_site_label
  _atom_site_symmetry_multiplicity
  _atom_site_fract_x
  _atom_site_fract_y
  _atom_site_fract_z
  _atom_site_occupancy
  Li  Li1       1.0  0.34300  0.65700  0.02810  1.0000
  Li  Li2       1.0  0.50500  0.93600  0.33300  1.0000
  Li  Li3       1.0  0.76400  0.49500  0.33300  1.0000
  Li  Li4       1.0  0.06430  0.23600  0.33300  1.0000
  Li  Li5       1.0  0.87600  0.72700  0.66000  1.0000
  Li  Li6       1.0  0.27300  0.48900  0.66000  1.0000
  Li  Li7       1.0  0.51100  0.12400  0.66000  1.0000
  O   O1        1.0  0.76500  0.88700  0.24000  1.0000
  O   O2        1.0  0.11300  0.63800  0.24000  1.0000
  O   O3        1.0  0.36200  0.23500  0.24000  1.0000
  O   O4        1.0  0.62200  0.79400  0.75500  1.0000
  O   O5        1.0  0.92600  0.37800  0.75500  1.0000
  O   O6        1.0  0.20600  0.07380  0.75500  1.0000
  Tc  Tc1       1.0  0.99900  0.00104  0.99700  1.0000
