data_image0
_chemical_formula_structural       CeLi7O6
_chemical_formula_sum              "Ce1 Li7 O6"
_cell_length_a       5.69605
_cell_length_b       5.69552
_cell_length_c       6.28156
_cell_angle_alpha    63.0401
_cell_angle_beta     116.966
_cell_angle_gamma    120.002

_space_group_name_H-M_alt    "P 1"
_space_group_IT_number       1

loop_
  _space_group_symop_operation_xyz
  'x, y, z'

loop_
  _atom_site_type_symbol
  _atom_site_label
  _atom_site_symmetry_multiplicity
  _atom_site_fract_x
  _atom_site_fract_y
  _atom_site_fract_z
  _atom_site_occupancy
  Ce  Ce1       1.0  0.99800  0.00217  0.99300  1.0000
  Li  Li1       1.0  0.35300  0.64700  0.05770  1.0000
  Li  Li2       1.0  0.50200  0.92800  0.35900  1.0000
  Li  Li3       1.0  0.78500  0.49800  0.35900  1.0000
  Li  Li4       1.0  0.07200  0.21500  0.35900  1.0000
  Li  Li5       1.0  0.86700  0.74100  0.63700  1.0000
  Li  Li6       1.0  0.25900  0.48900  0.63700  1.0000
  Li  Li7       1.0  0.51100  0.13300  0.63700  1.0000
  O   O1        1.0  0.74100  0.86600  0.26600  1.0000
  O   O2        1.0  0.39100  0.25900  0.26600  1.0000
  O   O3        1.0  0.13400  0.60900  0.26600  1.0000
  O   O4        1.0  0.58600  0.79300  0.71700  1.0000
  O   O5        1.0  0.92400  0.41400  0.71700  1.0000
  O   O6        1.0  0.20700  0.07580  0.71800  1.0000
