data_image0
_chemical_formula_structural       Li7O6Pm
_chemical_formula_sum              "Li7 O6 Pm1"
_cell_length_a       5.66435
_cell_length_b       5.66393
_cell_length_c       6.20635
_cell_angle_alpha    62.8504
_cell_angle_beta     117.151
_cell_angle_gamma    119.999

_space_group_name_H-M_alt    "P 1"
_space_group_IT_number       1

loop_
  _space_group_symop_operation_xyz
  'x, y, z'

loop_
  _atom_site_type_symbol
  _atom_site_label
  _atom_site_symmetry_multiplicity
  _atom_site_fract_x
  _atom_site_fract_y
  _atom_site_fract_z
  _atom_site_occupancy
  Li  Li1       1.0  0.35000  0.65000  0.05140  1.0000
  Li  Li2       1.0  0.50300  0.92900  0.35600  1.0000
  Li  Li3       1.0  0.78200  0.49700  0.35600  1.0000
  Li  Li4       1.0  0.07100  0.21800  0.35600  1.0000
  Li  Li5       1.0  0.86700  0.73900  0.64000  1.0000
  Li  Li6       1.0  0.26100  0.48800  0.64000  1.0000
  Li  Li7       1.0  0.51200  0.13300  0.64000  1.0000
  O   O1        1.0  0.74400  0.86800  0.26300  1.0000
  O   O2        1.0  0.13200  0.61300  0.26300  1.0000
  O   O3        1.0  0.38700  0.25600  0.26300  1.0000
  O   O4        1.0  0.59000  0.79300  0.72200  1.0000
  O   O5        1.0  0.92500  0.41000  0.72200  1.0000
  O   O6        1.0  0.20700  0.07470  0.72200  1.0000
  Pm  Pm1       1.0  0.99800  0.00157  0.99500  1.0000
