data_image0
_chemical_formula_structural       Ca2Gd2O2Se2
_chemical_formula_sum              "Ca2 Gd2 O2 Se2"
_cell_length_a       4.53193
_cell_length_b       4.53193
_cell_length_c       11.1872
_cell_angle_alpha    78.3139
_cell_angle_beta     101.686
_cell_angle_gamma    120

_space_group_name_H-M_alt    "P 1"
_space_group_IT_number       1

loop_
  _space_group_symop_operation_xyz
  'x, y, z'

loop_
  _atom_site_type_symbol
  _atom_site_label
  _atom_site_symmetry_multiplicity
  _atom_site_fract_x
  _atom_site_fract_y
  _atom_site_fract_z
  _atom_site_occupancy
  Ca  Ca1       1.0  0.36500  0.63500  0.09550  1.0000
  Ca  Ca2       1.0  0.63500  0.36500  0.90400  1.0000
  Gd  Gd1       1.0  0.79400  0.20600  0.38200  1.0000
  Gd  Gd2       1.0  0.20600  0.79400  0.61800  1.0000
  O   O1        1.0  0.70200  0.29800  0.10600  1.0000
  O   O2        1.0  0.29800  0.70200  0.89400  1.0000
  Se  Se1       1.0  0.10500  0.89500  0.31500  1.0000
  Se  Se2       1.0  0.89500  0.10500  0.68500  1.0000
