data_image0
_chemical_formula_structural       Li7MnO6
_chemical_formula_sum              "Li7 Mn1 O6"
_cell_length_a       5.46174
_cell_length_b       5.46139
_cell_length_c       5.58636
_cell_angle_alpha    60.737
_cell_angle_beta     119.265
_cell_angle_gamma    120

_space_group_name_H-M_alt    "P 1"
_space_group_IT_number       1

loop_
  _space_group_symop_operation_xyz
  'x, y, z'

loop_
  _atom_site_type_symbol
  _atom_site_label
  _atom_site_symmetry_multiplicity
  _atom_site_fract_x
  _atom_site_fract_y
  _atom_site_fract_z
  _atom_site_occupancy
  Li  Li1       1.0  0.34100  0.65900  0.02360  1.0000
  Li  Li2       1.0  0.76000  0.49600  0.32200  1.0000
  Li  Li3       1.0  0.50400  0.94200  0.32200  1.0000
  Li  Li4       1.0  0.05770  0.24000  0.32200  1.0000
  Li  Li5       1.0  0.87600  0.72000  0.67200  1.0000
  Li  Li6       1.0  0.28000  0.48400  0.67200  1.0000
  Li  Li7       1.0  0.51600  0.12400  0.67200  1.0000
  Mn  Mn1       1.0  0.00000  0.00038  0.99900  1.0000
  O   O1        1.0  0.76700  0.88800  0.23500  1.0000
  O   O2        1.0  0.11100  0.64300  0.23500  1.0000
  O   O3        1.0  0.35700  0.23300  0.23500  1.0000
  O   O4        1.0  0.62600  0.79600  0.76000  1.0000
  O   O5        1.0  0.93000  0.37400  0.76000  1.0000
  O   O6        1.0  0.20400  0.06960  0.76000  1.0000
