data_image0
_chemical_formula_structural       Li7O6Yb
_chemical_formula_sum              "Li7 O6 Yb1"
_cell_length_a       5.62964
_cell_length_b       5.6303
_cell_length_c       6.03006
_cell_angle_alpha    62.1609
_cell_angle_beta     117.833
_cell_angle_gamma    119.998

_space_group_name_H-M_alt    "P 1"
_space_group_IT_number       1

loop_
  _space_group_symop_operation_xyz
  'x, y, z'

loop_
  _atom_site_type_symbol
  _atom_site_label
  _atom_site_symmetry_multiplicity
  _atom_site_fract_x
  _atom_site_fract_y
  _atom_site_fract_z
  _atom_site_occupancy
  Li  Li1       1.0  0.34200  0.65800  0.02580  1.0000
  Li  Li2       1.0  0.06860  0.21800  0.34300  1.0000
  Li  Li3       1.0  0.49200  0.93100  0.34400  1.0000
  Li  Li4       1.0  0.78300  0.50800  0.34400  1.0000
  Li  Li5       1.0  0.26500  0.47300  0.65400  1.0000
  Li  Li6       1.0  0.86200  0.73500  0.65400  1.0000
  Li  Li7       1.0  0.52700  0.13800  0.65400  1.0000
  O   O1        1.0  0.74300  0.87100  0.26100  1.0000
  O   O2        1.0  0.12900  0.61200  0.26100  1.0000
  O   O3        1.0  0.38800  0.25700  0.26100  1.0000
  O   O4        1.0  0.20700  0.06650  0.72900  1.0000
  O   O5        1.0  0.93400  0.41100  0.72900  1.0000
  O   O6        1.0  0.58900  0.79300  0.72900  1.0000
  Yb  Yb1       1.0  0.00000  0.00000  0.00000  1.0000
