data_image0
_chemical_formula_structural       Li7NbO6
_chemical_formula_sum              "Li7 Nb1 O6"
_cell_length_a       5.51546
_cell_length_b       5.51496
_cell_length_c       5.81891
_cell_angle_alpha    61.712
_cell_angle_beta     118.292
_cell_angle_gamma    120.001

_space_group_name_H-M_alt    "P 1"
_space_group_IT_number       1

loop_
  _space_group_symop_operation_xyz
  'x, y, z'

loop_
  _atom_site_type_symbol
  _atom_site_label
  _atom_site_symmetry_multiplicity
  _atom_site_fract_x
  _atom_site_fract_y
  _atom_site_fract_z
  _atom_site_occupancy
  Li  Li1       1.0  0.34400  0.65600  0.03160  1.0000
  Li  Li2       1.0  0.50900  0.93200  0.34200  1.0000
  Li  Li3       1.0  0.76600  0.49100  0.34200  1.0000
  Li  Li4       1.0  0.06820  0.23400  0.34200  1.0000
  Li  Li5       1.0  0.87500  0.72900  0.65100  1.0000
  Li  Li6       1.0  0.27100  0.49500  0.65100  1.0000
  Li  Li7       1.0  0.50500  0.12500  0.65100  1.0000
  Nb  Nb1       1.0  0.99800  0.00163  0.99500  1.0000
  O   O1        1.0  0.76400  0.88500  0.24200  1.0000
  O   O2        1.0  0.11500  0.63700  0.24200  1.0000
  O   O3        1.0  0.36300  0.23600  0.24200  1.0000
  O   O4        1.0  0.61900  0.79500  0.75200  1.0000
  O   O5        1.0  0.92800  0.38100  0.75200  1.0000
  O   O6        1.0  0.20500  0.07190  0.75200  1.0000
