data_image0
_chemical_formula_structural       Cu4Mn4O4Se4
_chemical_formula_sum              "Cu4 Mn4 O4 Se4"
_cell_length_a       5.77284
_cell_length_b       3.4405
_cell_length_c       12.2709
_cell_angle_alpha    90
_cell_angle_beta     90
_cell_angle_gamma    90

_space_group_name_H-M_alt    "P 1"
_space_group_IT_number       1

loop_
  _space_group_symop_operation_xyz
  'x, y, z'

loop_
  _atom_site_type_symbol
  _atom_site_label
  _atom_site_symmetry_multiplicity
  _atom_site_fract_x
  _atom_site_fract_y
  _atom_site_fract_z
  _atom_site_occupancy
  Cu  Cu1       1.0  0.53100  0.25000  0.24500  1.0000
  Cu  Cu2       1.0  0.03070  0.25000  0.25500  1.0000
  Cu  Cu3       1.0  0.96900  0.75000  0.74500  1.0000
  Cu  Cu4       1.0  0.46900  0.75000  0.75500  1.0000
  Mn  Mn1       1.0  0.25000  0.75000  0.05910  1.0000
  Mn  Mn2       1.0  0.75000  0.75000  0.44100  1.0000
  Mn  Mn3       1.0  0.25000  0.25000  0.55900  1.0000
  Mn  Mn4       1.0  0.75000  0.25000  0.94100  1.0000
  O   O1        1.0  0.27200  0.25000  0.15200  1.0000
  O   O2        1.0  0.77200  0.25000  0.34800  1.0000
  O   O3        1.0  0.22800  0.75000  0.65200  1.0000
  O   O4        1.0  0.72800  0.75000  0.84800  1.0000
  Se  Se1       1.0  0.76600  0.75000  0.10400  1.0000
  Se  Se2       1.0  0.26600  0.75000  0.39600  1.0000
  Se  Se3       1.0  0.73400  0.25000  0.60400  1.0000
  Se  Se4       1.0  0.23400  0.25000  0.89600  1.0000
