data_image0
_chemical_formula_structural       Be8Fe8O8Se8
_chemical_formula_sum              "Be8 Fe8 O8 Se8"
_cell_length_a       7.05374
_cell_length_b       12.0078
_cell_length_c       5.1473
_cell_angle_alpha    90
_cell_angle_beta     90
_cell_angle_gamma    90

_space_group_name_H-M_alt    "P 1"
_space_group_IT_number       1

loop_
  _space_group_symop_operation_xyz
  'x, y, z'

loop_
  _atom_site_type_symbol
  _atom_site_label
  _atom_site_symmetry_multiplicity
  _atom_site_fract_x
  _atom_site_fract_y
  _atom_site_fract_z
  _atom_site_occupancy
  Be  Be1       1.0  0.12800  0.19900  0.12100  1.0000
  Be  Be2       1.0  0.37200  0.69900  0.12100  1.0000
  Be  Be3       1.0  0.62800  0.19900  0.37900  1.0000
  Be  Be4       1.0  0.87200  0.69900  0.37900  1.0000
  Be  Be5       1.0  0.12800  0.30100  0.62100  1.0000
  Be  Be6       1.0  0.37200  0.80100  0.62100  1.0000
  Be  Be7       1.0  0.62800  0.30100  0.87900  1.0000
  Be  Be8       1.0  0.87200  0.80100  0.87900  1.0000
  Fe  Fe1       1.0  0.87900  0.40200  0.24400  1.0000
  Fe  Fe2       1.0  0.62100  0.90200  0.24400  1.0000
  Fe  Fe3       1.0  0.37900  0.40200  0.25600  1.0000
  Fe  Fe4       1.0  0.12100  0.90200  0.25600  1.0000
  Fe  Fe5       1.0  0.87900  0.09820  0.74400  1.0000
  Fe  Fe6       1.0  0.62100  0.59800  0.74400  1.0000
  Fe  Fe7       1.0  0.37900  0.09820  0.75600  1.0000
  Fe  Fe8       1.0  0.12100  0.59800  0.75600  1.0000
  O   O1        1.0  0.63000  0.30300  0.19200  1.0000
  O   O2        1.0  0.87000  0.80300  0.19200  1.0000
  O   O3        1.0  0.13000  0.30300  0.30800  1.0000
  O   O4        1.0  0.37000  0.80300  0.30800  1.0000
  O   O5        1.0  0.63000  0.19700  0.69200  1.0000
  O   O6        1.0  0.87000  0.69700  0.69200  1.0000
  O   O7        1.0  0.13000  0.19700  0.80800  1.0000
  O   O8        1.0  0.37000  0.69700  0.80800  1.0000
  Se  Se1       1.0  0.87700  0.08170  0.24400  1.0000
  Se  Se2       1.0  0.62300  0.58200  0.24400  1.0000
  Se  Se3       1.0  0.37700  0.08170  0.25600  1.0000
  Se  Se4       1.0  0.12300  0.58200  0.25600  1.0000
  Se  Se5       1.0  0.87700  0.41800  0.74400  1.0000
  Se  Se6       1.0  0.62300  0.91800  0.74400  1.0000
  Se  Se7       1.0  0.37700  0.41800  0.75600  1.0000
  Se  Se8       1.0  0.12300  0.91800  0.75600  1.0000
