data_image0
_chemical_formula_structural       Li7O6Tl
_chemical_formula_sum              "Li7 O6 Tl1"
_cell_length_a       5.64014
_cell_length_b       5.6389
_cell_length_c       6.00911
_cell_angle_alpha    62.0103
_cell_angle_beta     117.994
_cell_angle_gamma    120.005

_space_group_name_H-M_alt    "P 1"
_space_group_IT_number       1

loop_
  _space_group_symop_operation_xyz
  'x, y, z'

loop_
  _atom_site_type_symbol
  _atom_site_label
  _atom_site_symmetry_multiplicity
  _atom_site_fract_x
  _atom_site_fract_y
  _atom_site_fract_z
  _atom_site_occupancy
  Li  Li1       1.0  0.34400  0.65600  0.03310  1.0000
  Li  Li2       1.0  0.49900  0.93700  0.34200  1.0000
  Li  Li3       1.0  0.06310  0.22000  0.34200  1.0000
  Li  Li4       1.0  0.78000  0.50100  0.34200  1.0000
  Li  Li5       1.0  0.86800  0.73300  0.65700  1.0000
  Li  Li6       1.0  0.52100  0.13200  0.65700  1.0000
  Li  Li7       1.0  0.26700  0.47900  0.65700  1.0000
  O   O1        1.0  0.38000  0.25400  0.25700  1.0000
  O   O2        1.0  0.74600  0.86900  0.25700  1.0000
  O   O3        1.0  0.13100  0.62000  0.25700  1.0000
  O   O4        1.0  0.59600  0.79400  0.73000  1.0000
  O   O5        1.0  0.92800  0.40400  0.73000  1.0000
  O   O6        1.0  0.20600  0.07160  0.73000  1.0000
  Tl  Tl1       1.0  0.00000  0.00065  0.99900  1.0000
