data_image0
_chemical_formula_structural       FeLi7O6
_chemical_formula_sum              "Fe1 Li7 O6"
_cell_length_a       5.44004
_cell_length_b       5.43975
_cell_length_c       5.56833
_cell_angle_alpha    60.7603
_cell_angle_beta     119.242
_cell_angle_gamma    120.002

_space_group_name_H-M_alt    "P 1"
_space_group_IT_number       1

loop_
  _space_group_symop_operation_xyz
  'x, y, z'

loop_
  _atom_site_type_symbol
  _atom_site_label
  _atom_site_symmetry_multiplicity
  _atom_site_fract_x
  _atom_site_fract_y
  _atom_site_fract_z
  _atom_site_occupancy
  Fe  Fe1       1.0  0.99900  0.00116  0.99700  1.0000
  Li  Li1       1.0  0.34200  0.65700  0.02730  1.0000
  Li  Li2       1.0  0.50500  0.94500  0.32200  1.0000
  Li  Li3       1.0  0.76200  0.49500  0.32200  1.0000
  Li  Li4       1.0  0.05460  0.23800  0.32200  1.0000
  Li  Li5       1.0  0.88100  0.72200  0.67200  1.0000
  Li  Li6       1.0  0.27800  0.48700  0.67200  1.0000
  Li  Li7       1.0  0.51300  0.11900  0.67200  1.0000
  O   O1        1.0  0.76800  0.88500  0.23400  1.0000
  O   O2        1.0  0.11500  0.65000  0.23400  1.0000
  O   O3        1.0  0.35000  0.23100  0.23400  1.0000
  O   O4        1.0  0.63400  0.79900  0.76100  1.0000
  O   O5        1.0  0.92600  0.36600  0.76100  1.0000
  O   O6        1.0  0.20100  0.07450  0.76100  1.0000
