data_image0
_chemical_formula_structural       Li8O6Tm
_chemical_formula_sum              "Li8 O6 Tm1"
_cell_length_a       6.15132
_cell_length_b       6.15132
_cell_length_c       6.15132
_cell_angle_alpha    53.5013
_cell_angle_beta     53.5013
_cell_angle_gamma    53.5013

_space_group_name_H-M_alt    "P 1"
_space_group_IT_number       1

loop_
  _space_group_symop_operation_xyz
  'x, y, z'

loop_
  _atom_site_type_symbol
  _atom_site_label
  _atom_site_symmetry_multiplicity
  _atom_site_fract_x
  _atom_site_fract_y
  _atom_site_fract_z
  _atom_site_occupancy
  Li  Li1       1.0  0.77200  0.48900  0.10600  1.0000
  Li  Li2       1.0  0.51100  0.89400  0.22800  1.0000
  Li  Li3       1.0  0.34600  0.34600  0.34600  1.0000
  Li  Li4       1.0  0.10600  0.77200  0.48900  1.0000
  Li  Li5       1.0  0.89400  0.22800  0.51100  1.0000
  Li  Li6       1.0  0.65400  0.65400  0.65400  1.0000
  Li  Li7       1.0  0.48900  0.10600  0.77200  1.0000
  Li  Li8       1.0  0.22800  0.51100  0.89400  1.0000
  O   O1        1.0  0.39900  0.75800  0.09510  1.0000
  O   O2        1.0  0.90500  0.60100  0.24200  1.0000
  O   O3        1.0  0.75800  0.09510  0.39900  1.0000
  O   O4        1.0  0.24200  0.90500  0.60100  1.0000
  O   O5        1.0  0.09510  0.39900  0.75800  1.0000
  O   O6        1.0  0.60100  0.24200  0.90500  1.0000
  Tm  Tm1       1.0  0.00000  0.00000  0.00000  1.0000
