data_image0
_chemical_formula_structural       Li7O6Re
_chemical_formula_sum              "Li7 O6 Re1"
_cell_length_a       5.49039
_cell_length_b       5.48999
_cell_length_c       5.75089
_cell_angle_alpha    61.4917
_cell_angle_beta     118.511
_cell_angle_gamma    120

_space_group_name_H-M_alt    "P 1"
_space_group_IT_number       1

loop_
  _space_group_symop_operation_xyz
  'x, y, z'

loop_
  _atom_site_type_symbol
  _atom_site_label
  _atom_site_symmetry_multiplicity
  _atom_site_fract_x
  _atom_site_fract_y
  _atom_site_fract_z
  _atom_site_occupancy
  Li  Li1       1.0  0.34300  0.65600  0.03050  1.0000
  Li  Li2       1.0  0.50700  0.93500  0.33600  1.0000
  Li  Li3       1.0  0.76400  0.49300  0.33600  1.0000
  Li  Li4       1.0  0.06470  0.23600  0.33600  1.0000
  Li  Li5       1.0  0.87700  0.72600  0.65800  1.0000
  Li  Li6       1.0  0.27400  0.49200  0.65800  1.0000
  Li  Li7       1.0  0.50800  0.12300  0.65800  1.0000
  O   O1        1.0  0.76500  0.88800  0.24000  1.0000
  O   O2        1.0  0.11200  0.63700  0.24000  1.0000
  O   O3        1.0  0.36300  0.23500  0.24000  1.0000
  O   O4        1.0  0.62200  0.79300  0.75300  1.0000
  O   O5        1.0  0.92400  0.37800  0.75300  1.0000
  O   O6        1.0  0.20700  0.07570  0.75300  1.0000
  Re  Re1       1.0  0.99900  0.00103  0.99700  1.0000
