data_image0
_chemical_formula_structural       InLi7O6
_chemical_formula_sum              "In1 Li7 O6"
_cell_length_a       5.61488
_cell_length_b       5.61472
_cell_length_c       5.9157
_cell_angle_alpha    61.6734
_cell_angle_beta     118.33
_cell_angle_gamma    119.986

_space_group_name_H-M_alt    "P 1"
_space_group_IT_number       1

loop_
  _space_group_symop_operation_xyz
  'x, y, z'

loop_
  _atom_site_type_symbol
  _atom_site_label
  _atom_site_symmetry_multiplicity
  _atom_site_fract_x
  _atom_site_fract_y
  _atom_site_fract_z
  _atom_site_occupancy
  In  In1       1.0  0.00000  0.99900  0.00065  1.0000
  Li  Li1       1.0  0.34100  0.65900  0.02180  1.0000
  Li  Li2       1.0  0.77400  0.50100  0.33900  1.0000
  Li  Li3       1.0  0.49900  0.93400  0.33900  1.0000
  Li  Li4       1.0  0.06660  0.22600  0.34000  1.0000
  Li  Li5       1.0  0.86700  0.73000  0.65800  1.0000
  Li  Li6       1.0  0.52200  0.13400  0.65900  1.0000
  Li  Li7       1.0  0.27000  0.47800  0.65900  1.0000
  O   O1        1.0  0.37900  0.25000  0.25300  1.0000
  O   O2        1.0  0.12400  0.62000  0.25300  1.0000
  O   O3        1.0  0.75000  0.87600  0.25300  1.0000
  O   O4        1.0  0.93300  0.40200  0.73800  1.0000
  O   O5        1.0  0.59800  0.79300  0.73800  1.0000
  O   O6        1.0  0.20700  0.06710  0.73800  1.0000
