data_image0
_chemical_formula_structural       Li7LuO6
_chemical_formula_sum              "Li7 Lu1 O6"
_cell_length_a       5.61285
_cell_length_b       5.61255
_cell_length_c       6.02177
_cell_angle_alpha    62.2208
_cell_angle_beta     117.786
_cell_angle_gamma    120.007

_space_group_name_H-M_alt    "P 1"
_space_group_IT_number       1

loop_
  _space_group_symop_operation_xyz
  'x, y, z'

loop_
  _atom_site_type_symbol
  _atom_site_label
  _atom_site_symmetry_multiplicity
  _atom_site_fract_x
  _atom_site_fract_y
  _atom_site_fract_z
  _atom_site_occupancy
  Li  Li1       1.0  0.34600  0.65400  0.03750  1.0000
  Li  Li2       1.0  0.50200  0.93000  0.34800  1.0000
  Li  Li3       1.0  0.77500  0.49800  0.34800  1.0000
  Li  Li4       1.0  0.07050  0.22500  0.34800  1.0000
  Li  Li5       1.0  0.51300  0.13200  0.64700  1.0000
  Li  Li6       1.0  0.86800  0.73300  0.64700  1.0000
  Li  Li7       1.0  0.26700  0.48700  0.64700  1.0000
  Lu  Lu1       1.0  0.00000  0.00023  0.99900  1.0000
  O   O1        1.0  0.75200  0.87900  0.25500  1.0000
  O   O2        1.0  0.38200  0.24800  0.25500  1.0000
  O   O3        1.0  0.12100  0.61800  0.25500  1.0000
  O   O4        1.0  0.59800  0.79400  0.73400  1.0000
  O   O5        1.0  0.93100  0.40200  0.73400  1.0000
  O   O6        1.0  0.20600  0.06940  0.73400  1.0000
