data_image0
_chemical_formula_structural       CaLi7O6
_chemical_formula_sum              "Ca1 Li7 O6"
_cell_length_a       5.65995
_cell_length_b       5.65949
_cell_length_c       6.10271
_cell_angle_alpha    62.371
_cell_angle_beta     117.627
_cell_angle_gamma    119.966

_space_group_name_H-M_alt    "P 1"
_space_group_IT_number       1

loop_
  _space_group_symop_operation_xyz
  'x, y, z'

loop_
  _atom_site_type_symbol
  _atom_site_label
  _atom_site_symmetry_multiplicity
  _atom_site_fract_x
  _atom_site_fract_y
  _atom_site_fract_z
  _atom_site_occupancy
  Ca  Ca1       1.0  0.00024  0.00046  0.99900  1.0000
  Li  Li1       1.0  0.34400  0.65600  0.03160  1.0000
  Li  Li2       1.0  0.49100  0.92800  0.34700  1.0000
  Li  Li3       1.0  0.07240  0.21600  0.34700  1.0000
  Li  Li4       1.0  0.78400  0.50900  0.34700  1.0000
  Li  Li5       1.0  0.52600  0.14000  0.65000  1.0000
  Li  Li6       1.0  0.26300  0.47400  0.65000  1.0000
  Li  Li7       1.0  0.86100  0.73700  0.65000  1.0000
  O   O1        1.0  0.74300  0.87300  0.26300  1.0000
  O   O2        1.0  0.12700  0.60700  0.26300  1.0000
  O   O3        1.0  0.39300  0.25700  0.26300  1.0000
  O   O4        1.0  0.93400  0.41500  0.72600  1.0000
  O   O5        1.0  0.58500  0.79300  0.72600  1.0000
  O   O6        1.0  0.20700  0.06560  0.72600  1.0000
