data_image0
_chemical_formula_structural       CuLi7O6
_chemical_formula_sum              "Cu1 Li7 O6"
_cell_length_a       5.48565
_cell_length_b       5.48525
_cell_length_c       5.52453
_cell_angle_alpha    60.2354
_cell_angle_beta     119.766
_cell_angle_gamma    120.001

_space_group_name_H-M_alt    "P 1"
_space_group_IT_number       1

loop_
  _space_group_symop_operation_xyz
  'x, y, z'

loop_
  _atom_site_type_symbol
  _atom_site_label
  _atom_site_symmetry_multiplicity
  _atom_site_fract_x
  _atom_site_fract_y
  _atom_site_fract_z
  _atom_site_occupancy
  Cu  Cu1       1.0  0.00000  0.00051  0.99800  1.0000
  Li  Li1       1.0  0.34200  0.65800  0.02590  1.0000
  Li  Li2       1.0  0.50000  0.95300  0.31300  1.0000
  Li  Li3       1.0  0.76600  0.50000  0.31300  1.0000
  Li  Li4       1.0  0.04740  0.23400  0.31300  1.0000
  Li  Li5       1.0  0.88000  0.72100  0.68300  1.0000
  Li  Li6       1.0  0.27900  0.47600  0.68300  1.0000
  Li  Li7       1.0  0.52400  0.12000  0.68300  1.0000
  O   O1        1.0  0.76200  0.87900  0.23600  1.0000
  O   O2        1.0  0.12100  0.64700  0.23600  1.0000
  O   O3        1.0  0.35300  0.23800  0.23600  1.0000
  O   O4        1.0  0.62800  0.79900  0.75600  1.0000
  O   O5        1.0  0.20200  0.07340  0.75600  1.0000
  O   O6        1.0  0.92700  0.37200  0.75600  1.0000
