data_image0
_chemical_formula_structural       GdLi7O6
_chemical_formula_sum              "Gd1 Li7 O6"
_cell_length_a       5.64534
_cell_length_b       5.64579
_cell_length_c       6.14491
_cell_angle_alpha    62.6684
_cell_angle_beta     117.338
_cell_angle_gamma    120.008

_space_group_name_H-M_alt    "P 1"
_space_group_IT_number       1

loop_
  _space_group_symop_operation_xyz
  'x, y, z'

loop_
  _atom_site_type_symbol
  _atom_site_label
  _atom_site_symmetry_multiplicity
  _atom_site_fract_x
  _atom_site_fract_y
  _atom_site_fract_z
  _atom_site_occupancy
  Gd  Gd1       1.0  0.99900  0.00112  0.99700  1.0000
  Li  Li1       1.0  0.34900  0.65100  0.04710  1.0000
  Li  Li2       1.0  0.50200  0.92900  0.35400  1.0000
  Li  Li3       1.0  0.78000  0.49800  0.35400  1.0000
  Li  Li4       1.0  0.07100  0.21900  0.35400  1.0000
  Li  Li5       1.0  0.51200  0.13300  0.64200  1.0000
  Li  Li6       1.0  0.86700  0.73700  0.64200  1.0000
  Li  Li7       1.0  0.26300  0.48800  0.64200  1.0000
  O   O1        1.0  0.74700  0.87200  0.26000  1.0000
  O   O2        1.0  0.12800  0.61400  0.26000  1.0000
  O   O3        1.0  0.38600  0.25300  0.26000  1.0000
  O   O4        1.0  0.59400  0.79400  0.72600  1.0000
  O   O5        1.0  0.92700  0.40600  0.72600  1.0000
  O   O6        1.0  0.20600  0.07340  0.72600  1.0000
