data_image0
_chemical_formula_structural       Li8O6Zr
_chemical_formula_sum              "Li8 O6 Zr1"
_cell_length_a       6.05242
_cell_length_b       6.05242
_cell_length_c       6.05242
_cell_angle_alpha    53.8443
_cell_angle_beta     53.8443
_cell_angle_gamma    53.8443

_space_group_name_H-M_alt    "P 1"
_space_group_IT_number       1

loop_
  _space_group_symop_operation_xyz
  'x, y, z'

loop_
  _atom_site_type_symbol
  _atom_site_label
  _atom_site_symmetry_multiplicity
  _atom_site_fract_x
  _atom_site_fract_y
  _atom_site_fract_z
  _atom_site_occupancy
  Li  Li1       1.0  0.76700  0.49500  0.10300  1.0000
  Li  Li2       1.0  0.50500  0.89700  0.23300  1.0000
  Li  Li3       1.0  0.34500  0.34500  0.34500  1.0000
  Li  Li4       1.0  0.10300  0.76700  0.49500  1.0000
  Li  Li5       1.0  0.89700  0.23300  0.50500  1.0000
  Li  Li6       1.0  0.65500  0.65500  0.65500  1.0000
  Li  Li7       1.0  0.49500  0.10300  0.76700  1.0000
  Li  Li8       1.0  0.23300  0.50500  0.89700  1.0000
  O   O1        1.0  0.38900  0.76300  0.09280  1.0000
  O   O2        1.0  0.90700  0.61100  0.23700  1.0000
  O   O3        1.0  0.76300  0.09280  0.38900  1.0000
  O   O4        1.0  0.23700  0.90700  0.61100  1.0000
  O   O5        1.0  0.09280  0.38900  0.76300  1.0000
  O   O6        1.0  0.61100  0.23700  0.90700  1.0000
  Zr  Zr1       1.0  0.00000  0.00000  0.00000  1.0000
