data_image0
_chemical_formula_structural       Li7O6Si
_chemical_formula_sum              "Li7 O6 Si1"
_cell_length_a       5.41345
_cell_length_b       5.41314
_cell_length_c       5.48054
_cell_angle_alpha    60.405
_cell_angle_beta     119.596
_cell_angle_gamma    119.999

_space_group_name_H-M_alt    "P 1"
_space_group_IT_number       1

loop_
  _space_group_symop_operation_xyz
  'x, y, z'

loop_
  _atom_site_type_symbol
  _atom_site_label
  _atom_site_symmetry_multiplicity
  _atom_site_fract_x
  _atom_site_fract_y
  _atom_site_fract_z
  _atom_site_occupancy
  Li  Li1       1.0  0.34300  0.65700  0.02970  1.0000
  Li  Li2       1.0  0.75400  0.48800  0.32100  1.0000
  Li  Li3       1.0  0.51200  0.94500  0.32100  1.0000
  Li  Li4       1.0  0.05520  0.24600  0.32100  1.0000
  Li  Li5       1.0  0.88100  0.71400  0.67300  1.0000
  Li  Li6       1.0  0.28600  0.49400  0.67300  1.0000
  Li  Li7       1.0  0.50600  0.11900  0.67300  1.0000
  O   O1        1.0  0.77900  0.89200  0.22700  1.0000
  O   O2        1.0  0.10800  0.66000  0.22700  1.0000
  O   O3        1.0  0.34000  0.22100  0.22700  1.0000
  O   O4        1.0  0.92700  0.35500  0.76800  1.0000
  O   O5        1.0  0.64500  0.80400  0.76800  1.0000
  O   O6        1.0  0.19600  0.07320  0.76800  1.0000
  Si  Si1       1.0  0.99900  0.00125  0.99600  1.0000
