data_image0
_chemical_formula_structural       Li8O6Tb
_chemical_formula_sum              "Li8 O6 Tb1"
_cell_length_a       5.55071
_cell_length_b       5.55071
_cell_length_c       6.18489
_cell_angle_alpha    63.3377
_cell_angle_beta     116.662
_cell_angle_gamma    120

_space_group_name_H-M_alt    "P 1"
_space_group_IT_number       1

loop_
  _space_group_symop_operation_xyz
  'x, y, z'

loop_
  _atom_site_type_symbol
  _atom_site_label
  _atom_site_symmetry_multiplicity
  _atom_site_fract_x
  _atom_site_fract_y
  _atom_site_fract_z
  _atom_site_occupancy
  Li  Li1       1.0  0.34600  0.65400  0.03810  1.0000
  Li  Li2       1.0  0.10700  0.22600  0.36900  1.0000
  Li  Li3       1.0  0.48800  0.89300  0.36900  1.0000
  Li  Li4       1.0  0.77400  0.51200  0.36900  1.0000
  Li  Li5       1.0  0.22600  0.48800  0.63100  1.0000
  Li  Li6       1.0  0.51200  0.10700  0.63100  1.0000
  Li  Li7       1.0  0.89300  0.77400  0.63100  1.0000
  Li  Li8       1.0  0.65400  0.34600  0.96200  1.0000
  O   O1        1.0  0.09680  0.59600  0.25600  1.0000
  O   O2        1.0  0.40400  0.24500  0.25600  1.0000
  O   O3        1.0  0.75500  0.90300  0.25600  1.0000
  O   O4        1.0  0.24500  0.09680  0.74400  1.0000
  O   O5        1.0  0.59600  0.75500  0.74400  1.0000
  O   O6        1.0  0.90300  0.40400  0.74400  1.0000
  Tb  Tb1       1.0  0.00000  0.00000  0.00000  1.0000
