data_image0
_chemical_formula_structural       Li8O6
_chemical_formula_sum              "Li8 O6"
_cell_length_a       5.76999
_cell_length_b       5.76728
_cell_length_c       5.21735
_cell_angle_alpha    56.4209
_cell_angle_beta     123.556
_cell_angle_gamma    120.015

_space_group_name_H-M_alt    "P 1"
_space_group_IT_number       1

loop_
  _space_group_symop_operation_xyz
  'x, y, z'

loop_
  _atom_site_type_symbol
  _atom_site_label
  _atom_site_symmetry_multiplicity
  _atom_site_fract_x
  _atom_site_fract_y
  _atom_site_fract_z
  _atom_site_occupancy
  Li  Li1       1.0  0.33300  0.66600  0.00000  1.0000
  Li  Li2       1.0  0.46100  0.95200  0.27500  1.0000
  Li  Li3       1.0  0.04740  0.23200  0.27600  1.0000
  Li  Li4       1.0  0.76700  0.53800  0.27600  1.0000
  Li  Li5       1.0  0.56600  0.12900  0.72300  1.0000
  Li  Li6       1.0  0.28600  0.43500  0.72300  1.0000
  Li  Li7       1.0  0.87200  0.71500  0.72300  1.0000
  Li  Li8       1.0  0.99900  0.00083  0.99800  1.0000
  O   O1        1.0  0.73800  0.88400  0.23000  1.0000
  O   O2        1.0  0.37700  0.26200  0.23100  1.0000
  O   O3        1.0  0.11600  0.62300  0.23100  1.0000
  O   O4        1.0  0.21700  0.04420  0.76800  1.0000
  O   O5        1.0  0.59500  0.78300  0.76800  1.0000
  O   O6        1.0  0.95600  0.40600  0.76800  1.0000
