data_image0
_chemical_formula_structural       BeLi7O6
_chemical_formula_sum              "Be1 Li7 O6"
_cell_length_a       5.63585
_cell_length_b       5.63459
_cell_length_c       5.27745
_cell_angle_alpha    57.7937
_cell_angle_beta     122.202
_cell_angle_gamma    119.981

_space_group_name_H-M_alt    "P 1"
_space_group_IT_number       1

loop_
  _space_group_symop_operation_xyz
  'x, y, z'

loop_
  _atom_site_type_symbol
  _atom_site_label
  _atom_site_symmetry_multiplicity
  _atom_site_fract_x
  _atom_site_fract_y
  _atom_site_fract_z
  _atom_site_occupancy
  Be  Be1       1.0  0.93600  0.06390  0.80800  1.0000
  Li  Li1       1.0  0.35300  0.64800  0.05760  1.0000
  Li  Li2       1.0  0.79600  0.56800  0.28000  1.0000
  Li  Li3       1.0  0.43200  0.94800  0.28100  1.0000
  Li  Li4       1.0  0.05170  0.20300  0.28100  1.0000
  Li  Li5       1.0  0.87600  0.68000  0.73000  1.0000
  Li  Li6       1.0  0.53300  0.12300  0.73000  1.0000
  Li  Li7       1.0  0.32100  0.46700  0.73100  1.0000
  O   O1        1.0  0.41500  0.28000  0.25400  1.0000
  O   O2        1.0  0.72000  0.88100  0.25400  1.0000
  O   O3        1.0  0.11900  0.58500  0.25500  1.0000
  O   O4        1.0  0.63800  0.81100  0.77600  1.0000
  O   O5        1.0  0.18900  0.04990  0.77600  1.0000
  O   O6        1.0  0.95000  0.36200  0.77600  1.0000
