data_image0
_chemical_formula_structural       Li7O6Sr
_chemical_formula_sum              "Li7 O6 Sr1"
_cell_length_a       5.71308
_cell_length_b       5.71435
_cell_length_c       6.40067
_cell_angle_alpha    63.5697
_cell_angle_beta     116.47
_cell_angle_gamma    119.96

_space_group_name_H-M_alt    "P 1"
_space_group_IT_number       1

loop_
  _space_group_symop_operation_xyz
  'x, y, z'

loop_
  _atom_site_type_symbol
  _atom_site_label
  _atom_site_symmetry_multiplicity
  _atom_site_fract_x
  _atom_site_fract_y
  _atom_site_fract_z
  _atom_site_occupancy
  Li  Li1       1.0  0.35800  0.64300  0.07260  1.0000
  Li  Li2       1.0  0.79200  0.50900  0.35600  1.0000
  Li  Li3       1.0  0.07420  0.20800  0.35700  1.0000
  Li  Li4       1.0  0.49100  0.92600  0.35700  1.0000
  Li  Li5       1.0  0.52100  0.13900  0.63700  1.0000
  Li  Li6       1.0  0.86100  0.74600  0.63700  1.0000
  Li  Li7       1.0  0.25400  0.47800  0.63700  1.0000
  O   O1        1.0  0.13300  0.59800  0.27300  1.0000
  O   O2        1.0  0.40100  0.26200  0.27300  1.0000
  O   O3        1.0  0.73700  0.86600  0.27300  1.0000
  O   O4        1.0  0.58000  0.79600  0.70700  1.0000
  O   O5        1.0  0.92400  0.42100  0.70700  1.0000
  O   O6        1.0  0.20400  0.07610  0.70800  1.0000
  Sr  Sr1       1.0  0.99900  0.00158  0.99600  1.0000
