data_image0
_chemical_formula_structural       Be4O4Pd4Se4
_chemical_formula_sum              "Be4 O4 Pd4 Se4"
_cell_length_a       5.66484
_cell_length_b       7.08305
_cell_length_c       5.39304
_cell_angle_alpha    90
_cell_angle_beta     90
_cell_angle_gamma    90

_space_group_name_H-M_alt    "P 1"
_space_group_IT_number       1

loop_
  _space_group_symop_operation_xyz
  'x, y, z'

loop_
  _atom_site_type_symbol
  _atom_site_label
  _atom_site_symmetry_multiplicity
  _atom_site_fract_x
  _atom_site_fract_y
  _atom_site_fract_z
  _atom_site_occupancy
  Be  Be1       1.0  0.00748  0.00544  0.23100  1.0000
  Be  Be2       1.0  0.50700  0.99500  0.23100  1.0000
  Be  Be3       1.0  0.49300  0.00544  0.73100  1.0000
  Be  Be4       1.0  0.99300  0.99500  0.73100  1.0000
  O   O1        1.0  0.88400  0.44200  0.26200  1.0000
  O   O2        1.0  0.38400  0.55800  0.26200  1.0000
  O   O3        1.0  0.61600  0.44200  0.76200  1.0000
  O   O4        1.0  0.11600  0.55800  0.76200  1.0000
  Pd  Pd1       1.0  0.73900  0.17500  0.48200  1.0000
  Pd  Pd2       1.0  0.23900  0.82500  0.48200  1.0000
  Pd  Pd3       1.0  0.76100  0.17500  0.98200  1.0000
  Pd  Pd4       1.0  0.26100  0.82500  0.98200  1.0000
  Se  Se1       1.0  0.31800  0.31900  0.27600  1.0000
  Se  Se2       1.0  0.81800  0.68100  0.27600  1.0000
  Se  Se3       1.0  0.18200  0.31900  0.77600  1.0000
  Se  Se4       1.0  0.68200  0.68100  0.77600  1.0000
