data_image0
_chemical_formula_structural       Fe2O2Se2Sn2
_chemical_formula_sum              "Fe2 O2 Se2 Sn2"
_cell_length_a       3.5367
_cell_length_b       3.52578
_cell_length_c       13.7402
_cell_angle_alpha    90
_cell_angle_beta     90
_cell_angle_gamma    120.103

_space_group_name_H-M_alt    "P 1"
_space_group_IT_number       1

loop_
  _space_group_symop_operation_xyz
  'x, y, z'

loop_
  _atom_site_type_symbol
  _atom_site_label
  _atom_site_symmetry_multiplicity
  _atom_site_fract_x
  _atom_site_fract_y
  _atom_site_fract_z
  _atom_site_occupancy
  Fe  Fe1       1.0  0.33400  0.66900  0.27200  1.0000
  Fe  Fe2       1.0  0.66600  0.33100  0.77200  1.0000
  O   O1        1.0  0.00422  0.00844  0.30700  1.0000
  O   O2        1.0  0.99600  0.99200  0.80700  1.0000
  Se  Se1       1.0  0.66700  0.33400  0.12300  1.0000
  Se  Se2       1.0  0.33300  0.66600  0.62300  1.0000
  Sn  Sn1       1.0  0.00000  0.00000  0.48600  1.0000
  Sn  Sn2       1.0  0.00000  0.00011  0.98600  1.0000
