data_image0
_chemical_formula_structural       Li7O6Sc
_chemical_formula_sum              "Li7 O6 Sc1"
_cell_length_a       5.58546
_cell_length_b       5.58541
_cell_length_c       5.84594
_cell_angle_alpha    61.456
_cell_angle_beta     118.543
_cell_angle_gamma    120.011

_space_group_name_H-M_alt    "P 1"
_space_group_IT_number       1

loop_
  _space_group_symop_operation_xyz
  'x, y, z'

loop_
  _atom_site_type_symbol
  _atom_site_label
  _atom_site_symmetry_multiplicity
  _atom_site_fract_x
  _atom_site_fract_y
  _atom_site_fract_z
  _atom_site_occupancy
  Li  Li1       1.0  0.34100  0.65900  0.02250  1.0000
  Li  Li2       1.0  0.50000  0.93200  0.33700  1.0000
  Li  Li3       1.0  0.06790  0.23100  0.33700  1.0000
  Li  Li4       1.0  0.76900  0.50000  0.33700  1.0000
  Li  Li5       1.0  0.86800  0.72700  0.65900  1.0000
  Li  Li6       1.0  0.51800  0.13200  0.65900  1.0000
  Li  Li7       1.0  0.27300  0.48200  0.65900  1.0000
  O   O1        1.0  0.75700  0.88300  0.24800  1.0000
  O   O2        1.0  0.11700  0.62500  0.24900  1.0000
  O   O3        1.0  0.37500  0.24400  0.24900  1.0000
  O   O4        1.0  0.93400  0.39400  0.74500  1.0000
  O   O5        1.0  0.20500  0.06570  0.74500  1.0000
  O   O6        1.0  0.60600  0.79400  0.74500  1.0000
  Sc  Sc1       1.0  0.99900  0.00046  0.99900  1.0000
