data_image0
_chemical_formula_structural       Li7O6Zr
_chemical_formula_sum              "Li7 O6 Zr1"
_cell_length_a       5.57352
_cell_length_b       5.57318
_cell_length_c       5.9422
_cell_angle_alpha    62.0316
_cell_angle_beta     117.972
_cell_angle_gamma    120.003

_space_group_name_H-M_alt    "P 1"
_space_group_IT_number       1

loop_
  _space_group_symop_operation_xyz
  'x, y, z'

loop_
  _atom_site_type_symbol
  _atom_site_label
  _atom_site_symmetry_multiplicity
  _atom_site_fract_x
  _atom_site_fract_y
  _atom_site_fract_z
  _atom_site_occupancy
  Li  Li1       1.0  0.34300  0.65700  0.02970  1.0000
  Li  Li2       1.0  0.07160  0.23000  0.34800  1.0000
  Li  Li3       1.0  0.77000  0.49400  0.34800  1.0000
  Li  Li4       1.0  0.50600  0.92800  0.34800  1.0000
  Li  Li5       1.0  0.87000  0.73100  0.64800  1.0000
  Li  Li6       1.0  0.50800  0.13000  0.64800  1.0000
  Li  Li7       1.0  0.26900  0.49200  0.64800  1.0000
  O   O1        1.0  0.75800  0.88200  0.24900  1.0000
  O   O2        1.0  0.11800  0.62700  0.24900  1.0000
  O   O3        1.0  0.37300  0.24200  0.24900  1.0000
  O   O4        1.0  0.60700  0.79400  0.74300  1.0000
  O   O5        1.0  0.93000  0.39300  0.74300  1.0000
  O   O6        1.0  0.20600  0.07020  0.74300  1.0000
  Zr  Zr1       1.0  0.99900  0.00075  0.99800  1.0000
