data_image0
_chemical_formula_structural       Li7O6Th
_chemical_formula_sum              "Li7 O6 Th1"
_cell_length_a       5.65997
_cell_length_b       5.65989
_cell_length_c       6.35036
_cell_angle_alpha    63.5359
_cell_angle_beta     116.465
_cell_angle_gamma    120.002

_space_group_name_H-M_alt    "P 1"
_space_group_IT_number       1

loop_
  _space_group_symop_operation_xyz
  'x, y, z'

loop_
  _atom_site_type_symbol
  _atom_site_label
  _atom_site_symmetry_multiplicity
  _atom_site_fract_x
  _atom_site_fract_y
  _atom_site_fract_z
  _atom_site_occupancy
  Li  Li1       1.0  0.35900  0.64100  0.07600  1.0000
  Li  Li2       1.0  0.78100  0.49200  0.36400  1.0000
  Li  Li3       1.0  0.07550  0.21900  0.36400  1.0000
  Li  Li4       1.0  0.50800  0.92500  0.36400  1.0000
  Li  Li5       1.0  0.87100  0.74200  0.62900  1.0000
  Li  Li6       1.0  0.50000  0.12900  0.62900  1.0000
  Li  Li7       1.0  0.25800  0.50000  0.62900  1.0000
  O   O1        1.0  0.38500  0.25000  0.26100  1.0000
  O   O2        1.0  0.75000  0.87300  0.26100  1.0000
  O   O3        1.0  0.12700  0.61500  0.26200  1.0000
  O   O4        1.0  0.59600  0.79500  0.72000  1.0000
  O   O5        1.0  0.91900  0.40400  0.72000  1.0000
  O   O6        1.0  0.20500  0.08060  0.72000  1.0000
  Th  Th1       1.0  0.99700  0.00322  0.99000  1.0000
