data_image0
_chemical_formula_structural       Li7O6Pu
_chemical_formula_sum              "Li7 O6 Pu1"
_cell_length_a       5.60678
_cell_length_b       5.60951
_cell_length_c       6.057
_cell_angle_alpha    62.3521
_cell_angle_beta     117.297
_cell_angle_gamma    119.785

_space_group_name_H-M_alt    "P 1"
_space_group_IT_number       1

loop_
  _space_group_symop_operation_xyz
  'x, y, z'

loop_
  _atom_site_type_symbol
  _atom_site_label
  _atom_site_symmetry_multiplicity
  _atom_site_fract_x
  _atom_site_fract_y
  _atom_site_fract_z
  _atom_site_occupancy
  Li  Li1       1.0  0.35000  0.65300  0.04010  1.0000
  Li  Li2       1.0  0.07420  0.22900  0.35400  1.0000
  Li  Li3       1.0  0.51100  0.93200  0.35400  1.0000
  Li  Li4       1.0  0.77200  0.48900  0.35500  1.0000
  Li  Li5       1.0  0.26600  0.49900  0.64000  1.0000
  Li  Li6       1.0  0.50100  0.12500  0.64000  1.0000
  Li  Li7       1.0  0.86900  0.73200  0.64100  1.0000
  O   O1        1.0  0.11800  0.62600  0.25000  1.0000
  O   O2        1.0  0.75900  0.88400  0.25100  1.0000
  O   O3        1.0  0.37800  0.24500  0.25300  1.0000
  O   O4        1.0  0.60400  0.79200  0.73700  1.0000
  O   O5        1.0  0.20500  0.07420  0.73800  1.0000
  O   O6        1.0  0.92400  0.39100  0.73900  1.0000
  Pu  Pu1       1.0  0.99900  0.00084  0.99600  1.0000
