data_image0
_chemical_formula_structural       Fe4O4Se4Zn4
_chemical_formula_sum              "Fe4 O4 Se4 Zn4"
_cell_length_a       6.01182
_cell_length_b       3.45637
_cell_length_c       11.9112
_cell_angle_alpha    90
_cell_angle_beta     90
_cell_angle_gamma    90

_space_group_name_H-M_alt    "P 1"
_space_group_IT_number       1

loop_
  _space_group_symop_operation_xyz
  'x, y, z'

loop_
  _atom_site_type_symbol
  _atom_site_label
  _atom_site_symmetry_multiplicity
  _atom_site_fract_x
  _atom_site_fract_y
  _atom_site_fract_z
  _atom_site_occupancy
  Fe  Fe1       1.0  0.54300  0.25000  0.24300  1.0000
  Fe  Fe2       1.0  0.04340  0.25000  0.25700  1.0000
  Fe  Fe3       1.0  0.95700  0.75000  0.74300  1.0000
  Fe  Fe4       1.0  0.45700  0.75000  0.75700  1.0000
  O   O1        1.0  0.28400  0.25000  0.14300  1.0000
  O   O2        1.0  0.78400  0.25000  0.35700  1.0000
  O   O3        1.0  0.21600  0.75000  0.64300  1.0000
  O   O4        1.0  0.71600  0.75000  0.85700  1.0000
  Se  Se1       1.0  0.79300  0.75000  0.11500  1.0000
  Se  Se2       1.0  0.29300  0.75000  0.38500  1.0000
  Se  Se3       1.0  0.70700  0.25000  0.61500  1.0000
  Se  Se4       1.0  0.20700  0.25000  0.88500  1.0000
  Zn  Zn1       1.0  0.22000  0.75000  0.05260  1.0000
  Zn  Zn2       1.0  0.72000  0.75000  0.44700  1.0000
  Zn  Zn3       1.0  0.28000  0.25000  0.55300  1.0000
  Zn  Zn4       1.0  0.78000  0.25000  0.94700  1.0000
