data_image0
_chemical_formula_structural       Li7O6V
_chemical_formula_sum              "Li7 O6 V1"
_cell_length_a       5.439
_cell_length_b       5.43861
_cell_length_c       5.63048
_cell_angle_alpha    61.1183
_cell_angle_beta     118.885
_cell_angle_gamma    120.003

_space_group_name_H-M_alt    "P 1"
_space_group_IT_number       1

loop_
  _space_group_symop_operation_xyz
  'x, y, z'

loop_
  _atom_site_type_symbol
  _atom_site_label
  _atom_site_symmetry_multiplicity
  _atom_site_fract_x
  _atom_site_fract_y
  _atom_site_fract_z
  _atom_site_occupancy
  Li  Li1       1.0  0.34300  0.65700  0.02980  1.0000
  Li  Li2       1.0  0.76200  0.49500  0.32800  1.0000
  Li  Li3       1.0  0.50500  0.93900  0.32800  1.0000
  Li  Li4       1.0  0.06110  0.23800  0.32800  1.0000
  Li  Li5       1.0  0.87800  0.72400  0.66400  1.0000
  Li  Li6       1.0  0.27600  0.49100  0.66400  1.0000
  Li  Li7       1.0  0.50900  0.12200  0.66400  1.0000
  O   O1        1.0  0.77000  0.88800  0.23500  1.0000
  O   O2        1.0  0.11200  0.64800  0.23500  1.0000
  O   O3        1.0  0.35200  0.23000  0.23500  1.0000
  O   O4        1.0  0.63200  0.79800  0.76200  1.0000
  O   O5        1.0  0.92800  0.36800  0.76200  1.0000
  O   O6        1.0  0.20200  0.07210  0.76200  1.0000
  V   V1        1.0  0.99800  0.00201  0.99400  1.0000
