data_image0
_chemical_formula_structural       Li7O6Y
_chemical_formula_sum              "Li7 O6 Y1"
_cell_length_a       5.63758
_cell_length_b       5.63618
_cell_length_c       6.12841
_cell_angle_alpha    62.6139
_cell_angle_beta     117.39
_cell_angle_gamma    120

_space_group_name_H-M_alt    "P 1"
_space_group_IT_number       1

loop_
  _space_group_symop_operation_xyz
  'x, y, z'

loop_
  _atom_site_type_symbol
  _atom_site_label
  _atom_site_symmetry_multiplicity
  _atom_site_fract_x
  _atom_site_fract_y
  _atom_site_fract_z
  _atom_site_occupancy
  Li  Li1       1.0  0.34900  0.65100  0.04710  1.0000
  Li  Li2       1.0  0.50200  0.92800  0.35300  1.0000
  Li  Li3       1.0  0.07230  0.22100  0.35300  1.0000
  Li  Li4       1.0  0.77900  0.49800  0.35300  1.0000
  Li  Li5       1.0  0.26400  0.48800  0.64200  1.0000
  Li  Li6       1.0  0.51200  0.13400  0.64200  1.0000
  Li  Li7       1.0  0.86600  0.73600  0.64200  1.0000
  O   O1        1.0  0.74900  0.87600  0.25900  1.0000
  O   O2        1.0  0.12400  0.61400  0.25900  1.0000
  O   O3        1.0  0.38600  0.25100  0.25900  1.0000
  O   O4        1.0  0.59500  0.79500  0.72800  1.0000
  O   O5        1.0  0.92700  0.40500  0.72800  1.0000
  O   O6        1.0  0.20500  0.07270  0.72800  1.0000
  Y   Y1        1.0  0.99900  0.00062  0.99800  1.0000
