data_image0
_chemical_formula_structural       Li7O6Rb
_chemical_formula_sum              "Li7 O6 Rb1"
_cell_length_a       5.67414
_cell_length_b       5.6751
_cell_length_c       7.0144
_cell_angle_alpha    66.1211
_cell_angle_beta     113.9
_cell_angle_gamma    120.013

_space_group_name_H-M_alt    "P 1"
_space_group_IT_number       1

loop_
  _space_group_symop_operation_xyz
  'x, y, z'

loop_
  _atom_site_type_symbol
  _atom_site_label
  _atom_site_symmetry_multiplicity
  _atom_site_fract_x
  _atom_site_fract_y
  _atom_site_fract_z
  _atom_site_occupancy
  Li  Li1       1.0  0.38900  0.61100  0.16600  1.0000
  Li  Li2       1.0  0.81100  0.52500  0.35800  1.0000
  Li  Li3       1.0  0.07430  0.18900  0.35900  1.0000
  Li  Li4       1.0  0.47400  0.92700  0.35900  1.0000
  Li  Li5       1.0  0.23700  0.47500  0.62400  1.0000
  Li  Li6       1.0  0.52500  0.13800  0.62400  1.0000
  Li  Li7       1.0  0.86200  0.76300  0.62400  1.0000
  O   O1        1.0  0.13700  0.58000  0.29600  1.0000
  O   O2        1.0  0.42000  0.25900  0.29700  1.0000
  O   O3        1.0  0.74100  0.86400  0.29700  1.0000
  O   O4        1.0  0.90000  0.43200  0.66600  1.0000
  O   O5        1.0  0.56800  0.80100  0.66700  1.0000
  O   O6        1.0  0.19900  0.10000  0.66700  1.0000
  Rb  Rb1       1.0  0.99600  0.00519  0.98600  1.0000
