data_image0
_chemical_formula_structural       LaLi7O6
_chemical_formula_sum              "La1 Li7 O6"
_cell_length_a       5.68295
_cell_length_b       5.6832
_cell_length_c       6.24912
_cell_angle_alpha    62.9664
_cell_angle_beta     117.034
_cell_angle_gamma    120.002

_space_group_name_H-M_alt    "P 1"
_space_group_IT_number       1

loop_
  _space_group_symop_operation_xyz
  'x, y, z'

loop_
  _atom_site_type_symbol
  _atom_site_label
  _atom_site_symmetry_multiplicity
  _atom_site_fract_x
  _atom_site_fract_y
  _atom_site_fract_z
  _atom_site_occupancy
  La  La1       1.0  0.99700  0.00289  0.99100  1.0000
  Li  Li1       1.0  0.35200  0.64700  0.05770  1.0000
  Li  Li2       1.0  0.50300  0.93000  0.35700  1.0000
  Li  Li3       1.0  0.78400  0.49700  0.35700  1.0000
  Li  Li4       1.0  0.07050  0.21600  0.35700  1.0000
  Li  Li5       1.0  0.86800  0.74000  0.63800  1.0000
  Li  Li6       1.0  0.26000  0.49000  0.63800  1.0000
  Li  Li7       1.0  0.51000  0.13200  0.63800  1.0000
  O   O1        1.0  0.13400  0.61200  0.26500  1.0000
  O   O2        1.0  0.74400  0.86600  0.26500  1.0000
  O   O3        1.0  0.38800  0.25600  0.26500  1.0000
  O   O4        1.0  0.59100  0.79400  0.72000  1.0000
  O   O5        1.0  0.20600  0.07730  0.72000  1.0000
  O   O6        1.0  0.92300  0.40900  0.72000  1.0000
