data_image0
_chemical_formula_structural       O4Pd4Se4Zn4
_chemical_formula_sum              "O4 Pd4 Se4 Zn4"
_cell_length_a       5.50091
_cell_length_b       8.49777
_cell_length_c       5.43339
_cell_angle_alpha    90
_cell_angle_beta     90
_cell_angle_gamma    90

_space_group_name_H-M_alt    "P 1"
_space_group_IT_number       1

loop_
  _space_group_symop_operation_xyz
  'x, y, z'

loop_
  _atom_site_type_symbol
  _atom_site_label
  _atom_site_symmetry_multiplicity
  _atom_site_fract_x
  _atom_site_fract_y
  _atom_site_fract_z
  _atom_site_occupancy
  O   O1        1.0  0.05820  0.09150  0.10300  1.0000
  O   O2        1.0  0.55800  0.90800  0.10300  1.0000
  O   O3        1.0  0.44200  0.09150  0.60300  1.0000
  O   O4        1.0  0.94200  0.90800  0.60300  1.0000
  Pd  Pd1       1.0  0.00237  0.34900  0.09010  1.0000
  Pd  Pd2       1.0  0.50200  0.65100  0.09010  1.0000
  Pd  Pd3       1.0  0.49800  0.34900  0.59000  1.0000
  Pd  Pd4       1.0  0.99800  0.65100  0.59000  1.0000
  Se  Se1       1.0  0.51500  0.36000  0.10300  1.0000
  Se  Se2       1.0  0.01470  0.64000  0.10300  1.0000
  Se  Se3       1.0  0.98500  0.36000  0.60300  1.0000
  Se  Se4       1.0  0.48500  0.64000  0.60300  1.0000
  Zn  Zn1       1.0  0.11800  0.08350  0.45500  1.0000
  Zn  Zn2       1.0  0.61800  0.91600  0.45500  1.0000
  Zn  Zn3       1.0  0.38200  0.08350  0.95500  1.0000
  Zn  Zn4       1.0  0.88200  0.91600  0.95500  1.0000
