data_image0
_chemical_formula_structural       Li7O6Pa
_chemical_formula_sum              "Li7 O6 Pa1"
_cell_length_a       5.64586
_cell_length_b       5.6456
_cell_length_c       6.1726
_cell_angle_alpha    62.7861
_cell_angle_beta     117.214
_cell_angle_gamma    120

_space_group_name_H-M_alt    "P 1"
_space_group_IT_number       1

loop_
  _space_group_symop_operation_xyz
  'x, y, z'

loop_
  _atom_site_type_symbol
  _atom_site_label
  _atom_site_symmetry_multiplicity
  _atom_site_fract_x
  _atom_site_fract_y
  _atom_site_fract_z
  _atom_site_occupancy
  Li  Li1       1.0  0.35000  0.65000  0.04890  1.0000
  Li  Li2       1.0  0.51300  0.92500  0.36100  1.0000
  Li  Li3       1.0  0.77300  0.48700  0.36100  1.0000
  Li  Li4       1.0  0.07520  0.22700  0.36100  1.0000
  Li  Li5       1.0  0.26400  0.50300  0.63400  1.0000
  Li  Li6       1.0  0.87300  0.73600  0.63400  1.0000
  Li  Li7       1.0  0.49700  0.12700  0.63400  1.0000
  O   O1        1.0  0.75600  0.88100  0.25400  1.0000
  O   O2        1.0  0.11900  0.62100  0.25400  1.0000
  O   O3        1.0  0.37900  0.24400  0.25400  1.0000
  O   O4        1.0  0.60300  0.79400  0.73400  1.0000
  O   O5        1.0  0.92500  0.39700  0.73400  1.0000
  O   O6        1.0  0.20600  0.07520  0.73400  1.0000
  Pa  Pa1       1.0  0.99800  0.00174  0.99500  1.0000
