data_image0
_chemical_formula_structural       Li7NiO6
_chemical_formula_sum              "Li7 Ni1 O6"
_cell_length_a       5.46412
_cell_length_b       5.46403
_cell_length_c       5.48636
_cell_angle_alpha    60.1358
_cell_angle_beta     119.866
_cell_angle_gamma    120.002

_space_group_name_H-M_alt    "P 1"
_space_group_IT_number       1

loop_
  _space_group_symop_operation_xyz
  'x, y, z'

loop_
  _atom_site_type_symbol
  _atom_site_label
  _atom_site_symmetry_multiplicity
  _atom_site_fract_x
  _atom_site_fract_y
  _atom_site_fract_z
  _atom_site_occupancy
  Li  Li1       1.0  0.34200  0.65800  0.02540  1.0000
  Li  Li2       1.0  0.76000  0.50100  0.30900  1.0000
  Li  Li3       1.0  0.49900  0.95000  0.30900  1.0000
  Li  Li4       1.0  0.05030  0.24000  0.30900  1.0000
  Li  Li5       1.0  0.87900  0.71800  0.68400  1.0000
  Li  Li6       1.0  0.28200  0.47700  0.68400  1.0000
  Li  Li7       1.0  0.52300  0.12100  0.68400  1.0000
  Ni  Ni1       1.0  0.00000  0.00018  0.99900  1.0000
  O   O1        1.0  0.76700  0.88700  0.23200  1.0000
  O   O2        1.0  0.11300  0.64700  0.23200  1.0000
  O   O3        1.0  0.35300  0.23300  0.23200  1.0000
  O   O4        1.0  0.63200  0.79900  0.76300  1.0000
  O   O5        1.0  0.93100  0.36800  0.76300  1.0000
  O   O6        1.0  0.20100  0.06920  0.76300  1.0000
