data_image0
_chemical_formula_structural       CsLi7O6
_chemical_formula_sum              "Cs1 Li7 O6"
_cell_length_a       5.67338
_cell_length_b       5.66363
_cell_length_c       6.56641
_cell_angle_alpha    64.3155
_cell_angle_beta     116.017
_cell_angle_gamma    120.135

_space_group_name_H-M_alt    "P 1"
_space_group_IT_number       1

loop_
  _space_group_symop_operation_xyz
  'x, y, z'

loop_
  _atom_site_type_symbol
  _atom_site_label
  _atom_site_symmetry_multiplicity
  _atom_site_fract_x
  _atom_site_fract_y
  _atom_site_fract_z
  _atom_site_occupancy
  Cs  Cs1       1.0  0.99400  0.00721  0.98000  1.0000
  Li  Li1       1.0  0.37200  0.62700  0.12000  1.0000
  Li  Li2       1.0  0.79700  0.50900  0.35200  1.0000
  Li  Li3       1.0  0.06300  0.20200  0.35300  1.0000
  Li  Li4       1.0  0.49300  0.93600  0.35300  1.0000
  Li  Li5       1.0  0.51200  0.12800  0.63700  1.0000
  Li  Li6       1.0  0.87400  0.74900  0.63700  1.0000
  Li  Li7       1.0  0.25200  0.48700  0.63700  1.0000
  O   O1        1.0  0.39000  0.25300  0.27600  1.0000
  O   O2        1.0  0.14000  0.60800  0.27800  1.0000
  O   O3        1.0  0.74400  0.85800  0.27900  1.0000
  O   O4        1.0  0.20300  0.09880  0.69500  1.0000
  O   O5        1.0  0.90300  0.40900  0.69500  1.0000
  O   O6        1.0  0.59400  0.79900  0.69800  1.0000
