data_image0
_chemical_formula_structural       Li7NpO6
_chemical_formula_sum              "Li7 Np1 O6"
_cell_length_a       5.61639
_cell_length_b       5.60429
_cell_length_c       6.09245
_cell_angle_alpha    62.3351
_cell_angle_beta     117.517
_cell_angle_gamma    119.902

_space_group_name_H-M_alt    "P 1"
_space_group_IT_number       1

loop_
  _space_group_symop_operation_xyz
  'x, y, z'

loop_
  _atom_site_type_symbol
  _atom_site_label
  _atom_site_symmetry_multiplicity
  _atom_site_fract_x
  _atom_site_fract_y
  _atom_site_fract_z
  _atom_site_occupancy
  Li  Li1       1.0  0.35000  0.65500  0.04170  1.0000
  Li  Li2       1.0  0.07200  0.22700  0.35600  1.0000
  Li  Li3       1.0  0.77100  0.49000  0.35600  1.0000
  Li  Li4       1.0  0.51200  0.92900  0.35700  1.0000
  Li  Li5       1.0  0.49900  0.12500  0.63800  1.0000
  Li  Li6       1.0  0.26700  0.49800  0.63900  1.0000
  Li  Li7       1.0  0.87200  0.73400  0.63900  1.0000
  Np  Np1       1.0  0.00000  0.00180  0.99600  1.0000
  O   O1        1.0  0.11600  0.62500  0.25000  1.0000
  O   O2        1.0  0.37700  0.24400  0.25200  1.0000
  O   O3        1.0  0.75700  0.88200  0.25300  1.0000
  O   O4        1.0  0.20700  0.07490  0.73600  1.0000
  O   O5        1.0  0.60600  0.79300  0.73700  1.0000
  O   O6        1.0  0.92500  0.39100  0.73800  1.0000
