data_image0
_chemical_formula_structural       Ca4O4Se4Sr4
_chemical_formula_sum              "Ca4 O4 Se4 Sr4"
_cell_length_a       6.39597
_cell_length_b       4.14395
_cell_length_c       15.1338
_cell_angle_alpha    90
_cell_angle_beta     90
_cell_angle_gamma    90

_space_group_name_H-M_alt    "P 1"
_space_group_IT_number       1

loop_
  _space_group_symop_operation_xyz
  'x, y, z'

loop_
  _atom_site_type_symbol
  _atom_site_label
  _atom_site_symmetry_multiplicity
  _atom_site_fract_x
  _atom_site_fract_y
  _atom_site_fract_z
  _atom_site_occupancy
  Ca  Ca1       1.0  0.63800  0.25000  0.19500  1.0000
  Ca  Ca2       1.0  0.13800  0.25000  0.30500  1.0000
  Ca  Ca3       1.0  0.86200  0.75000  0.69500  1.0000
  Ca  Ca4       1.0  0.36200  0.75000  0.80500  1.0000
  O   O1        1.0  0.29500  0.25000  0.17600  1.0000
  O   O2        1.0  0.79500  0.25000  0.32400  1.0000
  O   O3        1.0  0.20500  0.75000  0.67600  1.0000
  O   O4        1.0  0.70500  0.75000  0.82400  1.0000
  Se  Se1       1.0  0.75300  0.75000  0.07720  1.0000
  Se  Se2       1.0  0.25300  0.75000  0.42300  1.0000
  Se  Se3       1.0  0.74700  0.25000  0.57700  1.0000
  Se  Se4       1.0  0.24700  0.25000  0.92300  1.0000
  Sr  Sr1       1.0  0.24000  0.75000  0.08400  1.0000
  Sr  Sr2       1.0  0.74000  0.75000  0.41600  1.0000
  Sr  Sr3       1.0  0.26000  0.25000  0.58400  1.0000
  Sr  Sr4       1.0  0.76000  0.25000  0.91600  1.0000
