data_image0
_chemical_formula_structural       Li7O6U
_chemical_formula_sum              "Li7 O6 U1"
_cell_length_a       5.62837
_cell_length_b       5.62815
_cell_length_c       6.11131
_cell_angle_alpha    62.5835
_cell_angle_beta     117.417
_cell_angle_gamma    120.001

_space_group_name_H-M_alt    "P 1"
_space_group_IT_number       1

loop_
  _space_group_symop_operation_xyz
  'x, y, z'

loop_
  _atom_site_type_symbol
  _atom_site_label
  _atom_site_symmetry_multiplicity
  _atom_site_fract_x
  _atom_site_fract_y
  _atom_site_fract_z
  _atom_site_occupancy
  Li  Li1       1.0  0.34800  0.65200  0.04460  1.0000
  Li  Li2       1.0  0.51200  0.92600  0.35800  1.0000
  Li  Li3       1.0  0.77200  0.48800  0.35800  1.0000
  Li  Li4       1.0  0.07370  0.22800  0.35800  1.0000
  Li  Li5       1.0  0.26500  0.50100  0.63700  1.0000
  Li  Li6       1.0  0.87300  0.73500  0.63700  1.0000
  Li  Li7       1.0  0.49900  0.12700  0.63700  1.0000
  O   O1        1.0  0.75700  0.88200  0.25200  1.0000
  O   O2        1.0  0.11800  0.62300  0.25200  1.0000
  O   O3        1.0  0.37700  0.24300  0.25200  1.0000
  O   O4        1.0  0.60500  0.79300  0.73600  1.0000
  O   O5        1.0  0.92400  0.39500  0.73600  1.0000
  O   O6        1.0  0.20700  0.07570  0.73600  1.0000
  U   U1        1.0  0.99800  0.00152  0.99500  1.0000
