data_image0
_chemical_formula_structural       Ca4Cd4O4Se4
_chemical_formula_sum              "Ca4 Cd4 O4 Se4"
_cell_length_a       6.82298
_cell_length_b       3.78424
_cell_length_c       12.6176
_cell_angle_alpha    90
_cell_angle_beta     90
_cell_angle_gamma    90

_space_group_name_H-M_alt    "P 1"
_space_group_IT_number       1

loop_
  _space_group_symop_operation_xyz
  'x, y, z'

loop_
  _atom_site_type_symbol
  _atom_site_label
  _atom_site_symmetry_multiplicity
  _atom_site_fract_x
  _atom_site_fract_y
  _atom_site_fract_z
  _atom_site_occupancy
  Ca  Ca1       1.0  0.55500  0.25000  0.23900  1.0000
  Ca  Ca2       1.0  0.05500  0.25000  0.26100  1.0000
  Ca  Ca3       1.0  0.94500  0.75000  0.73900  1.0000
  Ca  Ca4       1.0  0.44500  0.75000  0.76100  1.0000
  Cd  Cd1       1.0  0.22800  0.75000  0.04500  1.0000
  Cd  Cd2       1.0  0.72800  0.75000  0.45500  1.0000
  Cd  Cd3       1.0  0.27200  0.25000  0.54500  1.0000
  Cd  Cd4       1.0  0.77200  0.25000  0.95500  1.0000
  O   O1        1.0  0.29300  0.25000  0.13500  1.0000
  O   O2        1.0  0.79300  0.25000  0.36500  1.0000
  O   O3        1.0  0.20700  0.75000  0.63500  1.0000
  O   O4        1.0  0.70700  0.75000  0.86500  1.0000
  Se  Se1       1.0  0.81700  0.75000  0.12300  1.0000
  Se  Se2       1.0  0.31700  0.75000  0.37700  1.0000
  Se  Se3       1.0  0.68300  0.25000  0.62300  1.0000
  Se  Se4       1.0  0.18300  0.25000  0.87700  1.0000
