data_image0
_chemical_formula_structural       Ba8Be8O8Se8
_chemical_formula_sum              "Ba8 Be8 O8 Se8"
_cell_length_a       7.45728
_cell_length_b       12.3379
_cell_length_c       7.0971
_cell_angle_alpha    90
_cell_angle_beta     90
_cell_angle_gamma    90

_space_group_name_H-M_alt    "P 1"
_space_group_IT_number       1

loop_
  _space_group_symop_operation_xyz
  'x, y, z'

loop_
  _atom_site_type_symbol
  _atom_site_label
  _atom_site_symmetry_multiplicity
  _atom_site_fract_x
  _atom_site_fract_y
  _atom_site_fract_z
  _atom_site_occupancy
  Ba  Ba1       1.0  0.09740  0.19000  0.24400  1.0000
  Ba  Ba2       1.0  0.40300  0.69000  0.24400  1.0000
  Ba  Ba3       1.0  0.59700  0.19000  0.25600  1.0000
  Ba  Ba4       1.0  0.90300  0.69000  0.25600  1.0000
  Ba  Ba5       1.0  0.09740  0.31000  0.74400  1.0000
  Ba  Ba6       1.0  0.40300  0.81000  0.74400  1.0000
  Ba  Ba7       1.0  0.59700  0.31000  0.75600  1.0000
  Ba  Ba8       1.0  0.90300  0.81000  0.75600  1.0000
  Be  Be1       1.0  0.85700  0.41000  0.10500  1.0000
  Be  Be2       1.0  0.64300  0.91000  0.10500  1.0000
  Be  Be3       1.0  0.35700  0.41000  0.39500  1.0000
  Be  Be4       1.0  0.14300  0.91000  0.39500  1.0000
  Be  Be5       1.0  0.85700  0.08960  0.60500  1.0000
  Be  Be6       1.0  0.64300  0.59000  0.60500  1.0000
  Be  Be7       1.0  0.35700  0.08960  0.89500  1.0000
  Be  Be8       1.0  0.14300  0.59000  0.89500  1.0000
  O   O1        1.0  0.83700  0.29400  0.04600  1.0000
  O   O2        1.0  0.66300  0.79400  0.04600  1.0000
  O   O3        1.0  0.33700  0.29400  0.45400  1.0000
  O   O4        1.0  0.16300  0.79400  0.45400  1.0000
  O   O5        1.0  0.83700  0.20600  0.54600  1.0000
  O   O6        1.0  0.66300  0.70600  0.54600  1.0000
  O   O7        1.0  0.33700  0.20600  0.95400  1.0000
  O   O8        1.0  0.16300  0.70600  0.95400  1.0000
  Se  Se1       1.0  0.15600  0.46600  0.16200  1.0000
  Se  Se2       1.0  0.34400  0.96600  0.16200  1.0000
  Se  Se3       1.0  0.65600  0.46600  0.33800  1.0000
  Se  Se4       1.0  0.84400  0.96600  0.33800  1.0000
  Se  Se5       1.0  0.15600  0.03440  0.66200  1.0000
  Se  Se6       1.0  0.34400  0.53400  0.66200  1.0000
  Se  Se7       1.0  0.65600  0.03440  0.83800  1.0000
  Se  Se8       1.0  0.84400  0.53400  0.83800  1.0000
