data_image0
_chemical_formula_structural       Ag8Be8O8Se8
_chemical_formula_sum              "Ag8 Be8 O8 Se8"
_cell_length_a       5.2297
_cell_length_b       16.7472
_cell_length_c       5.16188
_cell_angle_alpha    90
_cell_angle_beta     90
_cell_angle_gamma    90

_space_group_name_H-M_alt    "P 1"
_space_group_IT_number       1

loop_
  _space_group_symop_operation_xyz
  'x, y, z'

loop_
  _atom_site_type_symbol
  _atom_site_label
  _atom_site_symmetry_multiplicity
  _atom_site_fract_x
  _atom_site_fract_y
  _atom_site_fract_z
  _atom_site_occupancy
  Ag  Ag1       1.0  0.75100  0.41900  0.24900  1.0000
  Ag  Ag2       1.0  0.74900  0.91900  0.24900  1.0000
  Ag  Ag3       1.0  0.25100  0.41900  0.25100  1.0000
  Ag  Ag4       1.0  0.24900  0.91900  0.25100  1.0000
  Ag  Ag5       1.0  0.75100  0.08060  0.74900  1.0000
  Ag  Ag6       1.0  0.74900  0.58100  0.74900  1.0000
  Ag  Ag7       1.0  0.25100  0.08060  0.75100  1.0000
  Ag  Ag8       1.0  0.24900  0.58100  0.75100  1.0000
  Be  Be1       1.0  0.04870  0.24600  0.12600  1.0000
  Be  Be2       1.0  0.45100  0.74600  0.12600  1.0000
  Be  Be3       1.0  0.54900  0.24600  0.37400  1.0000
  Be  Be4       1.0  0.95100  0.74600  0.37400  1.0000
  Be  Be5       1.0  0.04870  0.25400  0.62600  1.0000
  Be  Be6       1.0  0.45100  0.75400  0.62600  1.0000
  Be  Be7       1.0  0.54900  0.25400  0.87400  1.0000
  Be  Be8       1.0  0.95100  0.75400  0.87400  1.0000
  O   O1        1.0  0.72600  0.26000  0.12700  1.0000
  O   O2        1.0  0.77400  0.76000  0.12700  1.0000
  O   O3        1.0  0.22600  0.26000  0.37300  1.0000
  O   O4        1.0  0.27400  0.76000  0.37300  1.0000
  O   O5        1.0  0.72600  0.24000  0.62700  1.0000
  O   O6        1.0  0.77400  0.74000  0.62700  1.0000
  O   O7        1.0  0.22600  0.24000  0.87300  1.0000
  O   O8        1.0  0.27400  0.74000  0.87300  1.0000
  Se  Se1       1.0  0.99600  0.08110  0.24800  1.0000
  Se  Se2       1.0  0.50400  0.58100  0.24800  1.0000
  Se  Se3       1.0  0.49600  0.08110  0.25200  1.0000
  Se  Se4       1.0  0.00382  0.58100  0.25200  1.0000
  Se  Se5       1.0  0.99600  0.41900  0.74800  1.0000
  Se  Se6       1.0  0.50400  0.91900  0.74800  1.0000
  Se  Se7       1.0  0.49600  0.41900  0.75200  1.0000
  Se  Se8       1.0  0.00382  0.91900  0.75200  1.0000
