data_image0
_chemical_formula_structural       O4Pb4Pd4Se4
_chemical_formula_sum              "O4 Pb4 Pd4 Se4"
_cell_length_a       6.47094
_cell_length_b       8.25031
_cell_length_c       5.98633
_cell_angle_alpha    90
_cell_angle_beta     90
_cell_angle_gamma    90

_space_group_name_H-M_alt    "P 1"
_space_group_IT_number       1

loop_
  _space_group_symop_operation_xyz
  'x, y, z'

loop_
  _atom_site_type_symbol
  _atom_site_label
  _atom_site_symmetry_multiplicity
  _atom_site_fract_x
  _atom_site_fract_y
  _atom_site_fract_z
  _atom_site_occupancy
  O   O1        1.0  0.08970  0.09250  0.08240  1.0000
  O   O2        1.0  0.59000  0.90700  0.08240  1.0000
  O   O3        1.0  0.41000  0.09250  0.58200  1.0000
  O   O4        1.0  0.91000  0.90700  0.58200  1.0000
  Pb  Pb1       1.0  0.06050  0.15100  0.47600  1.0000
  Pb  Pb2       1.0  0.56100  0.84900  0.47600  1.0000
  Pb  Pb3       1.0  0.43900  0.15100  0.97600  1.0000
  Pb  Pb4       1.0  0.93900  0.84900  0.97600  1.0000
  Pd  Pd1       1.0  0.58500  0.31600  0.49500  1.0000
  Pd  Pd2       1.0  0.08460  0.68400  0.49500  1.0000
  Pd  Pd3       1.0  0.91500  0.31600  0.99500  1.0000
  Pd  Pd4       1.0  0.41500  0.68400  0.99500  1.0000
  Se  Se1       1.0  0.18600  0.49600  0.19600  1.0000
  Se  Se2       1.0  0.68600  0.50400  0.19600  1.0000
  Se  Se3       1.0  0.31400  0.49600  0.69600  1.0000
  Se  Se4       1.0  0.81400  0.50400  0.69600  1.0000
