data_image0
_chemical_formula_structural       O2Pb2Sr2Te2
_chemical_formula_sum              "O2 Pb2 Sr2 Te2"
_cell_length_a       4.23977
_cell_length_b       6.59412
_cell_length_c       7.8641
_cell_angle_alpha    90
_cell_angle_beta     74.3616
_cell_angle_gamma    90

_space_group_name_H-M_alt    "P 1"
_space_group_IT_number       1

loop_
  _space_group_symop_operation_xyz
  'x, y, z'

loop_
  _atom_site_type_symbol
  _atom_site_label
  _atom_site_symmetry_multiplicity
  _atom_site_fract_x
  _atom_site_fract_y
  _atom_site_fract_z
  _atom_site_occupancy
  O   O1        1.0  0.00000  0.00000  0.00000  1.0000
  O   O2        1.0  0.00000  0.50000  0.00000  1.0000
  Pb  Pb1       1.0  0.43100  0.75000  0.13800  1.0000
  Pb  Pb2       1.0  0.56900  0.25000  0.86200  1.0000
  Sr  Sr1       1.0  0.88400  0.25000  0.23200  1.0000
  Sr  Sr2       1.0  0.11600  0.75000  0.76800  1.0000
  Te  Te1       1.0  0.78500  0.75000  0.43100  1.0000
  Te  Te2       1.0  0.21500  0.25000  0.56900  1.0000
