data_image0
_chemical_formula_structural       Ba4Mn4O4Te4
_chemical_formula_sum              "Ba4 Mn4 O4 Te4"
_cell_length_a       7.63931
_cell_length_b       3.85649
_cell_length_c       14.1552
_cell_angle_alpha    90
_cell_angle_beta     90
_cell_angle_gamma    90

_space_group_name_H-M_alt    "P 1"
_space_group_IT_number       1

loop_
  _space_group_symop_operation_xyz
  'x, y, z'

loop_
  _atom_site_type_symbol
  _atom_site_label
  _atom_site_symmetry_multiplicity
  _atom_site_fract_x
  _atom_site_fract_y
  _atom_site_fract_z
  _atom_site_occupancy
  Ba  Ba1       1.0  0.53800  0.25000  0.22300  1.0000
  Ba  Ba2       1.0  0.03810  0.25000  0.27700  1.0000
  Ba  Ba3       1.0  0.96200  0.75000  0.72300  1.0000
  Ba  Ba4       1.0  0.46200  0.75000  0.77700  1.0000
  Mn  Mn1       1.0  0.19800  0.75000  0.06450  1.0000
  Mn  Mn2       1.0  0.69800  0.75000  0.43500  1.0000
  Mn  Mn3       1.0  0.30200  0.25000  0.56500  1.0000
  Mn  Mn4       1.0  0.80200  0.25000  0.93500  1.0000
  O   O1        1.0  0.25500  0.25000  0.12800  1.0000
  O   O2        1.0  0.75500  0.25000  0.37200  1.0000
  O   O3        1.0  0.24500  0.75000  0.62800  1.0000
  O   O4        1.0  0.74500  0.75000  0.87200  1.0000
  Te  Te1       1.0  0.82500  0.75000  0.10000  1.0000
  Te  Te2       1.0  0.32500  0.75000  0.40000  1.0000
  Te  Te3       1.0  0.67500  0.25000  0.60000  1.0000
  Te  Te4       1.0  0.17500  0.25000  0.90000  1.0000
