data_image0
_chemical_formula_structural       Cu4O4Pd4Te4
_chemical_formula_sum              "Cu4 O4 Pd4 Te4"
_cell_length_a       5.09176
_cell_length_b       7.00405
_cell_length_c       7.44274
_cell_angle_alpha    90
_cell_angle_beta     90
_cell_angle_gamma    90

_space_group_name_H-M_alt    "P 1"
_space_group_IT_number       1

loop_
  _space_group_symop_operation_xyz
  'x, y, z'

loop_
  _atom_site_type_symbol
  _atom_site_label
  _atom_site_symmetry_multiplicity
  _atom_site_fract_x
  _atom_site_fract_y
  _atom_site_fract_z
  _atom_site_occupancy
  Cu  Cu1       1.0  0.55200  0.09340  0.07010  1.0000
  Cu  Cu2       1.0  0.44800  0.59300  0.43000  1.0000
  Cu  Cu3       1.0  0.94800  0.90700  0.57000  1.0000
  Cu  Cu4       1.0  0.05220  0.40700  0.93000  1.0000
  O   O1        1.0  0.20000  0.19300  0.10100  1.0000
  O   O2        1.0  0.80000  0.69300  0.39900  1.0000
  O   O3        1.0  0.30000  0.80700  0.60100  1.0000
  O   O4        1.0  0.70000  0.30700  0.89900  1.0000
  Pd  Pd1       1.0  0.31500  0.71200  0.08980  1.0000
  Pd  Pd2       1.0  0.68500  0.21200  0.41000  1.0000
  Pd  Pd3       1.0  0.18500  0.28800  0.59000  1.0000
  Pd  Pd4       1.0  0.81500  0.78800  0.91000  1.0000
  Te  Te1       1.0  0.98300  0.98000  0.20000  1.0000
  Te  Te2       1.0  0.01720  0.48000  0.30000  1.0000
  Te  Te3       1.0  0.51700  0.01970  0.70000  1.0000
  Te  Te4       1.0  0.48300  0.52000  0.80000  1.0000
