data_image0
_chemical_formula_structural       Cu48Ge6Se36
_chemical_formula_sum              "Cu48 Ge6 Se36"
_cell_length_a       12.7452
_cell_length_b       12.7452
_cell_length_c       11.8143
_cell_angle_alpha    90
_cell_angle_beta     90
_cell_angle_gamma    120.001

_space_group_name_H-M_alt    "P 1"
_space_group_IT_number       1

loop_
  _space_group_symop_operation_xyz
  'x, y, z'

loop_
  _atom_site_type_symbol
  _atom_site_label
  _atom_site_symmetry_multiplicity
  _atom_site_fract_x
  _atom_site_fract_y
  _atom_site_fract_z
  _atom_site_occupancy
  Cu  Cu1       1.0  0.83800  0.19500  0.05470  1.0000
  Cu  Cu2       1.0  0.19500  0.83800  0.05470  1.0000
  Cu  Cu3       1.0  0.35700  0.16200  0.05470  1.0000
  Cu  Cu4       1.0  0.16200  0.35700  0.05470  1.0000
  Cu  Cu5       1.0  0.80500  0.64300  0.05470  1.0000
  Cu  Cu6       1.0  0.64300  0.80500  0.05470  1.0000
  Cu  Cu7       1.0  0.53800  0.00000  0.27100  1.0000
  Cu  Cu8       1.0  0.00000  0.53800  0.27100  1.0000
  Cu  Cu9       1.0  0.46200  0.46200  0.27100  1.0000
  Cu  Cu10      1.0  0.81000  0.14200  0.33600  1.0000
  Cu  Cu11      1.0  0.85800  0.66800  0.33600  1.0000
  Cu  Cu12      1.0  0.14200  0.81000  0.33600  1.0000
  Cu  Cu13      1.0  0.66800  0.85800  0.33600  1.0000
  Cu  Cu14      1.0  0.33200  0.19100  0.33600  1.0000
  Cu  Cu15      1.0  0.19100  0.33200  0.33600  1.0000
  Cu  Cu16      1.0  0.87000  0.35800  0.43000  1.0000
  Cu  Cu17      1.0  0.35800  0.87000  0.43000  1.0000
  Cu  Cu18      1.0  0.48800  0.13000  0.43000  1.0000
  Cu  Cu19      1.0  0.13000  0.48800  0.43000  1.0000
  Cu  Cu20      1.0  0.64200  0.51200  0.43000  1.0000
  Cu  Cu21      1.0  0.51200  0.64200  0.43000  1.0000
  Cu  Cu22      1.0  0.81300  0.81300  0.45900  1.0000
  Cu  Cu23      1.0  0.18700  0.00000  0.45900  1.0000
  Cu  Cu24      1.0  0.00000  0.18700  0.45900  1.0000
  Cu  Cu25      1.0  0.80500  0.16200  0.55500  1.0000
  Cu  Cu26      1.0  0.16200  0.80500  0.55500  1.0000
  Cu  Cu27      1.0  0.35700  0.19500  0.55500  1.0000
  Cu  Cu28      1.0  0.19500  0.35700  0.55500  1.0000
  Cu  Cu29      1.0  0.83800  0.64300  0.55500  1.0000
  Cu  Cu30      1.0  0.64300  0.83800  0.55500  1.0000
  Cu  Cu31      1.0  0.46200  0.00000  0.77100  1.0000
  Cu  Cu32      1.0  0.00000  0.46200  0.77100  1.0000
  Cu  Cu33      1.0  0.53800  0.53800  0.77100  1.0000
  Cu  Cu34      1.0  0.33200  0.14200  0.83600  1.0000
  Cu  Cu35      1.0  0.85800  0.19000  0.83600  1.0000
  Cu  Cu36      1.0  0.14200  0.33200  0.83600  1.0000
  Cu  Cu37      1.0  0.19000  0.85800  0.83600  1.0000
  Cu  Cu38      1.0  0.80900  0.66800  0.83600  1.0000
  Cu  Cu39      1.0  0.66800  0.80900  0.83600  1.0000
  Cu  Cu40      1.0  0.64200  0.13000  0.93000  1.0000
  Cu  Cu41      1.0  0.13000  0.64200  0.93000  1.0000
  Cu  Cu42      1.0  0.87000  0.51200  0.93000  1.0000
  Cu  Cu43      1.0  0.51200  0.87000  0.93000  1.0000
  Cu  Cu44      1.0  0.48800  0.35800  0.93000  1.0000
  Cu  Cu45      1.0  0.35800  0.48800  0.93000  1.0000
  Cu  Cu46      1.0  0.18700  0.18700  0.95900  1.0000
  Cu  Cu47      1.0  0.81300  0.00000  0.95900  1.0000
  Cu  Cu48      1.0  0.00000  0.81300  0.95900  1.0000
  Ge  Ge1       1.0  0.66700  0.33300  0.17300  1.0000
  Ge  Ge2       1.0  0.33300  0.66700  0.17300  1.0000
  Ge  Ge3       1.0  0.00000  0.00000  0.20100  1.0000
  Ge  Ge4       1.0  0.66700  0.33300  0.67300  1.0000
  Ge  Ge5       1.0  0.33300  0.66700  0.67300  1.0000
  Ge  Ge6       1.0  0.00000  0.00000  0.70100  1.0000
  Se  Se1       1.0  0.00000  0.00000  0.00026  1.0000
  Se  Se2       1.0  0.65100  0.00000  0.07830  1.0000
  Se  Se3       1.0  0.00000  0.65100  0.07830  1.0000
  Se  Se4       1.0  0.34900  0.34900  0.07830  1.0000
  Se  Se5       1.0  0.84300  0.32400  0.22300  1.0000
  Se  Se6       1.0  0.67600  0.51900  0.22300  1.0000
  Se  Se7       1.0  0.51900  0.67600  0.22300  1.0000
  Se  Se8       1.0  0.32400  0.84300  0.22300  1.0000
  Se  Se9       1.0  0.48100  0.15700  0.22300  1.0000
  Se  Se10      1.0  0.15700  0.48100  0.22300  1.0000
  Se  Se11      1.0  0.81800  0.81800  0.24700  1.0000
  Se  Se12      1.0  0.18200  0.00000  0.24700  1.0000
  Se  Se13      1.0  0.00000  0.18200  0.24700  1.0000
  Se  Se14      1.0  0.64000  0.00000  0.44400  1.0000
  Se  Se15      1.0  0.00000  0.64000  0.44400  1.0000
  Se  Se16      1.0  0.36000  0.36000  0.44400  1.0000
  Se  Se17      1.0  0.66700  0.33300  0.47200  1.0000
  Se  Se18      1.0  0.33300  0.66700  0.47200  1.0000
  Se  Se19      1.0  0.00000  0.00000  0.50000  1.0000
  Se  Se20      1.0  0.34900  0.00000  0.57800  1.0000
  Se  Se21      1.0  0.00000  0.34900  0.57800  1.0000
  Se  Se22      1.0  0.65100  0.65100  0.57800  1.0000
  Se  Se23      1.0  0.48100  0.32400  0.72300  1.0000
  Se  Se24      1.0  0.32400  0.48100  0.72300  1.0000
  Se  Se25      1.0  0.67600  0.15700  0.72300  1.0000
  Se  Se26      1.0  0.15700  0.67600  0.72300  1.0000
  Se  Se27      1.0  0.84300  0.51900  0.72300  1.0000
  Se  Se28      1.0  0.51900  0.84300  0.72300  1.0000
  Se  Se29      1.0  0.18200  0.18200  0.74700  1.0000
  Se  Se30      1.0  0.81800  0.00000  0.74700  1.0000
  Se  Se31      1.0  0.00000  0.81800  0.74700  1.0000
  Se  Se32      1.0  0.36000  0.00000  0.94400  1.0000
  Se  Se33      1.0  0.00000  0.36000  0.94400  1.0000
  Se  Se34      1.0  0.64000  0.64000  0.94400  1.0000
  Se  Se35      1.0  0.66700  0.33300  0.97200  1.0000
  Se  Se36      1.0  0.33300  0.66700  0.97200  1.0000
