data_image0
_chemical_formula_structural       Cs6H2O16W4
_chemical_formula_sum              "Cs6 H2 O16 W4"
_cell_length_a       6.5135
_cell_length_b       8.76113
_cell_length_c       10.9941
_cell_angle_alpha    102.336
_cell_angle_beta     90
_cell_angle_gamma    111.822

_space_group_name_H-M_alt    "P 1"
_space_group_IT_number       1

loop_
  _space_group_symop_operation_xyz
  'x, y, z'

loop_
  _atom_site_type_symbol
  _atom_site_label
  _atom_site_symmetry_multiplicity
  _atom_site_fract_x
  _atom_site_fract_y
  _atom_site_fract_z
  _atom_site_occupancy
  Cs  Cs1       1.0  0.46300  0.38800  0.15000  1.0000
  Cs  Cs2       1.0  0.75700  0.00000  0.25000  1.0000
  Cs  Cs3       1.0  0.07500  0.61200  0.35000  1.0000
  Cs  Cs4       1.0  0.92500  0.38800  0.65000  1.0000
  Cs  Cs5       1.0  0.24300  0.00000  0.75000  1.0000
  Cs  Cs6       1.0  0.53700  0.61200  0.85000  1.0000
  H   H1        1.0  0.00000  0.00000  0.00000  1.0000
  H   H2        1.0  0.00000  0.00000  0.50000  1.0000
  O   O1        1.0  0.16000  0.99700  0.05660  1.0000
  O   O2        1.0  0.85400  0.67600  0.10200  1.0000
  O   O3        1.0  0.33100  0.74200  0.11600  1.0000
  O   O4        1.0  0.91400  0.32100  0.12500  1.0000
  O   O5        1.0  0.59300  0.67900  0.37500  1.0000
  O   O6        1.0  0.58900  0.25800  0.38400  1.0000
  O   O7        1.0  0.17900  0.32400  0.39800  1.0000
  O   O8        1.0  0.16300  0.00320  0.44300  1.0000
  O   O9        1.0  0.83700  0.99700  0.55700  1.0000
  O   O10       1.0  0.82100  0.67600  0.60200  1.0000
  O   O11       1.0  0.41100  0.74200  0.61600  1.0000
  O   O12       1.0  0.40700  0.32100  0.62500  1.0000
  O   O13       1.0  0.08570  0.67900  0.87500  1.0000
  O   O14       1.0  0.66900  0.25800  0.88400  1.0000
  O   O15       1.0  0.14600  0.32400  0.89800  1.0000
  O   O16       1.0  0.84000  0.00320  0.94300  1.0000
  W   W1        1.0  0.11100  0.77000  0.03900  1.0000
  W   W2        1.0  0.34100  0.23000  0.46100  1.0000
  W   W3        1.0  0.65900  0.77000  0.53900  1.0000
  W   W4        1.0  0.88900  0.23000  0.96100  1.0000
