data_image0
_chemical_formula_structural       Ba2O2Sr2Te2
_chemical_formula_sum              "Ba2 O2 Sr2 Te2"
_cell_length_a       4.80063
_cell_length_b       6.86517
_cell_length_c       7.82905
_cell_angle_alpha    90
_cell_angle_beta     72.1461
_cell_angle_gamma    90

_space_group_name_H-M_alt    "P 1"
_space_group_IT_number       1

loop_
  _space_group_symop_operation_xyz
  'x, y, z'

loop_
  _atom_site_type_symbol
  _atom_site_label
  _atom_site_symmetry_multiplicity
  _atom_site_fract_x
  _atom_site_fract_y
  _atom_site_fract_z
  _atom_site_occupancy
  Ba  Ba1       1.0  0.40100  0.75000  0.19800  1.0000
  Ba  Ba2       1.0  0.59900  0.25000  0.80200  1.0000
  O   O1        1.0  0.00000  0.00000  0.00000  1.0000
  O   O2        1.0  0.00000  0.50000  0.00000  1.0000
  Sr  Sr1       1.0  0.89500  0.25000  0.21000  1.0000
  Sr  Sr2       1.0  0.10500  0.75000  0.79000  1.0000
  Te  Te1       1.0  0.26400  0.25000  0.47300  1.0000
  Te  Te2       1.0  0.73600  0.75000  0.52700  1.0000
