data_image0
_chemical_formula_structural       Ge4O4Sn4Te4
_chemical_formula_sum              "Ge4 O4 Sn4 Te4"
_cell_length_a       7.47558
_cell_length_b       7.39075
_cell_length_c       6.87048
_cell_angle_alpha    90
_cell_angle_beta     90
_cell_angle_gamma    90

_space_group_name_H-M_alt    "P 1"
_space_group_IT_number       1

loop_
  _space_group_symop_operation_xyz
  'x, y, z'

loop_
  _atom_site_type_symbol
  _atom_site_label
  _atom_site_symmetry_multiplicity
  _atom_site_fract_x
  _atom_site_fract_y
  _atom_site_fract_z
  _atom_site_occupancy
  Ge  Ge1       1.0  0.36800  0.72500  0.09830  1.0000
  Ge  Ge2       1.0  0.63200  0.22500  0.40200  1.0000
  Ge  Ge3       1.0  0.13200  0.27500  0.59800  1.0000
  Ge  Ge4       1.0  0.86800  0.77500  0.90200  1.0000
  O   O1        1.0  0.56600  0.64200  0.21300  1.0000
  O   O2        1.0  0.43400  0.14200  0.28700  1.0000
  O   O3        1.0  0.93400  0.35800  0.71300  1.0000
  O   O4        1.0  0.06650  0.85800  0.78700  1.0000
  Sn  Sn1       1.0  0.26600  0.13900  0.04510  1.0000
  Sn  Sn2       1.0  0.73400  0.63900  0.45500  1.0000
  Sn  Sn3       1.0  0.23400  0.86100  0.54500  1.0000
  Sn  Sn4       1.0  0.76600  0.36100  0.95500  1.0000
  Te  Te1       1.0  0.90600  0.98800  0.24500  1.0000
  Te  Te2       1.0  0.09430  0.48800  0.25500  1.0000
  Te  Te3       1.0  0.59400  0.01200  0.74500  1.0000
  Te  Te4       1.0  0.40600  0.51200  0.75500  1.0000
