data_image0
_chemical_formula_structural       Ag2Fe2O2Te2
_chemical_formula_sum              "Ag2 Fe2 O2 Te2"
_cell_length_a       2.97291
_cell_length_b       5.68685
_cell_length_c       9.07949
_cell_angle_alpha    90
_cell_angle_beta     80.5774
_cell_angle_gamma    90

_space_group_name_H-M_alt    "P 1"
_space_group_IT_number       1

loop_
  _space_group_symop_operation_xyz
  'x, y, z'

loop_
  _atom_site_type_symbol
  _atom_site_label
  _atom_site_symmetry_multiplicity
  _atom_site_fract_x
  _atom_site_fract_y
  _atom_site_fract_z
  _atom_site_occupancy
  Ag  Ag1       1.0  0.82900  0.25000  0.34300  1.0000
  Ag  Ag2       1.0  0.17100  0.75000  0.65700  1.0000
  Fe  Fe1       1.0  0.49600  0.25000  0.00732  1.0000
  Fe  Fe2       1.0  0.50400  0.75000  0.99300  1.0000
  O   O1        1.0  0.00000  0.00000  0.00000  1.0000
  O   O2        1.0  0.00000  0.50000  0.00000  1.0000
  Te  Te1       1.0  0.81800  0.75000  0.36400  1.0000
  Te  Te2       1.0  0.18200  0.25000  0.63600  1.0000
