data_image0
_chemical_formula_structural       Fe4Mn4O4Te4
_chemical_formula_sum              "Fe4 Mn4 O4 Te4"
_cell_length_a       6.02844
_cell_length_b       3.80891
_cell_length_c       12.7788
_cell_angle_alpha    90
_cell_angle_beta     90
_cell_angle_gamma    90

_space_group_name_H-M_alt    "P 1"
_space_group_IT_number       1

loop_
  _space_group_symop_operation_xyz
  'x, y, z'

loop_
  _atom_site_type_symbol
  _atom_site_label
  _atom_site_symmetry_multiplicity
  _atom_site_fract_x
  _atom_site_fract_y
  _atom_site_fract_z
  _atom_site_occupancy
  Fe  Fe1       1.0  0.50100  0.25000  0.25000  1.0000
  Fe  Fe2       1.0  0.00134  0.25000  0.25000  1.0000
  Fe  Fe3       1.0  0.99900  0.75000  0.75000  1.0000
  Fe  Fe4       1.0  0.49900  0.75000  0.75000  1.0000
  Mn  Mn1       1.0  0.25100  0.75000  0.07190  1.0000
  Mn  Mn2       1.0  0.75100  0.75000  0.42800  1.0000
  Mn  Mn3       1.0  0.24900  0.25000  0.57200  1.0000
  Mn  Mn4       1.0  0.74900  0.25000  0.92800  1.0000
  O   O1        1.0  0.25100  0.25000  0.15100  1.0000
  O   O2        1.0  0.75100  0.25000  0.34900  1.0000
  O   O3        1.0  0.24900  0.75000  0.65100  1.0000
  O   O4        1.0  0.74900  0.75000  0.84900  1.0000
  Te  Te1       1.0  0.75100  0.75000  0.11200  1.0000
  Te  Te2       1.0  0.25100  0.75000  0.38800  1.0000
  Te  Te3       1.0  0.74900  0.25000  0.61200  1.0000
  Te  Te4       1.0  0.24900  0.25000  0.88800  1.0000
