data_image0
_chemical_formula_structural       Co4Fe4O4Se4
_chemical_formula_sum              "Co4 Fe4 O4 Se4"
_cell_length_a       6.04228
_cell_length_b       3.436
_cell_length_c       11.8447
_cell_angle_alpha    90
_cell_angle_beta     90
_cell_angle_gamma    90

_space_group_name_H-M_alt    "P 1"
_space_group_IT_number       1

loop_
  _space_group_symop_operation_xyz
  'x, y, z'

loop_
  _atom_site_type_symbol
  _atom_site_label
  _atom_site_symmetry_multiplicity
  _atom_site_fract_x
  _atom_site_fract_y
  _atom_site_fract_z
  _atom_site_occupancy
  Co  Co1       1.0  0.22400  0.75000  0.05320  1.0000
  Co  Co2       1.0  0.72400  0.75000  0.44700  1.0000
  Co  Co3       1.0  0.27600  0.25000  0.55300  1.0000
  Co  Co4       1.0  0.77600  0.25000  0.94700  1.0000
  Fe  Fe1       1.0  0.54900  0.25000  0.24100  1.0000
  Fe  Fe2       1.0  0.04870  0.25000  0.25900  1.0000
  Fe  Fe3       1.0  0.95100  0.75000  0.74100  1.0000
  Fe  Fe4       1.0  0.45100  0.75000  0.75900  1.0000
  O   O1        1.0  0.28600  0.25000  0.14300  1.0000
  O   O2        1.0  0.78600  0.25000  0.35700  1.0000
  O   O3        1.0  0.21400  0.75000  0.64300  1.0000
  O   O4        1.0  0.71400  0.75000  0.85700  1.0000
  Se  Se1       1.0  0.79800  0.75000  0.11300  1.0000
  Se  Se2       1.0  0.29800  0.75000  0.38700  1.0000
  Se  Se3       1.0  0.70200  0.25000  0.61300  1.0000
  Se  Se4       1.0  0.20200  0.25000  0.88700  1.0000
