data_image0
_chemical_formula_structural       H4O16Sc4Si4
_chemical_formula_sum              "H4 O16 Sc4 Si4"
_cell_length_a       7.44413
_cell_length_b       6.30167
_cell_length_c       6.45029
_cell_angle_alpha    90
_cell_angle_beta     113.431
_cell_angle_gamma    90

_space_group_name_H-M_alt    "P 1"
_space_group_IT_number       1

loop_
  _space_group_symop_operation_xyz
  'x, y, z'

loop_
  _atom_site_type_symbol
  _atom_site_label
  _atom_site_symmetry_multiplicity
  _atom_site_fract_x
  _atom_site_fract_y
  _atom_site_fract_z
  _atom_site_occupancy
  H   H1        1.0  0.51100  0.80800  0.10600  1.0000
  H   H2        1.0  0.48900  0.30800  0.39400  1.0000
  H   H3        1.0  0.51100  0.69200  0.60600  1.0000
  H   H4        1.0  0.48900  0.19200  0.89400  1.0000
  O   O1        1.0  0.10400  0.31000  0.05320  1.0000
  O   O2        1.0  0.72900  0.04260  0.06410  1.0000
  O   O3        1.0  0.52500  0.69600  0.21800  1.0000
  O   O4        1.0  0.80600  0.42700  0.21900  1.0000
  O   O5        1.0  0.19400  0.92700  0.28100  1.0000
  O   O6        1.0  0.47500  0.19600  0.28200  1.0000
  O   O7        1.0  0.27100  0.54300  0.43600  1.0000
  O   O8        1.0  0.89600  0.81000  0.44700  1.0000
  O   O9        1.0  0.10400  0.19000  0.55300  1.0000
  O   O10       1.0  0.72900  0.45700  0.56400  1.0000
  O   O11       1.0  0.52500  0.80400  0.71800  1.0000
  O   O12       1.0  0.80600  0.07260  0.71900  1.0000
  O   O13       1.0  0.19400  0.57300  0.78100  1.0000
  O   O14       1.0  0.47500  0.30400  0.78200  1.0000
  O   O15       1.0  0.27100  0.95700  0.93600  1.0000
  O   O16       1.0  0.89600  0.69000  0.94700  1.0000
  Sc  Sc1       1.0  0.19700  0.64300  0.10100  1.0000
  Sc  Sc2       1.0  0.80300  0.14300  0.39900  1.0000
  Sc  Sc3       1.0  0.19700  0.85700  0.60100  1.0000
  Sc  Sc4       1.0  0.80300  0.35700  0.89900  1.0000
  Si  Si1       1.0  0.24800  0.10400  0.13100  1.0000
  Si  Si2       1.0  0.75200  0.60400  0.36900  1.0000
  Si  Si3       1.0  0.24800  0.39600  0.63100  1.0000
  Si  Si4       1.0  0.75200  0.89600  0.86900  1.0000
