data_image0
_chemical_formula_structural       Ag2Cu2O2Te2
_chemical_formula_sum              "Ag2 Cu2 O2 Te2"
_cell_length_a       3.06372
_cell_length_b       5.6451
_cell_length_c       7.78794
_cell_angle_alpha    90
_cell_angle_beta     78.6561
_cell_angle_gamma    90

_space_group_name_H-M_alt    "P 1"
_space_group_IT_number       1

loop_
  _space_group_symop_operation_xyz
  'x, y, z'

loop_
  _atom_site_type_symbol
  _atom_site_label
  _atom_site_symmetry_multiplicity
  _atom_site_fract_x
  _atom_site_fract_y
  _atom_site_fract_z
  _atom_site_occupancy
  Ag  Ag1       1.0  0.85500  0.25000  0.29000  1.0000
  Ag  Ag2       1.0  0.14500  0.75000  0.71000  1.0000
  Cu  Cu1       1.0  0.48700  0.75000  0.02670  1.0000
  Cu  Cu2       1.0  0.51300  0.25000  0.97300  1.0000
  O   O1        1.0  0.00000  0.00000  0.00000  1.0000
  O   O2        1.0  0.00000  0.50000  0.00000  1.0000
  Te  Te1       1.0  0.81100  0.75000  0.37900  1.0000
  Te  Te2       1.0  0.18900  0.25000  0.62100  1.0000
