data_image0
_chemical_formula_structural       Ba2O2Te2Zn2
_chemical_formula_sum              "Ba2 O2 Te2 Zn2"
_cell_length_a       4.27275
_cell_length_b       6.32117
_cell_length_c       7.32981
_cell_angle_alpha    90
_cell_angle_beta     73.0544
_cell_angle_gamma    90

_space_group_name_H-M_alt    "P 1"
_space_group_IT_number       1

loop_
  _space_group_symop_operation_xyz
  'x, y, z'

loop_
  _atom_site_type_symbol
  _atom_site_label
  _atom_site_symmetry_multiplicity
  _atom_site_fract_x
  _atom_site_fract_y
  _atom_site_fract_z
  _atom_site_occupancy
  Ba  Ba1       1.0  0.40800  0.75000  0.18400  1.0000
  Ba  Ba2       1.0  0.59200  0.25000  0.81600  1.0000
  O   O1        1.0  0.00000  0.00000  0.00000  1.0000
  O   O2        1.0  0.00000  0.50000  0.00000  1.0000
  Te  Te1       1.0  0.30200  0.25000  0.39600  1.0000
  Te  Te2       1.0  0.69800  0.75000  0.60400  1.0000
  Zn  Zn1       1.0  0.91000  0.25000  0.17900  1.0000
  Zn  Zn2       1.0  0.08970  0.75000  0.82100  1.0000
