data_image0
_chemical_formula_structural       Co4O4Te4Zn4
_chemical_formula_sum              "Co4 O4 Te4 Zn4"
_cell_length_a       5.95446
_cell_length_b       3.56436
_cell_length_c       13.4955
_cell_angle_alpha    90
_cell_angle_beta     90
_cell_angle_gamma    90

_space_group_name_H-M_alt    "P 1"
_space_group_IT_number       1

loop_
  _space_group_symop_operation_xyz
  'x, y, z'

loop_
  _atom_site_type_symbol
  _atom_site_label
  _atom_site_symmetry_multiplicity
  _atom_site_fract_x
  _atom_site_fract_y
  _atom_site_fract_z
  _atom_site_occupancy
  Co  Co1       1.0  0.59500  0.25000  0.19800  1.0000
  Co  Co2       1.0  0.09470  0.25000  0.30200  1.0000
  Co  Co3       1.0  0.90500  0.75000  0.69800  1.0000
  Co  Co4       1.0  0.40500  0.75000  0.80200  1.0000
  O   O1        1.0  0.26600  0.25000  0.17900  1.0000
  O   O2        1.0  0.76600  0.25000  0.32100  1.0000
  O   O3        1.0  0.23400  0.75000  0.67900  1.0000
  O   O4        1.0  0.73400  0.75000  0.82100  1.0000
  Te  Te1       1.0  0.75400  0.75000  0.07430  1.0000
  Te  Te2       1.0  0.25400  0.75000  0.42600  1.0000
  Te  Te3       1.0  0.74600  0.25000  0.57400  1.0000
  Te  Te4       1.0  0.24600  0.25000  0.92600  1.0000
  Zn  Zn1       1.0  0.19300  0.75000  0.11100  1.0000
  Zn  Zn2       1.0  0.69300  0.75000  0.38900  1.0000
  Zn  Zn3       1.0  0.30700  0.25000  0.61100  1.0000
  Zn  Zn4       1.0  0.80700  0.25000  0.88900  1.0000
