data_image0
_chemical_formula_structural       Gd2O2Pd2Te2
_chemical_formula_sum              "Gd2 O2 Pd2 Te2"
_cell_length_a       4.83306
_cell_length_b       4.83306
_cell_length_c       8.62159
_cell_angle_alpha    106.277
_cell_angle_beta     106.277
_cell_angle_gamma    60

_space_group_name_H-M_alt    "P 1"
_space_group_IT_number       1

loop_
  _space_group_symop_operation_xyz
  'x, y, z'

loop_
  _atom_site_type_symbol
  _atom_site_label
  _atom_site_symmetry_multiplicity
  _atom_site_fract_x
  _atom_site_fract_y
  _atom_site_fract_z
  _atom_site_occupancy
  Gd  Gd1       1.0  0.78400  0.78400  0.35300  1.0000
  Gd  Gd2       1.0  0.21600  0.21600  0.64700  1.0000
  O   O1        1.0  0.70100  0.70100  0.10400  1.0000
  O   O2        1.0  0.29900  0.29900  0.89600  1.0000
  Pd  Pd1       1.0  0.39100  0.39100  0.17200  1.0000
  Pd  Pd2       1.0  0.60900  0.60900  0.82800  1.0000
  Te  Te1       1.0  0.07110  0.07110  0.21300  1.0000
  Te  Te2       1.0  0.92900  0.92900  0.78700  1.0000
