data_image0
_chemical_formula_structural       O4Pb4Pd4Te4
_chemical_formula_sum              "O4 Pb4 Pd4 Te4"
_cell_length_a       5.09721
_cell_length_b       9.14825
_cell_length_c       8.32904
_cell_angle_alpha    90
_cell_angle_beta     90
_cell_angle_gamma    90

_space_group_name_H-M_alt    "P 1"
_space_group_IT_number       1

loop_
  _space_group_symop_operation_xyz
  'x, y, z'

loop_
  _atom_site_type_symbol
  _atom_site_label
  _atom_site_symmetry_multiplicity
  _atom_site_fract_x
  _atom_site_fract_y
  _atom_site_fract_z
  _atom_site_occupancy
  O   O1        1.0  0.63700  0.28200  0.13600  1.0000
  O   O2        1.0  0.36300  0.78200  0.36400  1.0000
  O   O3        1.0  0.86300  0.71800  0.63600  1.0000
  O   O4        1.0  0.13700  0.21800  0.86400  1.0000
  Pb  Pb1       1.0  0.36200  0.09820  0.05770  1.0000
  Pb  Pb2       1.0  0.63800  0.59800  0.44200  1.0000
  Pb  Pb3       1.0  0.13800  0.90200  0.55800  1.0000
  Pb  Pb4       1.0  0.86200  0.40200  0.94200  1.0000
  Pd  Pd1       1.0  0.35400  0.76700  0.10400  1.0000
  Pd  Pd2       1.0  0.64600  0.26700  0.39600  1.0000
  Pd  Pd3       1.0  0.14600  0.23300  0.60400  1.0000
  Pd  Pd4       1.0  0.85400  0.73300  0.89600  1.0000
  Te  Te1       1.0  0.85700  0.81700  0.19100  1.0000
  Te  Te2       1.0  0.14300  0.31700  0.30900  1.0000
  Te  Te3       1.0  0.64300  0.18300  0.69100  1.0000
  Te  Te4       1.0  0.35700  0.68300  0.80900  1.0000
