data_image0
_chemical_formula_structural       Gd2Ni2O2Te2
_chemical_formula_sum              "Gd2 Ni2 O2 Te2"
_cell_length_a       5.22276
_cell_length_b       5.22276
_cell_length_c       8.76876
_cell_angle_alpha    107.326
_cell_angle_beta     107.326
_cell_angle_gamma    60

_space_group_name_H-M_alt    "P 1"
_space_group_IT_number       1

loop_
  _space_group_symop_operation_xyz
  'x, y, z'

loop_
  _atom_site_type_symbol
  _atom_site_label
  _atom_site_symmetry_multiplicity
  _atom_site_fract_x
  _atom_site_fract_y
  _atom_site_fract_z
  _atom_site_occupancy
  Gd  Gd1       1.0  0.77300  0.77300  0.31800  1.0000
  Gd  Gd2       1.0  0.22700  0.22700  0.68200  1.0000
  Ni  Ni1       1.0  0.38200  0.38200  0.14700  1.0000
  Ni  Ni2       1.0  0.61800  0.61800  0.85300  1.0000
  O   O1        1.0  0.69400  0.69400  0.08090  1.0000
  O   O2        1.0  0.30600  0.30600  0.91900  1.0000
  Te  Te1       1.0  0.08960  0.08960  0.26900  1.0000
  Te  Te2       1.0  0.91000  0.91000  0.73100  1.0000
