data_image0
_chemical_formula_structural       Co2O2Pb2Te2
_chemical_formula_sum              "Co2 O2 Pb2 Te2"
_cell_length_a       4.14818
_cell_length_b       4.14893
_cell_length_c       12.392
_cell_angle_alpha    90
_cell_angle_beta     90
_cell_angle_gamma    120.007

_space_group_name_H-M_alt    "P 1"
_space_group_IT_number       1

loop_
  _space_group_symop_operation_xyz
  'x, y, z'

loop_
  _atom_site_type_symbol
  _atom_site_label
  _atom_site_symmetry_multiplicity
  _atom_site_fract_x
  _atom_site_fract_y
  _atom_site_fract_z
  _atom_site_occupancy
  Co  Co1       1.0  0.00000  0.00000  0.49100  1.0000
  Co  Co2       1.0  0.00000  0.00000  0.99100  1.0000
  O   O1        1.0  0.00017  0.00032  0.33900  1.0000
  O   O2        1.0  0.00000  0.00000  0.83900  1.0000
  Pb  Pb1       1.0  0.33300  0.66700  0.28000  1.0000
  Pb  Pb2       1.0  0.66700  0.33300  0.78000  1.0000
  Te  Te1       1.0  0.66700  0.33300  0.07780  1.0000
  Te  Te2       1.0  0.33300  0.66700  0.57800  1.0000
