data_image0
_chemical_formula_structural       Cu4Hf3Sn4
_chemical_formula_sum              "Cu4 Hf3 Sn4"
_cell_length_a       6.14828
_cell_length_b       6.14828
_cell_length_c       7.52843
_cell_angle_alpha    65.8996
_cell_angle_beta     65.8996
_cell_angle_gamma    90

_space_group_name_H-M_alt    "P 1"
_space_group_IT_number       1

loop_
  _space_group_symop_operation_xyz
  'x, y, z'

loop_
  _atom_site_type_symbol
  _atom_site_label
  _atom_site_symmetry_multiplicity
  _atom_site_fract_x
  _atom_site_fract_y
  _atom_site_fract_z
  _atom_site_occupancy
  Cu  Cu1       1.0  0.62300  0.12800  0.24900  1.0000
  Cu  Cu2       1.0  0.12800  0.62300  0.24900  1.0000
  Cu  Cu3       1.0  0.37700  0.37700  0.75100  1.0000
  Cu  Cu4       1.0  0.87200  0.87200  0.75100  1.0000
  Hf  Hf1       1.0  0.50000  0.50000  0.00000  1.0000
  Hf  Hf2       1.0  0.75000  0.25000  0.50000  1.0000
  Hf  Hf3       1.0  0.25000  0.75000  0.50000  1.0000
  Sn  Sn1       1.0  0.50000  0.00000  0.00000  1.0000
  Sn  Sn2       1.0  0.00000  0.50000  0.00000  1.0000
  Sn  Sn3       1.0  0.75800  0.75800  0.48300  1.0000
  Sn  Sn4       1.0  0.24200  0.24200  0.51700  1.0000
