data_image0
_chemical_formula_structural       Pb5Pt5Ta4
_chemical_formula_sum              "Pb5 Pt5 Ta4"
_cell_length_a       6.36864
_cell_length_b       7.76961
_cell_length_c       7.76961
_cell_angle_alpha    80.3301
_cell_angle_beta     114.195
_cell_angle_gamma    114.195

_space_group_name_H-M_alt    "P 1"
_space_group_IT_number       1

loop_
  _space_group_symop_operation_xyz
  'x, y, z'

loop_
  _atom_site_type_symbol
  _atom_site_label
  _atom_site_symmetry_multiplicity
  _atom_site_fract_x
  _atom_site_fract_y
  _atom_site_fract_z
  _atom_site_occupancy
  Pb  Pb1       1.0  0.50000  0.00000  0.00000  1.0000
  Pb  Pb2       1.0  0.90400  0.64900  0.19000  1.0000
  Pb  Pb3       1.0  0.28700  0.19000  0.35100  1.0000
  Pb  Pb4       1.0  0.74500  0.81000  0.64900  1.0000
  Pb  Pb5       1.0  0.06460  0.35100  0.81000  1.0000
  Pt  Pt1       1.0  0.93500  0.33000  0.10900  1.0000
  Pt  Pt2       1.0  0.39500  0.89100  0.33000  1.0000
  Pt  Pt3       1.0  0.75000  0.50000  0.50000  1.0000
  Pt  Pt4       1.0  0.17500  0.10900  0.67000  1.0000
  Pt  Pt5       1.0  0.49500  0.67000  0.89100  1.0000
  Ta  Ta1       1.0  0.39700  0.60000  0.20500  1.0000
  Ta  Ta2       1.0  0.80800  0.20500  0.40000  1.0000
  Ta  Ta3       1.0  0.20300  0.79500  0.60000  1.0000
  Ta  Ta4       1.0  0.59300  0.40000  0.79500  1.0000
