data_image0
_chemical_formula_structural       Mg4O16P4Rb4
_chemical_formula_sum              "Mg4 O16 P4 Rb4"
_cell_length_a       8.49811
_cell_length_b       5.44957
_cell_length_c       9.56649
_cell_angle_alpha    90
_cell_angle_beta     90
_cell_angle_gamma    90

_space_group_name_H-M_alt    "P 1"
_space_group_IT_number       1

loop_
  _space_group_symop_operation_xyz
  'x, y, z'

loop_
  _atom_site_type_symbol
  _atom_site_label
  _atom_site_symmetry_multiplicity
  _atom_site_fract_x
  _atom_site_fract_y
  _atom_site_fract_z
  _atom_site_occupancy
  Mg  Mg1       1.0  0.17900  0.75000  0.07970  1.0000
  Mg  Mg2       1.0  0.67900  0.75000  0.42000  1.0000
  Mg  Mg3       1.0  0.32100  0.25000  0.58000  1.0000
  Mg  Mg4       1.0  0.82100  0.25000  0.92000  1.0000
  O   O1        1.0  0.70800  0.52000  0.00148  1.0000
  O   O2        1.0  0.70800  0.98000  0.00148  1.0000
  O   O3        1.0  0.95600  0.75000  0.06320  1.0000
  O   O4        1.0  0.72200  0.75000  0.22700  1.0000
  O   O5        1.0  0.22200  0.75000  0.27300  1.0000
  O   O6        1.0  0.45600  0.75000  0.43700  1.0000
  O   O7        1.0  0.20800  0.52000  0.49900  1.0000
  O   O8        1.0  0.20800  0.98000  0.49900  1.0000
  O   O9        1.0  0.79200  0.02010  0.50100  1.0000
  O   O10       1.0  0.79200  0.48000  0.50100  1.0000
  O   O11       1.0  0.54400  0.25000  0.56300  1.0000
  O   O12       1.0  0.77800  0.25000  0.72700  1.0000
  O   O13       1.0  0.27800  0.25000  0.77300  1.0000
  O   O14       1.0  0.04360  0.25000  0.93700  1.0000
  O   O15       1.0  0.29200  0.02010  0.99900  1.0000
  O   O16       1.0  0.29200  0.48000  0.99900  1.0000
  P   P1        1.0  0.77600  0.75000  0.07460  1.0000
  P   P2        1.0  0.27600  0.75000  0.42500  1.0000
  P   P3        1.0  0.72400  0.25000  0.57500  1.0000
  P   P4        1.0  0.22400  0.25000  0.92500  1.0000
  Rb  Rb1       1.0  0.50500  0.25000  0.19700  1.0000
  Rb  Rb2       1.0  0.00458  0.25000  0.30300  1.0000
  Rb  Rb3       1.0  0.99500  0.75000  0.69700  1.0000
  Rb  Rb4       1.0  0.49500  0.75000  0.80300  1.0000
