data_image0
_chemical_formula_structural       Cd2Gd2O2Te2
_chemical_formula_sum              "Cd2 Gd2 O2 Te2"
_cell_length_a       4.62934
_cell_length_b       4.62934
_cell_length_c       12.0412
_cell_angle_alpha    78.9171
_cell_angle_beta     101.083
_cell_angle_gamma    120

_space_group_name_H-M_alt    "P 1"
_space_group_IT_number       1

loop_
  _space_group_symop_operation_xyz
  'x, y, z'

loop_
  _atom_site_type_symbol
  _atom_site_label
  _atom_site_symmetry_multiplicity
  _atom_site_fract_x
  _atom_site_fract_y
  _atom_site_fract_z
  _atom_site_occupancy
  Cd  Cd1       1.0  0.36600  0.63400  0.09940  1.0000
  Cd  Cd2       1.0  0.63400  0.36600  0.90100  1.0000
  Gd  Gd1       1.0  0.75600  0.24400  0.26700  1.0000
  Gd  Gd2       1.0  0.24400  0.75600  0.73300  1.0000
  O   O1        1.0  0.69600  0.30400  0.08870  1.0000
  O   O2        1.0  0.30400  0.69600  0.91100  1.0000
  Te  Te1       1.0  0.12800  0.87200  0.38400  1.0000
  Te  Te2       1.0  0.87200  0.12800  0.61600  1.0000
