data_image0
_chemical_formula_structural       Ni5Sn5Ta4
_chemical_formula_sum              "Ni5 Sn5 Ta4"
_cell_length_a       5.97088
_cell_length_b       7.29072
_cell_length_c       7.29072
_cell_angle_alpha    80.3471
_cell_angle_beta     114.173
_cell_angle_gamma    114.173

_space_group_name_H-M_alt    "P 1"
_space_group_IT_number       1

loop_
  _space_group_symop_operation_xyz
  'x, y, z'

loop_
  _atom_site_type_symbol
  _atom_site_label
  _atom_site_symmetry_multiplicity
  _atom_site_fract_x
  _atom_site_fract_y
  _atom_site_fract_z
  _atom_site_occupancy
  Ni  Ni1       1.0  0.94100  0.32100  0.10600  1.0000
  Ni  Ni2       1.0  0.38000  0.89400  0.32100  1.0000
  Ni  Ni3       1.0  0.75000  0.50000  0.50000  1.0000
  Ni  Ni4       1.0  0.16500  0.10600  0.67900  1.0000
  Ni  Ni5       1.0  0.51400  0.67900  0.89400  1.0000
  Sn  Sn1       1.0  0.50000  0.00000  0.00000  1.0000
  Sn  Sn2       1.0  0.90400  0.62900  0.19200  1.0000
  Sn  Sn3       1.0  0.28900  0.19200  0.37100  1.0000
  Sn  Sn4       1.0  0.72500  0.80800  0.62900  1.0000
  Sn  Sn5       1.0  0.08270  0.37100  0.80800  1.0000
  Ta  Ta1       1.0  0.39700  0.60100  0.20100  1.0000
  Ta  Ta2       1.0  0.80400  0.20100  0.39900  1.0000
  Ta  Ta3       1.0  0.20400  0.79900  0.60100  1.0000
  Ta  Ta4       1.0  0.59500  0.39900  0.79900  1.0000
