data_image0
_chemical_formula_structural       Cu4Mn4O4Te4
_chemical_formula_sum              "Cu4 Mn4 O4 Te4"
_cell_length_a       6.10499
_cell_length_b       3.37856
_cell_length_c       13.5227
_cell_angle_alpha    90
_cell_angle_beta     90
_cell_angle_gamma    90

_space_group_name_H-M_alt    "P 1"
_space_group_IT_number       1

loop_
  _space_group_symop_operation_xyz
  'x, y, z'

loop_
  _atom_site_type_symbol
  _atom_site_label
  _atom_site_symmetry_multiplicity
  _atom_site_fract_x
  _atom_site_fract_y
  _atom_site_fract_z
  _atom_site_occupancy
  Cu  Cu1       1.0  0.52700  0.25000  0.24500  1.0000
  Cu  Cu2       1.0  0.02740  0.25000  0.25500  1.0000
  Cu  Cu3       1.0  0.97300  0.75000  0.74500  1.0000
  Cu  Cu4       1.0  0.47300  0.75000  0.75500  1.0000
  Mn  Mn1       1.0  0.25900  0.75000  0.08340  1.0000
  Mn  Mn2       1.0  0.75900  0.75000  0.41700  1.0000
  Mn  Mn3       1.0  0.24100  0.25000  0.58300  1.0000
  Mn  Mn4       1.0  0.74100  0.25000  0.91700  1.0000
  O   O1        1.0  0.27000  0.25000  0.16800  1.0000
  O   O2        1.0  0.77000  0.25000  0.33200  1.0000
  O   O3        1.0  0.23000  0.75000  0.66800  1.0000
  O   O4        1.0  0.73000  0.75000  0.83200  1.0000
  Te  Te1       1.0  0.76200  0.75000  0.09410  1.0000
  Te  Te2       1.0  0.26200  0.75000  0.40600  1.0000
  Te  Te3       1.0  0.73800  0.25000  0.59400  1.0000
  Te  Te4       1.0  0.23800  0.25000  0.90600  1.0000
