data_image0
_chemical_formula_structural       Gd2O2Pt2Te2
_chemical_formula_sum              "Gd2 O2 Pt2 Te2"
_cell_length_a       4.86163
_cell_length_b       4.86162
_cell_length_c       8.44722
_cell_angle_alpha    73.2758
_cell_angle_beta     106.724
_cell_angle_gamma    120

_space_group_name_H-M_alt    "P 1"
_space_group_IT_number       1

loop_
  _space_group_symop_operation_xyz
  'x, y, z'

loop_
  _atom_site_type_symbol
  _atom_site_label
  _atom_site_symmetry_multiplicity
  _atom_site_fract_x
  _atom_site_fract_y
  _atom_site_fract_z
  _atom_site_occupancy
  Gd  Gd1       1.0  0.78200  0.21800  0.34500  1.0000
  Gd  Gd2       1.0  0.21800  0.78200  0.65500  1.0000
  O   O1        1.0  0.69500  0.30500  0.08560  1.0000
  O   O2        1.0  0.30500  0.69500  0.91400  1.0000
  Pt  Pt1       1.0  0.39500  0.60500  0.18400  1.0000
  Pt  Pt2       1.0  0.60500  0.39500  0.81600  1.0000
  Te  Te1       1.0  0.06890  0.93100  0.20700  1.0000
  Te  Te2       1.0  0.93100  0.06890  0.79300  1.0000
