data_image0
_chemical_formula_structural       H2O8P2Yb2
_chemical_formula_sum              "H2 O8 P2 Yb2"
_cell_length_a       4.75239
_cell_length_b       6.62822
_cell_length_c       4.4907
_cell_angle_alpha    90
_cell_angle_beta     97.0647
_cell_angle_gamma    90

_space_group_name_H-M_alt    "P 1"
_space_group_IT_number       1

loop_
  _space_group_symop_operation_xyz
  'x, y, z'

loop_
  _atom_site_type_symbol
  _atom_site_label
  _atom_site_symmetry_multiplicity
  _atom_site_fract_x
  _atom_site_fract_y
  _atom_site_fract_z
  _atom_site_occupancy
  H   H1        1.0  0.00000  0.00000  0.50000  1.0000
  H   H2        1.0  0.00000  0.50000  0.50000  1.0000
  O   O1        1.0  0.70400  0.25000  0.22400  1.0000
  O   O2        1.0  0.12200  0.56400  0.29700  1.0000
  O   O3        1.0  0.12200  0.93600  0.29700  1.0000
  O   O4        1.0  0.60100  0.75000  0.35900  1.0000
  O   O5        1.0  0.39900  0.25000  0.64100  1.0000
  O   O6        1.0  0.87800  0.06390  0.70300  1.0000
  O   O7        1.0  0.87800  0.43600  0.70300  1.0000
  O   O8        1.0  0.29600  0.75000  0.77600  1.0000
  P   P1        1.0  0.30100  0.75000  0.43700  1.0000
  P   P2        1.0  0.69900  0.25000  0.56300  1.0000
  Yb  Yb1       1.0  0.19800  0.25000  0.07660  1.0000
  Yb  Yb2       1.0  0.80200  0.75000  0.92300  1.0000
