data_image0
_chemical_formula_structural       Ag2Bi4Cs2S8
_chemical_formula_sum              "Ag2 Bi4 Cs2 S8"
_cell_length_a       4.13314
_cell_length_b       4.13308
_cell_length_c       28.7001
_cell_angle_alpha    90
_cell_angle_beta     90
_cell_angle_gamma    120.001

_space_group_name_H-M_alt    "P 1"
_space_group_IT_number       1

loop_
  _space_group_symop_operation_xyz
  'x, y, z'

loop_
  _atom_site_type_symbol
  _atom_site_label
  _atom_site_symmetry_multiplicity
  _atom_site_fract_x
  _atom_site_fract_y
  _atom_site_fract_z
  _atom_site_occupancy
  Ag  Ag1       1.0  0.00000  0.00000  0.00000  1.0000
  Ag  Ag2       1.0  0.00000  0.00000  0.50000  1.0000
  Bi  Bi1       1.0  0.33300  0.66700  0.10800  1.0000
  Bi  Bi2       1.0  0.33300  0.66700  0.39200  1.0000
  Bi  Bi3       1.0  0.66700  0.33300  0.60800  1.0000
  Bi  Bi4       1.0  0.66700  0.33300  0.89200  1.0000
  Cs  Cs1       1.0  0.66700  0.33300  0.25000  1.0000
  Cs  Cs2       1.0  0.33300  0.66700  0.75000  1.0000
  S   S1        1.0  0.66700  0.33300  0.05210  1.0000
  S   S2        1.0  0.00000  0.00000  0.16300  1.0000
  S   S3        1.0  0.00000  0.00000  0.33700  1.0000
  S   S4        1.0  0.66700  0.33300  0.44800  1.0000
  S   S5        1.0  0.33300  0.66700  0.55200  1.0000
  S   S6        1.0  0.00000  0.00000  0.66300  1.0000
  S   S7        1.0  0.00000  0.00000  0.83700  1.0000
  S   S8        1.0  0.33300  0.66700  0.94800  1.0000
