data_image0
_chemical_formula_structural       Bi4CdSe8Sn
_chemical_formula_sum              "Bi4 Cd1 Se8 Sn1"
_cell_length_a       7.29082
_cell_length_b       7.29082
_cell_length_c       15.6259
_cell_angle_alpha    64.8977
_cell_angle_beta     64.8977
_cell_angle_gamma    33.4549

_space_group_name_H-M_alt    "P 1"
_space_group_IT_number       1

loop_
  _space_group_symop_operation_xyz
  'x, y, z'

loop_
  _atom_site_type_symbol
  _atom_site_label
  _atom_site_symmetry_multiplicity
  _atom_site_fract_x
  _atom_site_fract_y
  _atom_site_fract_z
  _atom_site_occupancy
  Bi  Bi1       1.0  0.21300  0.21300  0.13600  1.0000
  Bi  Bi2       1.0  0.85000  0.85000  0.36800  1.0000
  Bi  Bi3       1.0  0.15000  0.15000  0.63200  1.0000
  Bi  Bi4       1.0  0.78700  0.78700  0.86400  1.0000
  Cd  Cd1       1.0  0.00000  0.00000  0.00000  1.0000
  Se  Se1       1.0  0.62100  0.62100  0.04570  1.0000
  Se  Se2       1.0  0.83100  0.83100  0.17600  1.0000
  Se  Se3       1.0  0.50700  0.50700  0.30600  1.0000
  Se  Se4       1.0  0.16900  0.16900  0.44000  1.0000
  Se  Se5       1.0  0.83100  0.83100  0.56000  1.0000
  Se  Se6       1.0  0.49300  0.49300  0.69400  1.0000
  Se  Se7       1.0  0.16900  0.16900  0.82400  1.0000
  Se  Se8       1.0  0.37900  0.37900  0.95400  1.0000
  Sn  Sn1       1.0  0.50000  0.50000  0.50000  1.0000
