data_image0
_chemical_formula_structural       Mn4O4Se4Zn4
_chemical_formula_sum              "Mn4 O4 Se4 Zn4"
_cell_length_a       5.6167
_cell_length_b       3.66636
_cell_length_c       13.0795
_cell_angle_alpha    90
_cell_angle_beta     90
_cell_angle_gamma    90

_space_group_name_H-M_alt    "P 1"
_space_group_IT_number       1

loop_
  _space_group_symop_operation_xyz
  'x, y, z'

loop_
  _atom_site_type_symbol
  _atom_site_label
  _atom_site_symmetry_multiplicity
  _atom_site_fract_x
  _atom_site_fract_y
  _atom_site_fract_z
  _atom_site_occupancy
  Mn  Mn1       1.0  0.24200  0.75000  0.09200  1.0000
  Mn  Mn2       1.0  0.74200  0.75000  0.40800  1.0000
  Mn  Mn3       1.0  0.25800  0.25000  0.59200  1.0000
  Mn  Mn4       1.0  0.75800  0.25000  0.90800  1.0000
  O   O1        1.0  0.28500  0.25000  0.17500  1.0000
  O   O2        1.0  0.78500  0.25000  0.32500  1.0000
  O   O3        1.0  0.21500  0.75000  0.67500  1.0000
  O   O4        1.0  0.71500  0.75000  0.82500  1.0000
  Se  Se1       1.0  0.76400  0.75000  0.07730  1.0000
  Se  Se2       1.0  0.26400  0.75000  0.42300  1.0000
  Se  Se3       1.0  0.73600  0.25000  0.57700  1.0000
  Se  Se4       1.0  0.23600  0.25000  0.92300  1.0000
  Zn  Zn1       1.0  0.63900  0.25000  0.19100  1.0000
  Zn  Zn2       1.0  0.13900  0.25000  0.30900  1.0000
  Zn  Zn3       1.0  0.86100  0.75000  0.69100  1.0000
  Zn  Zn4       1.0  0.36100  0.75000  0.80900  1.0000
