data_image0
_chemical_formula_structural       Cu4Y2
_chemical_formula_sum              "Cu4 Y2"
_cell_length_a       4.27371
_cell_length_b       5.4359
_cell_length_c       5.4359
_cell_angle_alpha    95.4722
_cell_angle_beta     113.148
_cell_angle_gamma    66.8525

_space_group_name_H-M_alt    "P 1"
_space_group_IT_number       1

loop_
  _space_group_symop_operation_xyz
  'x, y, z'

loop_
  _atom_site_type_symbol
  _atom_site_label
  _atom_site_symmetry_multiplicity
  _atom_site_fract_x
  _atom_site_fract_y
  _atom_site_fract_z
  _atom_site_occupancy
  Cu  Cu1       1.0  0.05080  0.11400  0.21600  1.0000
  Cu  Cu2       1.0  0.55100  0.28400  0.38600  1.0000
  Cu  Cu3       1.0  0.44900  0.71600  0.61400  1.0000
  Cu  Cu4       1.0  0.94900  0.88600  0.78400  1.0000
  Y   Y1        1.0  0.75000  0.70700  0.20700  1.0000
  Y   Y2        1.0  0.25000  0.29300  0.79300  1.0000
