data_image0
_chemical_formula_structural       Ag2Bi6CdSe11
_chemical_formula_sum              "Ag2 Bi6 Cd1 Se11"
_cell_length_a       7.23483
_cell_length_b       7.23483
_cell_length_c       19.6871
_cell_angle_alpha    77.2838
_cell_angle_beta     77.2838
_cell_angle_gamma    33.652

_space_group_name_H-M_alt    "P 1"
_space_group_IT_number       1

loop_
  _space_group_symop_operation_xyz
  'x, y, z'

loop_
  _atom_site_type_symbol
  _atom_site_label
  _atom_site_symmetry_multiplicity
  _atom_site_fract_x
  _atom_site_fract_y
  _atom_site_fract_z
  _atom_site_occupancy
  Ag  Ag1       1.0  0.90000  0.90000  0.44900  1.0000
  Ag  Ag2       1.0  0.10000  0.10000  0.55100  1.0000
  Bi  Bi1       1.0  0.18700  0.18700  0.10000  1.0000
  Bi  Bi2       1.0  0.39100  0.39100  0.27100  1.0000
  Bi  Bi3       1.0  0.64200  0.64200  0.36400  1.0000
  Bi  Bi4       1.0  0.35800  0.35800  0.63600  1.0000
  Bi  Bi5       1.0  0.60900  0.60900  0.72900  1.0000
  Bi  Bi6       1.0  0.81300  0.81300  0.90000  1.0000
  Cd  Cd1       1.0  0.50000  0.50000  0.00000  1.0000
  Se  Se1       1.0  0.84500  0.84500  0.03330  1.0000
  Se  Se2       1.0  0.54000  0.54000  0.12800  1.0000
  Se  Se3       1.0  0.77500  0.77500  0.22500  1.0000
  Se  Se4       1.0  0.02220  0.02220  0.31200  1.0000
  Se  Se5       1.0  0.26200  0.26200  0.41100  1.0000
  Se  Se6       1.0  0.50000  0.50000  0.50000  1.0000
  Se  Se7       1.0  0.73800  0.73800  0.58900  1.0000
  Se  Se8       1.0  0.97800  0.97800  0.68800  1.0000
  Se  Se9       1.0  0.22500  0.22500  0.77500  1.0000
  Se  Se10      1.0  0.46000  0.46000  0.87200  1.0000
  Se  Se11      1.0  0.15500  0.15500  0.96700  1.0000
