data_image0
_chemical_formula_structural       Br2Cr2O2
_chemical_formula_sum              "Br2 Cr2 O2"
_cell_length_a       3.92258
_cell_length_b       3.30608
_cell_length_c       8.33914
_cell_angle_alpha    90
_cell_angle_beta     90
_cell_angle_gamma    90

_space_group_name_H-M_alt    "P 1"
_space_group_IT_number       1

loop_
  _space_group_symop_operation_xyz
  'x, y, z'

loop_
  _atom_site_type_symbol
  _atom_site_label
  _atom_site_symmetry_multiplicity
  _atom_site_fract_x
  _atom_site_fract_y
  _atom_site_fract_z
  _atom_site_occupancy
  Br  Br1       1.0  0.25000  0.75000  0.32500  1.0000
  Br  Br2       1.0  0.75000  0.25000  0.67500  1.0000
  Cr  Cr1       1.0  0.25000  0.25000  0.10000  1.0000
  Cr  Cr2       1.0  0.75000  0.75000  0.90000  1.0000
  O   O1        1.0  0.75000  0.25000  0.04880  1.0000
  O   O2        1.0  0.25000  0.75000  0.95100  1.0000
