data_image0
_chemical_formula_structural       Ag4Pb4Ti3
_chemical_formula_sum              "Ag4 Pb4 Ti3"
_cell_length_a       6.40744
_cell_length_b       6.40744
_cell_length_c       7.89378
_cell_angle_alpha    66.0554
_cell_angle_beta     66.0554
_cell_angle_gamma    90

_space_group_name_H-M_alt    "P 1"
_space_group_IT_number       1

loop_
  _space_group_symop_operation_xyz
  'x, y, z'

loop_
  _atom_site_type_symbol
  _atom_site_label
  _atom_site_symmetry_multiplicity
  _atom_site_fract_x
  _atom_site_fract_y
  _atom_site_fract_z
  _atom_site_occupancy
  Ag  Ag1       1.0  0.61700  0.13100  0.25100  1.0000
  Ag  Ag2       1.0  0.13100  0.61700  0.25100  1.0000
  Ag  Ag3       1.0  0.38300  0.38300  0.74900  1.0000
  Ag  Ag4       1.0  0.86900  0.86900  0.74900  1.0000
  Pb  Pb1       1.0  0.50000  0.00000  0.00000  1.0000
  Pb  Pb2       1.0  0.00000  0.50000  0.00000  1.0000
  Pb  Pb3       1.0  0.75900  0.75900  0.48200  1.0000
  Pb  Pb4       1.0  0.24100  0.24100  0.51800  1.0000
  Ti  Ti1       1.0  0.50000  0.50000  0.00000  1.0000
  Ti  Ti2       1.0  0.75000  0.25000  0.50000  1.0000
  Ti  Ti3       1.0  0.25000  0.75000  0.50000  1.0000
