data_image0
_chemical_formula_structural       Ge5Nb4Ni5
_chemical_formula_sum              "Ge5 Nb4 Ni5"
_cell_length_a       5.72283
_cell_length_b       6.99333
_cell_length_c       6.99333
_cell_angle_alpha    80.3625
_cell_angle_beta     114.152
_cell_angle_gamma    114.152

_space_group_name_H-M_alt    "P 1"
_space_group_IT_number       1

loop_
  _space_group_symop_operation_xyz
  'x, y, z'

loop_
  _atom_site_type_symbol
  _atom_site_label
  _atom_site_symmetry_multiplicity
  _atom_site_fract_x
  _atom_site_fract_y
  _atom_site_fract_z
  _atom_site_occupancy
  Ge  Ge1       1.0  0.50000  0.00000  0.00000  1.0000
  Ge  Ge2       1.0  0.90400  0.61600  0.19400  1.0000
  Ge  Ge3       1.0  0.29100  0.19400  0.38400  1.0000
  Ge  Ge4       1.0  0.71200  0.80600  0.61600  1.0000
  Ge  Ge5       1.0  0.09330  0.38400  0.80600  1.0000
  Nb  Nb1       1.0  0.39900  0.60100  0.19800  1.0000
  Nb  Nb2       1.0  0.79800  0.19800  0.39900  1.0000
  Nb  Nb3       1.0  0.20200  0.80200  0.60100  1.0000
  Nb  Nb4       1.0  0.60000  0.39900  0.80200  1.0000
  Ni  Ni1       1.0  0.94800  0.30900  0.10400  1.0000
  Ni  Ni2       1.0  0.36000  0.89600  0.30900  1.0000
  Ni  Ni3       1.0  0.75000  0.50000  0.50000  1.0000
  Ni  Ni4       1.0  0.15600  0.10400  0.69100  1.0000
  Ni  Ni5       1.0  0.53500  0.69100  0.89600  1.0000
