data_image0
_chemical_formula_structural       Bi10Li2S20Sn4
_chemical_formula_sum              "Bi10 Li2 S20 Sn4"
_cell_length_a       13.3481
_cell_length_b       4.04917
_cell_length_c       16.9289
_cell_angle_alpha    90
_cell_angle_beta     94.3141
_cell_angle_gamma    90

_space_group_name_H-M_alt    "P 1"
_space_group_IT_number       1

loop_
  _space_group_symop_operation_xyz
  'x, y, z'

loop_
  _atom_site_type_symbol
  _atom_site_label
  _atom_site_symmetry_multiplicity
  _atom_site_fract_x
  _atom_site_fract_y
  _atom_site_fract_z
  _atom_site_occupancy
  Bi  Bi1       1.0  0.24200  0.50000  0.11600  1.0000
  Bi  Bi2       1.0  0.48200  0.00000  0.22400  1.0000
  Bi  Bi3       1.0  0.97400  0.50000  0.22600  1.0000
  Bi  Bi4       1.0  0.21800  0.00000  0.39300  1.0000
  Bi  Bi5       1.0  0.72000  0.50000  0.39900  1.0000
  Bi  Bi6       1.0  0.28000  0.50000  0.60100  1.0000
  Bi  Bi7       1.0  0.78200  0.00000  0.60700  1.0000
  Bi  Bi8       1.0  0.02630  0.50000  0.77400  1.0000
  Bi  Bi9       1.0  0.51800  0.00000  0.77600  1.0000
  Bi  Bi10      1.0  0.75800  0.50000  0.88400  1.0000
  Li  Li1       1.0  0.00000  0.50000  0.50000  1.0000
  Li  Li2       1.0  0.50000  0.00000  0.50000  1.0000
  S   S1        1.0  0.86600  0.50000  0.05430  1.0000
  S   S2        1.0  0.37000  0.00000  0.05880  1.0000
  S   S3        1.0  0.10800  0.00000  0.15800  1.0000
  S   S4        1.0  0.60100  0.50000  0.15900  1.0000
  S   S5        1.0  0.34000  0.50000  0.25800  1.0000
  S   S6        1.0  0.84500  0.00000  0.25900  1.0000
  S   S7        1.0  0.07170  0.50000  0.36700  1.0000
  S   S8        1.0  0.57600  0.00000  0.37000  1.0000
  S   S9        1.0  0.35100  0.50000  0.46300  1.0000
  S   S10       1.0  0.85400  0.00000  0.46800  1.0000
  S   S11       1.0  0.14600  0.00000  0.53200  1.0000
  S   S12       1.0  0.64900  0.50000  0.53700  1.0000
  S   S13       1.0  0.42400  0.00000  0.63000  1.0000
  S   S14       1.0  0.92800  0.50000  0.63300  1.0000
  S   S15       1.0  0.15500  0.00000  0.74100  1.0000
  S   S16       1.0  0.66000  0.50000  0.74200  1.0000
  S   S17       1.0  0.39900  0.50000  0.84100  1.0000
  S   S18       1.0  0.89200  0.00000  0.84200  1.0000
  S   S19       1.0  0.63000  0.00000  0.94100  1.0000
  S   S20       1.0  0.13400  0.50000  0.94600  1.0000
  Sn  Sn1       1.0  0.00000  0.00000  0.00000  1.0000
  Sn  Sn2       1.0  0.50000  0.50000  0.00000  1.0000
  Sn  Sn3       1.0  0.74200  0.00000  0.11300  1.0000
  Sn  Sn4       1.0  0.25800  0.00000  0.88700  1.0000
