data_image0
_chemical_formula_structural       Pt4Sn4Sr4
_chemical_formula_sum              "Pt4 Sn4 Sr4"
_cell_length_a       7.7063
_cell_length_b       4.75471
_cell_length_c       8.07071
_cell_angle_alpha    90
_cell_angle_beta     90
_cell_angle_gamma    90

_space_group_name_H-M_alt    "P 1"
_space_group_IT_number       1

loop_
  _space_group_symop_operation_xyz
  'x, y, z'

loop_
  _atom_site_type_symbol
  _atom_site_label
  _atom_site_symmetry_multiplicity
  _atom_site_fract_x
  _atom_site_fract_y
  _atom_site_fract_z
  _atom_site_occupancy
  Pt  Pt1       1.0  0.79800  0.25000  0.10600  1.0000
  Pt  Pt2       1.0  0.29800  0.25000  0.39400  1.0000
  Pt  Pt3       1.0  0.70200  0.75000  0.60600  1.0000
  Pt  Pt4       1.0  0.20200  0.75000  0.89400  1.0000
  Sn  Sn1       1.0  0.16300  0.25000  0.07490  1.0000
  Sn  Sn2       1.0  0.66300  0.25000  0.42500  1.0000
  Sn  Sn3       1.0  0.33700  0.75000  0.57500  1.0000
  Sn  Sn4       1.0  0.83700  0.75000  0.92500  1.0000
  Sr  Sr1       1.0  0.48200  0.75000  0.18200  1.0000
  Sr  Sr2       1.0  0.98200  0.75000  0.31800  1.0000
  Sr  Sr3       1.0  0.01840  0.25000  0.68200  1.0000
  Sr  Sr4       1.0  0.51800  0.25000  0.81800  1.0000
