data_image0
_chemical_formula_structural       Gd2Ge2O2Te2
_chemical_formula_sum              "Gd2 Ge2 O2 Te2"
_cell_length_a       5.43904
_cell_length_b       5.43904
_cell_length_c       8.88374
_cell_angle_alpha    90
_cell_angle_beta     107.826
_cell_angle_gamma    120

_space_group_name_H-M_alt    "P 1"
_space_group_IT_number       1

loop_
  _space_group_symop_operation_xyz
  'x, y, z'

loop_
  _atom_site_type_symbol
  _atom_site_label
  _atom_site_symmetry_multiplicity
  _atom_site_fract_x
  _atom_site_fract_y
  _atom_site_fract_z
  _atom_site_occupancy
  Gd  Gd1       1.0  0.52800  0.76400  0.29100  1.0000
  Gd  Gd2       1.0  0.47200  0.23600  0.70900  1.0000
  Ge  Ge1       1.0  0.78000  0.39000  0.17100  1.0000
  Ge  Ge2       1.0  0.22000  0.61000  0.82900  1.0000
  O   O1        1.0  0.36000  0.68000  0.04050  1.0000
  O   O2        1.0  0.64000  0.32000  0.96000  1.0000
  Te  Te1       1.0  0.20800  0.10400  0.31200  1.0000
  Te  Te2       1.0  0.79200  0.89600  0.68800  1.0000
