data_image0
_chemical_formula_structural       Ni5Pb5Ta4
_chemical_formula_sum              "Ni5 Pb5 Ta4"
_cell_length_a       6.07293
_cell_length_b       7.41989
_cell_length_c       7.41989
_cell_angle_alpha    80.3592
_cell_angle_beta     114.157
_cell_angle_gamma    114.157

_space_group_name_H-M_alt    "P 1"
_space_group_IT_number       1

loop_
  _space_group_symop_operation_xyz
  'x, y, z'

loop_
  _atom_site_type_symbol
  _atom_site_label
  _atom_site_symmetry_multiplicity
  _atom_site_fract_x
  _atom_site_fract_y
  _atom_site_fract_z
  _atom_site_occupancy
  Ni  Ni1       1.0  0.93800  0.32500  0.10800  1.0000
  Ni  Ni2       1.0  0.38700  0.89200  0.32500  1.0000
  Ni  Ni3       1.0  0.75000  0.50000  0.50000  1.0000
  Ni  Ni4       1.0  0.17000  0.10800  0.67500  1.0000
  Ni  Ni5       1.0  0.50600  0.67500  0.89200  1.0000
  Pb  Pb1       1.0  0.50000  0.00000  0.00000  1.0000
  Pb  Pb2       1.0  0.90300  0.63700  0.19000  1.0000
  Pb  Pb3       1.0  0.28700  0.19000  0.36300  1.0000
  Pb  Pb4       1.0  0.73400  0.81000  0.63700  1.0000
  Pb  Pb5       1.0  0.07590  0.36300  0.81000  1.0000
  Ta  Ta1       1.0  0.39600  0.60100  0.20300  1.0000
  Ta  Ta2       1.0  0.80700  0.20300  0.39900  1.0000
  Ta  Ta3       1.0  0.20500  0.79700  0.60100  1.0000
  Ta  Ta4       1.0  0.59200  0.39900  0.79700  1.0000
