data_image0
_chemical_formula_structural       Ni2O2Sr2Te2
_chemical_formula_sum              "Ni2 O2 Sr2 Te2"
_cell_length_a       4.27226
_cell_length_b       6.09896
_cell_length_c       6.91497
_cell_angle_alpha    90
_cell_angle_beta     72.0062
_cell_angle_gamma    90

_space_group_name_H-M_alt    "P 1"
_space_group_IT_number       1

loop_
  _space_group_symop_operation_xyz
  'x, y, z'

loop_
  _atom_site_type_symbol
  _atom_site_label
  _atom_site_symmetry_multiplicity
  _atom_site_fract_x
  _atom_site_fract_y
  _atom_site_fract_z
  _atom_site_occupancy
  Ni  Ni1       1.0  0.90900  0.25000  0.18200  1.0000
  Ni  Ni2       1.0  0.09080  0.75000  0.81800  1.0000
  O   O1        1.0  0.00000  0.00000  0.00000  1.0000
  O   O2        1.0  0.00000  0.50000  0.00000  1.0000
  Sr  Sr1       1.0  0.41100  0.75000  0.17800  1.0000
  Sr  Sr2       1.0  0.58900  0.25000  0.82200  1.0000
  Te  Te1       1.0  0.30000  0.25000  0.39900  1.0000
  Te  Te2       1.0  0.70000  0.75000  0.60100  1.0000
