data_image0
_chemical_formula_structural       Co4O4Se4Sr4
_chemical_formula_sum              "Co4 O4 Se4 Sr4"
_cell_length_a       6.13263
_cell_length_b       4.04886
_cell_length_c       13.5468
_cell_angle_alpha    90
_cell_angle_beta     90
_cell_angle_gamma    90

_space_group_name_H-M_alt    "P 1"
_space_group_IT_number       1

loop_
  _space_group_symop_operation_xyz
  'x, y, z'

loop_
  _atom_site_type_symbol
  _atom_site_label
  _atom_site_symmetry_multiplicity
  _atom_site_fract_x
  _atom_site_fract_y
  _atom_site_fract_z
  _atom_site_occupancy
  Co  Co1       1.0  0.65900  0.25000  0.18800  1.0000
  Co  Co2       1.0  0.15900  0.25000  0.31200  1.0000
  Co  Co3       1.0  0.84100  0.75000  0.68800  1.0000
  Co  Co4       1.0  0.34100  0.75000  0.81200  1.0000
  O   O1        1.0  0.33400  0.25000  0.19400  1.0000
  O   O2        1.0  0.83400  0.25000  0.30600  1.0000
  O   O3        1.0  0.16600  0.75000  0.69400  1.0000
  O   O4        1.0  0.66600  0.75000  0.80600  1.0000
  Se  Se1       1.0  0.75700  0.75000  0.08760  1.0000
  Se  Se2       1.0  0.25700  0.75000  0.41200  1.0000
  Se  Se3       1.0  0.74300  0.25000  0.58800  1.0000
  Se  Se4       1.0  0.24300  0.25000  0.91200  1.0000
  Sr  Sr1       1.0  0.25700  0.75000  0.09970  1.0000
  Sr  Sr2       1.0  0.75700  0.75000  0.40000  1.0000
  Sr  Sr3       1.0  0.24300  0.25000  0.60000  1.0000
  Sr  Sr4       1.0  0.74300  0.25000  0.90000  1.0000
