data_image0
_chemical_formula_structural       AgBi3Cs2Se6
_chemical_formula_sum              "Ag1 Bi3 Cs2 Se6"
_cell_length_a       4.3212
_cell_length_b       4.32324
_cell_length_c       23.5747
_cell_angle_alpha    89.9194
_cell_angle_beta     90
_cell_angle_gamma    119.984

_space_group_name_H-M_alt    "P 1"
_space_group_IT_number       1

loop_
  _space_group_symop_operation_xyz
  'x, y, z'

loop_
  _atom_site_type_symbol
  _atom_site_label
  _atom_site_symmetry_multiplicity
  _atom_site_fract_x
  _atom_site_fract_y
  _atom_site_fract_z
  _atom_site_occupancy
  Ag  Ag1       1.0  0.33400  0.66800  0.59200  1.0000
  Bi  Bi1       1.0  0.66600  0.33300  0.07570  1.0000
  Bi  Bi2       1.0  0.66600  0.33300  0.43500  1.0000
  Bi  Bi3       1.0  0.33400  0.66800  0.92000  1.0000
  Cs  Cs1       1.0  0.00000  0.99900  0.26100  1.0000
  Cs  Cs2       1.0  0.00015  0.00031  0.73100  1.0000
  Se  Se1       1.0  0.33300  0.66600  0.13900  1.0000
  Se  Se2       1.0  0.33300  0.66600  0.36100  1.0000
  Se  Se3       1.0  0.99900  0.99800  0.50200  1.0000
  Se  Se4       1.0  0.66700  0.33400  0.62800  1.0000
  Se  Se5       1.0  0.66800  0.33500  0.85700  1.0000
  Se  Se6       1.0  0.00018  0.00036  0.99800  1.0000
