data_image0
_chemical_formula_structural       AgBi3Cs2S6
_chemical_formula_sum              "Ag1 Bi3 Cs2 S6"
_cell_length_a       4.20096
_cell_length_b       4.20096
_cell_length_c       23.1641
_cell_angle_alpha    89.9663
_cell_angle_beta     89.9663
_cell_angle_gamma    60.1298

_space_group_name_H-M_alt    "P 1"
_space_group_IT_number       1

loop_
  _space_group_symop_operation_xyz
  'x, y, z'

loop_
  _atom_site_type_symbol
  _atom_site_label
  _atom_site_symmetry_multiplicity
  _atom_site_fract_x
  _atom_site_fract_y
  _atom_site_fract_z
  _atom_site_occupancy
  Ag  Ag1       1.0  0.91300  0.91300  0.40100  1.0000
  Bi  Bi1       1.0  0.58300  0.58300  0.07590  1.0000
  Bi  Bi2       1.0  0.25100  0.25100  0.57400  1.0000
  Bi  Bi3       1.0  0.25100  0.25100  0.92500  1.0000
  Cs  Cs1       1.0  0.91200  0.91200  0.25600  1.0000
  Cs  Cs2       1.0  0.91900  0.91900  0.74300  1.0000
  S   S1        1.0  0.91700  0.91700  0.00105  1.0000
  S   S2        1.0  0.24900  0.24900  0.13700  1.0000
  S   S3        1.0  0.58000  0.58000  0.36500  1.0000
  S   S4        1.0  0.91800  0.91800  0.51200  1.0000
  S   S5        1.0  0.58500  0.58500  0.64500  1.0000
  S   S6        1.0  0.58500  0.58500  0.86500  1.0000
