data_image0
_chemical_formula_structural       Bi5Ir5V4
_chemical_formula_sum              "Bi5 Ir5 V4"
_cell_length_a       6.229
_cell_length_b       7.57884
_cell_length_c       7.57884
_cell_angle_alpha    80.2775
_cell_angle_beta     114.264
_cell_angle_gamma    114.264

_space_group_name_H-M_alt    "P 1"
_space_group_IT_number       1

loop_
  _space_group_symop_operation_xyz
  'x, y, z'

loop_
  _atom_site_type_symbol
  _atom_site_label
  _atom_site_symmetry_multiplicity
  _atom_site_fract_x
  _atom_site_fract_y
  _atom_site_fract_z
  _atom_site_occupancy
  Bi  Bi1       1.0  0.50000  0.00000  0.00000  1.0000
  Bi  Bi2       1.0  0.89900  0.64500  0.19300  1.0000
  Bi  Bi3       1.0  0.29400  0.19300  0.35500  1.0000
  Bi  Bi4       1.0  0.74600  0.80700  0.64500  1.0000
  Bi  Bi5       1.0  0.06080  0.35500  0.80700  1.0000
  Ir  Ir1       1.0  0.93200  0.32900  0.11400  1.0000
  Ir  Ir2       1.0  0.39700  0.88600  0.32900  1.0000
  Ir  Ir3       1.0  0.75000  0.50000  0.50000  1.0000
  Ir  Ir4       1.0  0.18100  0.11400  0.67100  1.0000
  Ir  Ir5       1.0  0.49000  0.67100  0.88600  1.0000
  V   V1        1.0  0.39400  0.60300  0.20700  1.0000
  V   V2        1.0  0.81300  0.20700  0.39700  1.0000
  V   V3        1.0  0.20800  0.79300  0.60300  1.0000
  V   V4        1.0  0.58500  0.39700  0.79300  1.0000
