data_image0
_chemical_formula_structural       Ca2Cu2O2Te2
_chemical_formula_sum              "Ca2 Cu2 O2 Te2"
_cell_length_a       3.46512
_cell_length_b       5.83789
_cell_length_c       7.2939
_cell_angle_alpha    90
_cell_angle_beta     76.2589
_cell_angle_gamma    90

_space_group_name_H-M_alt    "P 1"
_space_group_IT_number       1

loop_
  _space_group_symop_operation_xyz
  'x, y, z'

loop_
  _atom_site_type_symbol
  _atom_site_label
  _atom_site_symmetry_multiplicity
  _atom_site_fract_x
  _atom_site_fract_y
  _atom_site_fract_z
  _atom_site_occupancy
  Ca  Ca1       1.0  0.43600  0.75000  0.12700  1.0000
  Ca  Ca2       1.0  0.56400  0.25000  0.87300  1.0000
  Cu  Cu1       1.0  0.89600  0.25000  0.20900  1.0000
  Cu  Cu2       1.0  0.10400  0.75000  0.79100  1.0000
  O   O1        1.0  0.00000  0.00000  0.00000  1.0000
  O   O2        1.0  0.00000  0.50000  0.00000  1.0000
  Te  Te1       1.0  0.26500  0.25000  0.47000  1.0000
  Te  Te2       1.0  0.73500  0.75000  0.53000  1.0000
