data_image0
_chemical_formula_structural       Bi4CdPbSe8
_chemical_formula_sum              "Bi4 Cd1 Pb1 Se8"
_cell_length_a       7.33139
_cell_length_b       7.33139
_cell_length_c       15.7434
_cell_angle_alpha    65.1321
_cell_angle_beta     65.1321
_cell_angle_gamma    33.3886

_space_group_name_H-M_alt    "P 1"
_space_group_IT_number       1

loop_
  _space_group_symop_operation_xyz
  'x, y, z'

loop_
  _atom_site_type_symbol
  _atom_site_label
  _atom_site_symmetry_multiplicity
  _atom_site_fract_x
  _atom_site_fract_y
  _atom_site_fract_z
  _atom_site_occupancy
  Bi  Bi1       1.0  0.00155  0.00155  0.00156  1.0000
  Bi  Bi2       1.0  0.28600  0.28600  0.36600  1.0000
  Bi  Bi3       1.0  0.71900  0.71900  0.63200  1.0000
  Bi  Bi4       1.0  0.35000  0.35000  0.86600  1.0000
  Cd  Cd1       1.0  0.50200  0.50200  0.50200  1.0000
  Pb  Pb1       1.0  0.64200  0.64200  0.14000  1.0000
  Se  Se1       1.0  0.34000  0.34000  0.05260  1.0000
  Se  Se2       1.0  0.98100  0.98100  0.19100  1.0000
  Se  Se3       1.0  0.66700  0.66700  0.33000  1.0000
  Se  Se4       1.0  0.88200  0.88200  0.45300  1.0000
  Se  Se5       1.0  0.12400  0.12400  0.54800  1.0000
  Se  Se6       1.0  0.33500  0.33500  0.67300  1.0000
  Se  Se7       1.0  0.00339  0.00339  0.80600  1.0000
  Se  Se8       1.0  0.66900  0.66900  0.93400  1.0000
