data_image0
_chemical_formula_structural       As5Ir5V4
_chemical_formula_sum              "As5 Ir5 V4"
_cell_length_a       5.85285
_cell_length_b       7.10411
_cell_length_c       7.10411
_cell_angle_alpha    80.2302
_cell_angle_beta     114.326
_cell_angle_gamma    114.326

_space_group_name_H-M_alt    "P 1"
_space_group_IT_number       1

loop_
  _space_group_symop_operation_xyz
  'x, y, z'

loop_
  _atom_site_type_symbol
  _atom_site_label
  _atom_site_symmetry_multiplicity
  _atom_site_fract_x
  _atom_site_fract_y
  _atom_site_fract_z
  _atom_site_occupancy
  As  As1       1.0  0.50000  0.00000  0.00000  1.0000
  As  As2       1.0  0.90200  0.62400  0.19600  1.0000
  As  As3       1.0  0.29300  0.19600  0.37600  1.0000
  As  As4       1.0  0.72100  0.80400  0.62400  1.0000
  As  As5       1.0  0.08260  0.37600  0.80400  1.0000
  Ir  Ir1       1.0  0.94200  0.32100  0.10600  1.0000
  Ir  Ir2       1.0  0.37900  0.89400  0.32100  1.0000
  Ir  Ir3       1.0  0.75000  0.50000  0.50000  1.0000
  Ir  Ir4       1.0  0.16300  0.10600  0.67900  1.0000
  Ir  Ir5       1.0  0.51600  0.67900  0.89400  1.0000
  V   V1        1.0  0.39800  0.60100  0.20200  1.0000
  V   V2        1.0  0.80400  0.20200  0.39900  1.0000
  V   V3        1.0  0.20200  0.79800  0.60100  1.0000
  V   V4        1.0  0.59500  0.39900  0.79800  1.0000
