data_image0
_chemical_formula_structural       Gd2O2Sn2Te2
_chemical_formula_sum              "Gd2 O2 Sn2 Te2"
_cell_length_a       4.77058
_cell_length_b       4.77058
_cell_length_c       11.8798
_cell_angle_alpha    78.4171
_cell_angle_beta     101.583
_cell_angle_gamma    120

_space_group_name_H-M_alt    "P 1"
_space_group_IT_number       1

loop_
  _space_group_symop_operation_xyz
  'x, y, z'

loop_
  _atom_site_type_symbol
  _atom_site_label
  _atom_site_symmetry_multiplicity
  _atom_site_fract_x
  _atom_site_fract_y
  _atom_site_fract_z
  _atom_site_occupancy
  Gd  Gd1       1.0  0.75700  0.24300  0.27000  1.0000
  Gd  Gd2       1.0  0.24300  0.75700  0.73000  1.0000
  O   O1        1.0  0.69400  0.30600  0.08100  1.0000
  O   O2        1.0  0.30600  0.69400  0.91900  1.0000
  Sn  Sn1       1.0  0.36700  0.63300  0.10000  1.0000
  Sn  Sn2       1.0  0.63300  0.36700  0.90000  1.0000
  Te  Te1       1.0  0.12500  0.87500  0.37500  1.0000
  Te  Te2       1.0  0.87500  0.12500  0.62500  1.0000
