data_image0
_chemical_formula_structural       O4Pd4Pt4Se4
_chemical_formula_sum              "O4 Pd4 Pt4 Se4"
_cell_length_a       5.9445
_cell_length_b       7.18212
_cell_length_c       5.84927
_cell_angle_alpha    90
_cell_angle_beta     90
_cell_angle_gamma    90

_space_group_name_H-M_alt    "P 1"
_space_group_IT_number       1

loop_
  _space_group_symop_operation_xyz
  'x, y, z'

loop_
  _atom_site_type_symbol
  _atom_site_label
  _atom_site_symmetry_multiplicity
  _atom_site_fract_x
  _atom_site_fract_y
  _atom_site_fract_z
  _atom_site_occupancy
  O   O1        1.0  0.68200  0.10300  0.21100  1.0000
  O   O2        1.0  0.18200  0.89700  0.21100  1.0000
  O   O3        1.0  0.81800  0.10300  0.71100  1.0000
  O   O4        1.0  0.31800  0.89700  0.71100  1.0000
  Pd  Pd1       1.0  0.30700  0.15800  0.11300  1.0000
  Pd  Pd2       1.0  0.80700  0.84200  0.11300  1.0000
  Pd  Pd3       1.0  0.19300  0.15800  0.61300  1.0000
  Pd  Pd4       1.0  0.69300  0.84200  0.61300  1.0000
  Pt  Pt1       1.0  0.89300  0.28800  0.02200  1.0000
  Pt  Pt2       1.0  0.39300  0.71200  0.02200  1.0000
  Pt  Pt3       1.0  0.60700  0.28800  0.52200  1.0000
  Pt  Pt4       1.0  0.10700  0.71200  0.52200  1.0000
  Se  Se1       1.0  0.99200  0.39600  0.40400  1.0000
  Se  Se2       1.0  0.49200  0.60400  0.40400  1.0000
  Se  Se3       1.0  0.50800  0.39600  0.90400  1.0000
  Se  Se4       1.0  0.00790  0.60400  0.90400  1.0000
