data_image0
_chemical_formula_structural       Rh5Sb5V4
_chemical_formula_sum              "Rh5 Sb5 V4"
_cell_length_a       6.0413
_cell_length_b       7.36684
_cell_length_c       7.36684
_cell_angle_alpha    80.321
_cell_angle_beta     114.207
_cell_angle_gamma    114.207

_space_group_name_H-M_alt    "P 1"
_space_group_IT_number       1

loop_
  _space_group_symop_operation_xyz
  'x, y, z'

loop_
  _atom_site_type_symbol
  _atom_site_label
  _atom_site_symmetry_multiplicity
  _atom_site_fract_x
  _atom_site_fract_y
  _atom_site_fract_z
  _atom_site_occupancy
  Rh  Rh1       1.0  0.93800  0.32300  0.10700  1.0000
  Rh  Rh2       1.0  0.38500  0.89300  0.32300  1.0000
  Rh  Rh3       1.0  0.75000  0.50000  0.50000  1.0000
  Rh  Rh4       1.0  0.16900  0.10700  0.67700  1.0000
  Rh  Rh5       1.0  0.50800  0.67700  0.89300  1.0000
  Sb  Sb1       1.0  0.50000  0.00000  0.00000  1.0000
  Sb  Sb2       1.0  0.90200  0.62900  0.19800  1.0000
  Sb  Sb3       1.0  0.29600  0.19800  0.37100  1.0000
  Sb  Sb4       1.0  0.72800  0.80200  0.62900  1.0000
  Sb  Sb5       1.0  0.07480  0.37100  0.80200  1.0000
  V   V1        1.0  0.39500  0.60200  0.20100  1.0000
  V   V2        1.0  0.80600  0.20100  0.39800  1.0000
  V   V3        1.0  0.20600  0.79900  0.60200  1.0000
  V   V4        1.0  0.59200  0.39800  0.79900  1.0000
