data_image0
_chemical_formula_structural       Nb4Ni5Sn5
_chemical_formula_sum              "Nb4 Ni5 Sn5"
_cell_length_a       5.97826
_cell_length_b       7.30241
_cell_length_c       7.30241
_cell_angle_alpha    80.3543
_cell_angle_beta     114.163
_cell_angle_gamma    114.163

_space_group_name_H-M_alt    "P 1"
_space_group_IT_number       1

loop_
  _space_group_symop_operation_xyz
  'x, y, z'

loop_
  _atom_site_type_symbol
  _atom_site_label
  _atom_site_symmetry_multiplicity
  _atom_site_fract_x
  _atom_site_fract_y
  _atom_site_fract_z
  _atom_site_occupancy
  Nb  Nb1       1.0  0.39700  0.60100  0.20200  1.0000
  Nb  Nb2       1.0  0.80500  0.20200  0.39900  1.0000
  Nb  Nb3       1.0  0.20400  0.79800  0.60100  1.0000
  Nb  Nb4       1.0  0.59400  0.39900  0.79800  1.0000
  Ni  Ni1       1.0  0.94100  0.32000  0.10600  1.0000
  Ni  Ni2       1.0  0.38000  0.89400  0.32000  1.0000
  Ni  Ni3       1.0  0.75000  0.50000  0.50000  1.0000
  Ni  Ni4       1.0  0.16600  0.10600  0.68000  1.0000
  Ni  Ni5       1.0  0.51400  0.68000  0.89400  1.0000
  Sn  Sn1       1.0  0.50000  0.00000  0.00000  1.0000
  Sn  Sn2       1.0  0.90300  0.62900  0.19100  1.0000
  Sn  Sn3       1.0  0.28800  0.19100  0.37100  1.0000
  Sn  Sn4       1.0  0.72600  0.80900  0.62900  1.0000
  Sn  Sn5       1.0  0.08250  0.37100  0.80900  1.0000
