data_image0
_chemical_formula_structural       Co4O4Sr4Te4
_chemical_formula_sum              "Co4 O4 Sr4 Te4"
_cell_length_a       6.43765
_cell_length_b       4.23745
_cell_length_c       13.8531
_cell_angle_alpha    90
_cell_angle_beta     90
_cell_angle_gamma    90

_space_group_name_H-M_alt    "P 1"
_space_group_IT_number       1

loop_
  _space_group_symop_operation_xyz
  'x, y, z'

loop_
  _atom_site_type_symbol
  _atom_site_label
  _atom_site_symmetry_multiplicity
  _atom_site_fract_x
  _atom_site_fract_y
  _atom_site_fract_z
  _atom_site_occupancy
  Co  Co1       1.0  0.62600  0.25000  0.19900  1.0000
  Co  Co2       1.0  0.12600  0.25000  0.30100  1.0000
  Co  Co3       1.0  0.87400  0.75000  0.69900  1.0000
  Co  Co4       1.0  0.37400  0.75000  0.80100  1.0000
  O   O1        1.0  0.31600  0.25000  0.19200  1.0000
  O   O2        1.0  0.81600  0.25000  0.30800  1.0000
  O   O3        1.0  0.18400  0.75000  0.69200  1.0000
  O   O4        1.0  0.68400  0.75000  0.80800  1.0000
  Sr  Sr1       1.0  0.26000  0.75000  0.10600  1.0000
  Sr  Sr2       1.0  0.76000  0.75000  0.39400  1.0000
  Sr  Sr3       1.0  0.24000  0.25000  0.60600  1.0000
  Sr  Sr4       1.0  0.74000  0.25000  0.89400  1.0000
  Te  Te1       1.0  0.75700  0.75000  0.09480  1.0000
  Te  Te2       1.0  0.25700  0.75000  0.40500  1.0000
  Te  Te3       1.0  0.74300  0.25000  0.59500  1.0000
  Te  Te4       1.0  0.24300  0.25000  0.90500  1.0000
