data_image0
_chemical_formula_structural       Bi16Cd4Cs12Te34
_chemical_formula_sum              "Bi16 Cd4 Cs12 Te34"
_cell_length_a       4.5652
_cell_length_b       21.5169
_cell_length_c       28.9855
_cell_angle_alpha    72.4061
_cell_angle_beta     90
_cell_angle_gamma    90

_space_group_name_H-M_alt    "P 1"
_space_group_IT_number       1

loop_
  _space_group_symop_operation_xyz
  'x, y, z'

loop_
  _atom_site_type_symbol
  _atom_site_label
  _atom_site_symmetry_multiplicity
  _atom_site_fract_x
  _atom_site_fract_y
  _atom_site_fract_z
  _atom_site_occupancy
  Bi  Bi1       1.0  0.50000  0.89700  0.06530  1.0000
  Bi  Bi2       1.0  0.00000  0.07080  0.08570  1.0000
  Bi  Bi3       1.0  0.50000  0.24300  0.09990  1.0000
  Bi  Bi4       1.0  0.50000  0.46700  0.19800  1.0000
  Bi  Bi5       1.0  0.00000  0.53400  0.30100  1.0000
  Bi  Bi6       1.0  0.00000  0.75700  0.40100  1.0000
  Bi  Bi7       1.0  0.50000  0.92700  0.41500  1.0000
  Bi  Bi8       1.0  0.00000  0.10200  0.43400  1.0000
  Bi  Bi9       1.0  0.00000  0.89800  0.56600  1.0000
  Bi  Bi10      1.0  0.50000  0.07300  0.58500  1.0000
  Bi  Bi11      1.0  0.00000  0.24300  0.59900  1.0000
  Bi  Bi12      1.0  0.00000  0.46600  0.69900  1.0000
  Bi  Bi13      1.0  0.50000  0.53300  0.80200  1.0000
  Bi  Bi14      1.0  0.50000  0.75700  0.90000  1.0000
  Bi  Bi15      1.0  0.00000  0.92900  0.91400  1.0000
  Bi  Bi16      1.0  0.50000  0.10300  0.93500  1.0000
  Cd  Cd1       1.0  0.00000  0.38100  0.12200  1.0000
  Cd  Cd2       1.0  0.50000  0.61900  0.37800  1.0000
  Cd  Cd3       1.0  0.50000  0.38100  0.62200  1.0000
  Cd  Cd4       1.0  0.00000  0.61900  0.87800  1.0000
  Cs  Cs1       1.0  0.50000  0.50000  0.00000  1.0000
  Cs  Cs2       1.0  0.50000  0.67400  0.07780  1.0000
  Cs  Cs3       1.0  0.50000  0.78800  0.22400  1.0000
  Cs  Cs4       1.0  0.50000  0.02240  0.25200  1.0000
  Cs  Cs5       1.0  0.00000  0.21800  0.27700  1.0000
  Cs  Cs6       1.0  0.00000  0.32700  0.42200  1.0000
  Cs  Cs7       1.0  0.00000  0.50000  0.50000  1.0000
  Cs  Cs8       1.0  0.00000  0.67300  0.57800  1.0000
  Cs  Cs9       1.0  0.00000  0.78200  0.72300  1.0000
  Cs  Cs10      1.0  0.50000  0.97800  0.74800  1.0000
  Cs  Cs11      1.0  0.50000  0.21200  0.77600  1.0000
  Cs  Cs12      1.0  0.50000  0.32600  0.92200  1.0000
  Te  Te1       1.0  0.00000  0.00000  0.00000  1.0000
  Te  Te2       1.0  0.50000  0.16200  0.02770  1.0000
  Te  Te3       1.0  0.00000  0.33500  0.03880  1.0000
  Te  Te4       1.0  0.00000  0.80300  0.11300  1.0000
  Te  Te5       1.0  0.00000  0.51600  0.11600  1.0000
  Te  Te6       1.0  0.50000  0.97000  0.14000  1.0000
  Te  Te7       1.0  0.00000  0.14900  0.16000  1.0000
  Te  Te8       1.0  0.50000  0.32000  0.17900  1.0000
  Te  Te9       1.0  0.50000  0.59300  0.22500  1.0000
  Te  Te10      1.0  0.00000  0.40900  0.27500  1.0000
  Te  Te11      1.0  0.00000  0.68100  0.32200  1.0000
  Te  Te12      1.0  0.50000  0.84900  0.34200  1.0000
  Te  Te13      1.0  0.00000  0.02850  0.35900  1.0000
  Te  Te14      1.0  0.50000  0.48500  0.38300  1.0000
  Te  Te15      1.0  0.50000  0.19600  0.38800  1.0000
  Te  Te16      1.0  0.50000  0.66300  0.46300  1.0000
  Te  Te17      1.0  0.00000  0.83800  0.47400  1.0000
  Te  Te18      1.0  0.50000  0.00000  0.50000  1.0000
  Te  Te19      1.0  0.00000  0.16200  0.52600  1.0000
  Te  Te20      1.0  0.50000  0.33700  0.53700  1.0000
  Te  Te21      1.0  0.50000  0.80400  0.61200  1.0000
  Te  Te22      1.0  0.50000  0.51500  0.61700  1.0000
  Te  Te23      1.0  0.00000  0.97100  0.64100  1.0000
  Te  Te24      1.0  0.50000  0.15100  0.65800  1.0000
  Te  Te25      1.0  0.00000  0.31900  0.67800  1.0000
  Te  Te26      1.0  0.00000  0.59100  0.72500  1.0000
  Te  Te27      1.0  0.50000  0.40700  0.77500  1.0000
  Te  Te28      1.0  0.50000  0.68000  0.82100  1.0000
  Te  Te29      1.0  0.00000  0.85100  0.84000  1.0000
  Te  Te30      1.0  0.50000  0.02960  0.86000  1.0000
  Te  Te31      1.0  0.00000  0.48400  0.88400  1.0000
  Te  Te32      1.0  0.00000  0.19700  0.88700  1.0000
  Te  Te33      1.0  0.00000  0.66500  0.96100  1.0000
  Te  Te34      1.0  0.50000  0.83800  0.97200  1.0000
