data_image0
_chemical_formula_structural       Ba4Cd4O4Se4
_chemical_formula_sum              "Ba4 Cd4 O4 Se4"
_cell_length_a       6.61077
_cell_length_b       4.33351
_cell_length_c       14.8347
_cell_angle_alpha    90
_cell_angle_beta     90
_cell_angle_gamma    90

_space_group_name_H-M_alt    "P 1"
_space_group_IT_number       1

loop_
  _space_group_symop_operation_xyz
  'x, y, z'

loop_
  _atom_site_type_symbol
  _atom_site_label
  _atom_site_symmetry_multiplicity
  _atom_site_fract_x
  _atom_site_fract_y
  _atom_site_fract_z
  _atom_site_occupancy
  Ba  Ba1       1.0  0.25000  0.75000  0.10100  1.0000
  Ba  Ba2       1.0  0.75000  0.75000  0.39900  1.0000
  Ba  Ba3       1.0  0.25000  0.25000  0.60100  1.0000
  Ba  Ba4       1.0  0.75000  0.25000  0.89900  1.0000
  Cd  Cd1       1.0  0.66900  0.25000  0.18300  1.0000
  Cd  Cd2       1.0  0.16900  0.25000  0.31700  1.0000
  Cd  Cd3       1.0  0.83100  0.75000  0.68300  1.0000
  Cd  Cd4       1.0  0.33100  0.75000  0.81700  1.0000
  O   O1        1.0  0.32900  0.25000  0.18800  1.0000
  O   O2        1.0  0.82900  0.25000  0.31200  1.0000
  O   O3        1.0  0.17100  0.75000  0.68800  1.0000
  O   O4        1.0  0.67100  0.75000  0.81200  1.0000
  Se  Se1       1.0  0.75300  0.75000  0.08040  1.0000
  Se  Se2       1.0  0.25300  0.75000  0.42000  1.0000
  Se  Se3       1.0  0.74700  0.25000  0.58000  1.0000
  Se  Se4       1.0  0.24700  0.25000  0.92000  1.0000
