data_image0
_chemical_formula_structural       Ca2Gd2O2Te2
_chemical_formula_sum              "Ca2 Gd2 O2 Te2"
_cell_length_a       4.68867
_cell_length_b       4.68867
_cell_length_c       11.096
_cell_angle_alpha    102.197
_cell_angle_beta     77.8028
_cell_angle_gamma    120

_space_group_name_H-M_alt    "P 1"
_space_group_IT_number       1

loop_
  _space_group_symop_operation_xyz
  'x, y, z'

loop_
  _atom_site_type_symbol
  _atom_site_label
  _atom_site_symmetry_multiplicity
  _atom_site_fract_x
  _atom_site_fract_y
  _atom_site_fract_z
  _atom_site_occupancy
  Ca  Ca1       1.0  0.63500  0.36500  0.09400  1.0000
  Ca  Ca2       1.0  0.36500  0.63500  0.90600  1.0000
  Gd  Gd1       1.0  0.20300  0.79700  0.39200  1.0000
  Gd  Gd2       1.0  0.79700  0.20300  0.60800  1.0000
  O   O1        1.0  0.29900  0.70100  0.10300  1.0000
  O   O2        1.0  0.70100  0.29900  0.89700  1.0000
  Te  Te1       1.0  0.90000  0.09970  0.29900  1.0000
  Te  Te2       1.0  0.09970  0.90000  0.70100  1.0000
