data_image0
_chemical_formula_structural       Ag4O4Pt4Se4
_chemical_formula_sum              "Ag4 O4 Pt4 Se4"
_cell_length_a       6.07724
_cell_length_b       8.59736
_cell_length_c       5.25955
_cell_angle_alpha    90
_cell_angle_beta     90
_cell_angle_gamma    90

_space_group_name_H-M_alt    "P 1"
_space_group_IT_number       1

loop_
  _space_group_symop_operation_xyz
  'x, y, z'

loop_
  _atom_site_type_symbol
  _atom_site_label
  _atom_site_symmetry_multiplicity
  _atom_site_fract_x
  _atom_site_fract_y
  _atom_site_fract_z
  _atom_site_occupancy
  Ag  Ag1       1.0  0.47400  0.34000  0.45700  1.0000
  Ag  Ag2       1.0  0.97400  0.66000  0.45700  1.0000
  Ag  Ag3       1.0  0.02580  0.34000  0.95700  1.0000
  Ag  Ag4       1.0  0.52600  0.66000  0.95700  1.0000
  O   O1        1.0  0.63700  0.02240  0.26900  1.0000
  O   O2        1.0  0.13700  0.97800  0.26900  1.0000
  O   O3        1.0  0.86300  0.02240  0.76900  1.0000
  O   O4        1.0  0.36300  0.97800  0.76900  1.0000
  Pt  Pt1       1.0  0.35300  0.11900  0.08160  1.0000
  Pt  Pt2       1.0  0.85300  0.88100  0.08160  1.0000
  Pt  Pt3       1.0  0.14700  0.11900  0.58200  1.0000
  Pt  Pt4       1.0  0.64700  0.88100  0.58200  1.0000
  Se  Se1       1.0  0.92400  0.33800  0.44300  1.0000
  Se  Se2       1.0  0.42400  0.66200  0.44300  1.0000
  Se  Se3       1.0  0.57600  0.33800  0.94300  1.0000
  Se  Se4       1.0  0.07580  0.66200  0.94300  1.0000
