data_image0
_chemical_formula_structural       Bi10Na2S20Sn4
_chemical_formula_sum              "Bi10 Na2 S20 Sn4"
_cell_length_a       13.6077
_cell_length_b       4.03662
_cell_length_c       17.0015
_cell_angle_alpha    90
_cell_angle_beta     92.7608
_cell_angle_gamma    90

_space_group_name_H-M_alt    "P 1"
_space_group_IT_number       1

loop_
  _space_group_symop_operation_xyz
  'x, y, z'

loop_
  _atom_site_type_symbol
  _atom_site_label
  _atom_site_symmetry_multiplicity
  _atom_site_fract_x
  _atom_site_fract_y
  _atom_site_fract_z
  _atom_site_occupancy
  Bi  Bi1       1.0  0.72900  0.50000  0.11200  1.0000
  Bi  Bi2       1.0  0.24300  0.00000  0.12300  1.0000
  Bi  Bi3       1.0  0.96600  0.00000  0.21300  1.0000
  Bi  Bi4       1.0  0.22400  0.50000  0.37300  1.0000
  Bi  Bi5       1.0  0.71800  0.00000  0.39700  1.0000
  Bi  Bi6       1.0  0.28200  0.00000  0.60300  1.0000
  Bi  Bi7       1.0  0.77600  0.50000  0.62700  1.0000
  Bi  Bi8       1.0  0.03350  0.00000  0.78700  1.0000
  Bi  Bi9       1.0  0.75700  0.00000  0.87700  1.0000
  Bi  Bi10      1.0  0.27100  0.50000  0.88800  1.0000
  Na  Na1       1.0  0.46800  0.50000  0.22000  1.0000
  Na  Na2       1.0  0.53200  0.50000  0.78000  1.0000
  S   S1        1.0  0.36700  0.50000  0.05540  1.0000
  S   S2        1.0  0.86800  0.00000  0.05570  1.0000
  S   S3        1.0  0.60600  0.00000  0.15200  1.0000
  S   S4        1.0  0.10200  0.50000  0.15500  1.0000
  S   S5        1.0  0.83900  0.50000  0.25400  1.0000
  S   S6        1.0  0.32700  0.00000  0.25900  1.0000
  S   S7        1.0  0.08210  0.00000  0.34900  1.0000
  S   S8        1.0  0.59300  0.50000  0.35600  1.0000
  S   S9        1.0  0.35200  0.00000  0.45800  1.0000
  S   S10       1.0  0.84800  0.50000  0.47700  1.0000
  S   S11       1.0  0.15200  0.50000  0.52300  1.0000
  S   S12       1.0  0.64800  0.00000  0.54200  1.0000
  S   S13       1.0  0.40700  0.50000  0.64400  1.0000
  S   S14       1.0  0.91800  0.00000  0.65100  1.0000
  S   S15       1.0  0.67300  0.00000  0.74100  1.0000
  S   S16       1.0  0.16100  0.50000  0.74600  1.0000
  S   S17       1.0  0.89800  0.50000  0.84500  1.0000
  S   S18       1.0  0.39400  0.00000  0.84800  1.0000
  S   S19       1.0  0.13200  0.00000  0.94400  1.0000
  S   S20       1.0  0.63300  0.50000  0.94500  1.0000
  Sn  Sn1       1.0  0.50000  0.00000  0.00000  1.0000
  Sn  Sn2       1.0  0.00000  0.50000  0.00000  1.0000
  Sn  Sn3       1.0  0.00000  0.00000  0.50000  1.0000
  Sn  Sn4       1.0  0.50000  0.50000  0.50000  1.0000
