data_image0
_chemical_formula_structural       Bi8Rb8Se20Zn4
_chemical_formula_sum              "Bi8 Rb8 Se20 Zn4"
_cell_length_a       4.28341
_cell_length_b       15.9421
_cell_length_c       18.9394
_cell_angle_alpha    90
_cell_angle_beta     90
_cell_angle_gamma    90

_space_group_name_H-M_alt    "P 1"
_space_group_IT_number       1

loop_
  _space_group_symop_operation_xyz
  'x, y, z'

loop_
  _atom_site_type_symbol
  _atom_site_label
  _atom_site_symmetry_multiplicity
  _atom_site_fract_x
  _atom_site_fract_y
  _atom_site_fract_z
  _atom_site_occupancy
  Bi  Bi1       1.0  0.25000  0.25200  0.01680  1.0000
  Bi  Bi2       1.0  0.75000  0.20600  0.19900  1.0000
  Bi  Bi3       1.0  0.75000  0.70600  0.30100  1.0000
  Bi  Bi4       1.0  0.25000  0.75200  0.48300  1.0000
  Bi  Bi5       1.0  0.75000  0.24800  0.51700  1.0000
  Bi  Bi6       1.0  0.25000  0.29400  0.69900  1.0000
  Bi  Bi7       1.0  0.25000  0.79400  0.80100  1.0000
  Bi  Bi8       1.0  0.75000  0.74800  0.98300  1.0000
  Rb  Rb1       1.0  0.25000  0.96100  0.11600  1.0000
  Rb  Rb2       1.0  0.75000  0.49500  0.12300  1.0000
  Rb  Rb3       1.0  0.75000  0.99500  0.37700  1.0000
  Rb  Rb4       1.0  0.25000  0.46100  0.38400  1.0000
  Rb  Rb5       1.0  0.75000  0.53900  0.61600  1.0000
  Rb  Rb6       1.0  0.25000  0.00514  0.62300  1.0000
  Rb  Rb7       1.0  0.25000  0.50500  0.87700  1.0000
  Rb  Rb8       1.0  0.75000  0.03940  0.88400  1.0000
  Se  Se1       1.0  0.25000  0.63200  0.02690  1.0000
  Se  Se2       1.0  0.75000  0.12800  0.05980  1.0000
  Se  Se3       1.0  0.25000  0.32400  0.15200  1.0000
  Se  Se4       1.0  0.75000  0.79000  0.15500  1.0000
  Se  Se5       1.0  0.25000  0.59800  0.24300  1.0000
  Se  Se6       1.0  0.25000  0.09760  0.25700  1.0000
  Se  Se7       1.0  0.75000  0.29000  0.34500  1.0000
  Se  Se8       1.0  0.25000  0.82400  0.34800  1.0000
  Se  Se9       1.0  0.75000  0.62800  0.44000  1.0000
  Se  Se10      1.0  0.25000  0.13200  0.47300  1.0000
  Se  Se11      1.0  0.75000  0.86800  0.52700  1.0000
  Se  Se12      1.0  0.25000  0.37200  0.56000  1.0000
  Se  Se13      1.0  0.75000  0.17600  0.65200  1.0000
  Se  Se14      1.0  0.25000  0.71000  0.65500  1.0000
  Se  Se15      1.0  0.75000  0.90200  0.74300  1.0000
  Se  Se16      1.0  0.75000  0.40200  0.75700  1.0000
  Se  Se17      1.0  0.25000  0.21000  0.84500  1.0000
  Se  Se18      1.0  0.75000  0.67600  0.84800  1.0000
  Se  Se19      1.0  0.25000  0.87200  0.94000  1.0000
  Se  Se20      1.0  0.75000  0.36800  0.97300  1.0000
  Zn  Zn1       1.0  0.25000  0.70300  0.14400  1.0000
  Zn  Zn2       1.0  0.25000  0.20300  0.35600  1.0000
  Zn  Zn3       1.0  0.75000  0.79700  0.64400  1.0000
  Zn  Zn4       1.0  0.75000  0.29700  0.85600  1.0000
