data_image0
_chemical_formula_structural       Be8Ni8O8Se8
_chemical_formula_sum              "Be8 Ni8 O8 Se8"
_cell_length_a       5.11306
_cell_length_b       14.1198
_cell_length_c       5.30701
_cell_angle_alpha    90
_cell_angle_beta     90
_cell_angle_gamma    90

_space_group_name_H-M_alt    "P 1"
_space_group_IT_number       1

loop_
  _space_group_symop_operation_xyz
  'x, y, z'

loop_
  _atom_site_type_symbol
  _atom_site_label
  _atom_site_symmetry_multiplicity
  _atom_site_fract_x
  _atom_site_fract_y
  _atom_site_fract_z
  _atom_site_occupancy
  Be  Be1       1.0  0.03040  0.26000  0.12600  1.0000
  Be  Be2       1.0  0.47000  0.76000  0.12600  1.0000
  Be  Be3       1.0  0.53000  0.26000  0.37400  1.0000
  Be  Be4       1.0  0.97000  0.76000  0.37400  1.0000
  Be  Be5       1.0  0.03040  0.24000  0.62600  1.0000
  Be  Be6       1.0  0.47000  0.74000  0.62600  1.0000
  Be  Be7       1.0  0.53000  0.24000  0.87400  1.0000
  Be  Be8       1.0  0.97000  0.74000  0.87400  1.0000
  Ni  Ni1       1.0  0.74200  0.08710  0.17100  1.0000
  Ni  Ni2       1.0  0.75800  0.58700  0.17100  1.0000
  Ni  Ni3       1.0  0.24200  0.08710  0.32900  1.0000
  Ni  Ni4       1.0  0.25800  0.58700  0.32900  1.0000
  Ni  Ni5       1.0  0.74200  0.41300  0.67100  1.0000
  Ni  Ni6       1.0  0.75800  0.91300  0.67100  1.0000
  Ni  Ni7       1.0  0.24200  0.41300  0.82900  1.0000
  Ni  Ni8       1.0  0.25800  0.91300  0.82900  1.0000
  O   O1        1.0  0.70900  0.23300  0.13100  1.0000
  O   O2        1.0  0.79100  0.73300  0.13100  1.0000
  O   O3        1.0  0.20900  0.23300  0.36900  1.0000
  O   O4        1.0  0.29100  0.73300  0.36900  1.0000
  O   O5        1.0  0.70900  0.26700  0.63100  1.0000
  O   O6        1.0  0.79100  0.76700  0.63100  1.0000
  O   O7        1.0  0.20900  0.26700  0.86900  1.0000
  O   O8        1.0  0.29100  0.76700  0.86900  1.0000
  Se  Se1       1.0  0.47800  0.42900  0.24600  1.0000
  Se  Se2       1.0  0.02250  0.92900  0.24600  1.0000
  Se  Se3       1.0  0.97800  0.42900  0.25400  1.0000
  Se  Se4       1.0  0.52200  0.92900  0.25400  1.0000
  Se  Se5       1.0  0.47800  0.07080  0.74600  1.0000
  Se  Se6       1.0  0.02250  0.57100  0.74600  1.0000
  Se  Se7       1.0  0.97800  0.07080  0.75400  1.0000
  Se  Se8       1.0  0.52200  0.57100  0.75400  1.0000
