data_image0
_chemical_formula_structural       Ba2Mg2O2Te2
_chemical_formula_sum              "Ba2 Mg2 O2 Te2"
_cell_length_a       4.47308
_cell_length_b       6.36676
_cell_length_c       7.30833
_cell_angle_alpha    90
_cell_angle_beta     72.1801
_cell_angle_gamma    90

_space_group_name_H-M_alt    "P 1"
_space_group_IT_number       1

loop_
  _space_group_symop_operation_xyz
  'x, y, z'

loop_
  _atom_site_type_symbol
  _atom_site_label
  _atom_site_symmetry_multiplicity
  _atom_site_fract_x
  _atom_site_fract_y
  _atom_site_fract_z
  _atom_site_occupancy
  Ba  Ba1       1.0  0.39900  0.75000  0.20200  1.0000
  Ba  Ba2       1.0  0.60100  0.25000  0.79800  1.0000
  Mg  Mg1       1.0  0.91900  0.25000  0.16200  1.0000
  Mg  Mg2       1.0  0.08100  0.75000  0.83800  1.0000
  O   O1        1.0  0.00000  0.00000  0.00000  1.0000
  O   O2        1.0  0.00000  0.50000  0.00000  1.0000
  Te  Te1       1.0  0.30100  0.25000  0.39800  1.0000
  Te  Te2       1.0  0.69900  0.75000  0.60200  1.0000
