data_image0
_chemical_formula_structural       Be4Cd4O4Te4
_chemical_formula_sum              "Be4 Cd4 O4 Te4"
_cell_length_a       5.08616
_cell_length_b       8.40261
_cell_length_c       7.76194
_cell_angle_alpha    90
_cell_angle_beta     90
_cell_angle_gamma    90

_space_group_name_H-M_alt    "P 1"
_space_group_IT_number       1

loop_
  _space_group_symop_operation_xyz
  'x, y, z'

loop_
  _atom_site_type_symbol
  _atom_site_label
  _atom_site_symmetry_multiplicity
  _atom_site_fract_x
  _atom_site_fract_y
  _atom_site_fract_z
  _atom_site_occupancy
  Be  Be1       1.0  0.21500  0.19000  0.02830  1.0000
  Be  Be2       1.0  0.78500  0.69000  0.47200  1.0000
  Be  Be3       1.0  0.28500  0.81000  0.52800  1.0000
  Be  Be4       1.0  0.71500  0.31000  0.97200  1.0000
  Cd  Cd1       1.0  0.32600  0.60600  0.19800  1.0000
  Cd  Cd2       1.0  0.67400  0.10600  0.30200  1.0000
  Cd  Cd3       1.0  0.17400  0.39400  0.69800  1.0000
  Cd  Cd4       1.0  0.82600  0.89400  0.80200  1.0000
  O   O1        1.0  0.49800  0.22400  0.06570  1.0000
  O   O2        1.0  0.50200  0.72400  0.43400  1.0000
  O   O3        1.0  0.00152  0.77600  0.56600  1.0000
  O   O4        1.0  0.99800  0.27600  0.93400  1.0000
  Te  Te1       1.0  0.05020  0.92100  0.12500  1.0000
  Te  Te2       1.0  0.95000  0.42100  0.37500  1.0000
  Te  Te3       1.0  0.45000  0.07900  0.62500  1.0000
  Te  Te4       1.0  0.55000  0.57900  0.87500  1.0000
