data_image0
_chemical_formula_structural       Ba4O4Se4Sn4
_chemical_formula_sum              "Ba4 O4 Se4 Sn4"
_cell_length_a       6.8383
_cell_length_b       4.23392
_cell_length_c       17.6335
_cell_angle_alpha    90
_cell_angle_beta     90
_cell_angle_gamma    90

_space_group_name_H-M_alt    "P 1"
_space_group_IT_number       1

loop_
  _space_group_symop_operation_xyz
  'x, y, z'

loop_
  _atom_site_type_symbol
  _atom_site_label
  _atom_site_symmetry_multiplicity
  _atom_site_fract_x
  _atom_site_fract_y
  _atom_site_fract_z
  _atom_site_occupancy
  Ba  Ba1       1.0  0.26000  0.75000  0.07780  1.0000
  Ba  Ba2       1.0  0.76000  0.75000  0.42200  1.0000
  Ba  Ba3       1.0  0.24000  0.25000  0.57800  1.0000
  Ba  Ba4       1.0  0.74000  0.25000  0.92200  1.0000
  O   O1        1.0  0.37900  0.25000  0.14100  1.0000
  O   O2        1.0  0.87900  0.25000  0.35900  1.0000
  O   O3        1.0  0.12100  0.75000  0.64100  1.0000
  O   O4        1.0  0.62100  0.75000  0.85900  1.0000
  Se  Se1       1.0  0.77100  0.75000  0.07620  1.0000
  Se  Se2       1.0  0.27100  0.75000  0.42400  1.0000
  Se  Se3       1.0  0.72900  0.25000  0.57600  1.0000
  Se  Se4       1.0  0.22900  0.25000  0.92400  1.0000
  Sn  Sn1       1.0  0.66100  0.25000  0.17700  1.0000
  Sn  Sn2       1.0  0.16100  0.25000  0.32300  1.0000
  Sn  Sn3       1.0  0.83900  0.75000  0.67700  1.0000
  Sn  Sn4       1.0  0.33900  0.75000  0.82300  1.0000
