data_image0
_chemical_formula_structural       Cs8H8Nb8O28
_chemical_formula_sum              "Cs8 H8 Nb8 O28"
_cell_length_a       5.72938
_cell_length_b       18.4757
_cell_length_c       9.37359
_cell_angle_alpha    90
_cell_angle_beta     90
_cell_angle_gamma    90

_space_group_name_H-M_alt    "P 1"
_space_group_IT_number       1

loop_
  _space_group_symop_operation_xyz
  'x, y, z'

loop_
  _atom_site_type_symbol
  _atom_site_label
  _atom_site_symmetry_multiplicity
  _atom_site_fract_x
  _atom_site_fract_y
  _atom_site_fract_z
  _atom_site_occupancy
  Cs  Cs1       1.0  0.59600  0.02860  0.25000  1.0000
  Cs  Cs2       1.0  0.59300  0.30200  0.25000  1.0000
  Cs  Cs3       1.0  0.40400  0.52900  0.25000  1.0000
  Cs  Cs4       1.0  0.40700  0.80200  0.25000  1.0000
  Cs  Cs5       1.0  0.59300  0.19800  0.75000  1.0000
  Cs  Cs6       1.0  0.59600  0.47100  0.75000  1.0000
  Cs  Cs7       1.0  0.40700  0.69800  0.75000  1.0000
  Cs  Cs8       1.0  0.40400  0.97100  0.75000  1.0000
  H   H1        1.0  0.97200  0.43900  0.16800  1.0000
  H   H2        1.0  0.02810  0.93900  0.16800  1.0000
  H   H3        1.0  0.97200  0.43900  0.33200  1.0000
  H   H4        1.0  0.02810  0.93900  0.33200  1.0000
  H   H5        1.0  0.97200  0.06110  0.66800  1.0000
  H   H6        1.0  0.02810  0.56100  0.66800  1.0000
  H   H7        1.0  0.97200  0.06110  0.83200  1.0000
  H   H8        1.0  0.02810  0.56100  0.83200  1.0000
  Nb  Nb1       1.0  0.11100  0.15500  0.05730  1.0000
  Nb  Nb2       1.0  0.88900  0.65500  0.05730  1.0000
  Nb  Nb3       1.0  0.11100  0.15500  0.44300  1.0000
  Nb  Nb4       1.0  0.88900  0.65500  0.44300  1.0000
  Nb  Nb5       1.0  0.11100  0.34500  0.55700  1.0000
  Nb  Nb6       1.0  0.88900  0.84500  0.55700  1.0000
  Nb  Nb7       1.0  0.11100  0.34500  0.94300  1.0000
  Nb  Nb8       1.0  0.88900  0.84500  0.94300  1.0000
  O   O1        1.0  0.23400  0.25000  0.00000  1.0000
  O   O2        1.0  0.76600  0.75000  0.00000  1.0000
  O   O3        1.0  0.79700  0.15700  0.05340  1.0000
  O   O4        1.0  0.20300  0.65700  0.05340  1.0000
  O   O5        1.0  0.21400  0.41400  0.06420  1.0000
  O   O6        1.0  0.78600  0.91400  0.06420  1.0000
  O   O7        1.0  0.22100  0.13700  0.25000  1.0000
  O   O8        1.0  0.86600  0.44900  0.25000  1.0000
  O   O9        1.0  0.77900  0.63700  0.25000  1.0000
  O   O10       1.0  0.13400  0.94900  0.25000  1.0000
  O   O11       1.0  0.21400  0.41400  0.43600  1.0000
  O   O12       1.0  0.78600  0.91400  0.43600  1.0000
  O   O13       1.0  0.79700  0.15700  0.44700  1.0000
  O   O14       1.0  0.20300  0.65700  0.44700  1.0000
  O   O15       1.0  0.23400  0.25000  0.50000  1.0000
  O   O16       1.0  0.76600  0.75000  0.50000  1.0000
  O   O17       1.0  0.79700  0.34300  0.55300  1.0000
  O   O18       1.0  0.20300  0.84300  0.55300  1.0000
  O   O19       1.0  0.21400  0.08640  0.56400  1.0000
  O   O20       1.0  0.78600  0.58600  0.56400  1.0000
  O   O21       1.0  0.86600  0.05120  0.75000  1.0000
  O   O22       1.0  0.22100  0.36300  0.75000  1.0000
  O   O23       1.0  0.13400  0.55100  0.75000  1.0000
  O   O24       1.0  0.77900  0.86300  0.75000  1.0000
  O   O25       1.0  0.21400  0.08640  0.93600  1.0000
  O   O26       1.0  0.78600  0.58600  0.93600  1.0000
  O   O27       1.0  0.79700  0.34300  0.94700  1.0000
  O   O28       1.0  0.20300  0.84300  0.94700  1.0000
