data_image0
_chemical_formula_structural       Ca4O4Se4Zn4
_chemical_formula_sum              "Ca4 O4 Se4 Zn4"
_cell_length_a       6.80752
_cell_length_b       3.5506
_cell_length_c       12.2662
_cell_angle_alpha    90
_cell_angle_beta     90
_cell_angle_gamma    90

_space_group_name_H-M_alt    "P 1"
_space_group_IT_number       1

loop_
  _space_group_symop_operation_xyz
  'x, y, z'

loop_
  _atom_site_type_symbol
  _atom_site_label
  _atom_site_symmetry_multiplicity
  _atom_site_fract_x
  _atom_site_fract_y
  _atom_site_fract_z
  _atom_site_occupancy
  Ca  Ca1       1.0  0.55600  0.25000  0.22900  1.0000
  Ca  Ca2       1.0  0.05560  0.25000  0.27100  1.0000
  Ca  Ca3       1.0  0.94400  0.75000  0.72900  1.0000
  Ca  Ca4       1.0  0.44400  0.75000  0.77100  1.0000
  O   O1        1.0  0.28100  0.25000  0.13000  1.0000
  O   O2        1.0  0.78100  0.25000  0.37000  1.0000
  O   O3        1.0  0.21900  0.75000  0.63000  1.0000
  O   O4        1.0  0.71900  0.75000  0.87000  1.0000
  Se  Se1       1.0  0.83100  0.75000  0.11600  1.0000
  Se  Se2       1.0  0.33100  0.75000  0.38400  1.0000
  Se  Se3       1.0  0.66900  0.25000  0.61600  1.0000
  Se  Se4       1.0  0.16900  0.25000  0.88400  1.0000
  Zn  Zn1       1.0  0.20400  0.75000  0.05580  1.0000
  Zn  Zn2       1.0  0.70400  0.75000  0.44400  1.0000
  Zn  Zn3       1.0  0.29600  0.25000  0.55600  1.0000
  Zn  Zn4       1.0  0.79600  0.25000  0.94400  1.0000
