data_image0
_chemical_formula_structural       Ge2H2O8Pm2
_chemical_formula_sum              "Ge2 H2 O8 Pm2"
_cell_length_a       5.29471
_cell_length_b       6.58336
_cell_length_c       4.61735
_cell_angle_alpha    90
_cell_angle_beta     97.8705
_cell_angle_gamma    90

_space_group_name_H-M_alt    "P 1"
_space_group_IT_number       1

loop_
  _space_group_symop_operation_xyz
  'x, y, z'

loop_
  _atom_site_type_symbol
  _atom_site_label
  _atom_site_symmetry_multiplicity
  _atom_site_fract_x
  _atom_site_fract_y
  _atom_site_fract_z
  _atom_site_occupancy
  Ge  Ge1       1.0  0.30700  0.75000  0.44500  1.0000
  Ge  Ge2       1.0  0.69300  0.25000  0.55500  1.0000
  H   H1        1.0  0.00000  0.00000  0.50000  1.0000
  H   H2        1.0  0.00000  0.50000  0.50000  1.0000
  O   O1        1.0  0.67300  0.25000  0.17300  1.0000
  O   O2        1.0  0.09840  0.55000  0.28900  1.0000
  O   O3        1.0  0.09840  0.95000  0.28900  1.0000
  O   O4        1.0  0.62200  0.75000  0.38500  1.0000
  O   O5        1.0  0.37800  0.25000  0.61500  1.0000
  O   O6        1.0  0.90200  0.04970  0.71100  1.0000
  O   O7        1.0  0.90200  0.45000  0.71100  1.0000
  O   O8        1.0  0.32700  0.75000  0.82700  1.0000
  Pm  Pm1       1.0  0.21300  0.25000  0.05320  1.0000
  Pm  Pm2       1.0  0.78700  0.75000  0.94700  1.0000
