data_image0
_chemical_formula_structural       Cd4Ni4O4Se4
_chemical_formula_sum              "Cd4 Ni4 O4 Se4"
_cell_length_a       5.88136
_cell_length_b       3.73885
_cell_length_c       12.6755
_cell_angle_alpha    90
_cell_angle_beta     90
_cell_angle_gamma    90

_space_group_name_H-M_alt    "P 1"
_space_group_IT_number       1

loop_
  _space_group_symop_operation_xyz
  'x, y, z'

loop_
  _atom_site_type_symbol
  _atom_site_label
  _atom_site_symmetry_multiplicity
  _atom_site_fract_x
  _atom_site_fract_y
  _atom_site_fract_z
  _atom_site_occupancy
  Cd  Cd1       1.0  0.25100  0.75000  0.06830  1.0000
  Cd  Cd2       1.0  0.75100  0.75000  0.43200  1.0000
  Cd  Cd3       1.0  0.24900  0.25000  0.56800  1.0000
  Cd  Cd4       1.0  0.74900  0.25000  0.93200  1.0000
  Ni  Ni1       1.0  0.61700  0.25000  0.21400  1.0000
  Ni  Ni2       1.0  0.11700  0.25000  0.28600  1.0000
  Ni  Ni3       1.0  0.88300  0.75000  0.71400  1.0000
  Ni  Ni4       1.0  0.38300  0.75000  0.78600  1.0000
  O   O1        1.0  0.31100  0.25000  0.16500  1.0000
  O   O2        1.0  0.81100  0.25000  0.33500  1.0000
  O   O3        1.0  0.18900  0.75000  0.66500  1.0000
  O   O4        1.0  0.68900  0.75000  0.83500  1.0000
  Se  Se1       1.0  0.77800  0.75000  0.10400  1.0000
  Se  Se2       1.0  0.27800  0.75000  0.39600  1.0000
  Se  Se3       1.0  0.72200  0.25000  0.60400  1.0000
  Se  Se4       1.0  0.22200  0.25000  0.89600  1.0000
