data_image0
_chemical_formula_structural       Li4O4Os4Se4
_chemical_formula_sum              "Li4 O4 Os4 Se4"
_cell_length_a       5.78722
_cell_length_b       6.46294
_cell_length_c       5.80926
_cell_angle_alpha    90
_cell_angle_beta     108.093
_cell_angle_gamma    90

_space_group_name_H-M_alt    "P 1"
_space_group_IT_number       1

loop_
  _space_group_symop_operation_xyz
  'x, y, z'

loop_
  _atom_site_type_symbol
  _atom_site_label
  _atom_site_symmetry_multiplicity
  _atom_site_fract_x
  _atom_site_fract_y
  _atom_site_fract_z
  _atom_site_occupancy
  Li  Li1       1.0  0.25400  0.72500  0.05310  1.0000
  Li  Li2       1.0  0.74600  0.22500  0.44700  1.0000
  Li  Li3       1.0  0.25400  0.77500  0.55300  1.0000
  Li  Li4       1.0  0.74600  0.27500  0.94700  1.0000
  O   O1        1.0  0.51200  0.33300  0.13100  1.0000
  O   O2        1.0  0.48800  0.83300  0.36900  1.0000
  O   O3        1.0  0.51200  0.16700  0.63100  1.0000
  O   O4        1.0  0.48800  0.66700  0.86900  1.0000
  Os  Os1       1.0  0.29400  0.10400  0.23700  1.0000
  Os  Os2       1.0  0.70600  0.60400  0.26300  1.0000
  Os  Os3       1.0  0.29400  0.39600  0.73700  1.0000
  Os  Os4       1.0  0.70600  0.89600  0.76300  1.0000
  Se  Se1       1.0  0.89000  0.93700  0.20000  1.0000
  Se  Se2       1.0  0.11000  0.43700  0.30000  1.0000
  Se  Se3       1.0  0.89000  0.56300  0.70000  1.0000
  Se  Se4       1.0  0.11000  0.06350  0.80000  1.0000
