data_image0
_chemical_formula_structural       Mg4O4Sn4Te4
_chemical_formula_sum              "Mg4 O4 Sn4 Te4"
_cell_length_a       6.34644
_cell_length_b       4.12978
_cell_length_c       14.0147
_cell_angle_alpha    90
_cell_angle_beta     90
_cell_angle_gamma    90

_space_group_name_H-M_alt    "P 1"
_space_group_IT_number       1

loop_
  _space_group_symop_operation_xyz
  'x, y, z'

loop_
  _atom_site_type_symbol
  _atom_site_label
  _atom_site_symmetry_multiplicity
  _atom_site_fract_x
  _atom_site_fract_y
  _atom_site_fract_z
  _atom_site_occupancy
  Mg  Mg1       1.0  0.59200  0.25000  0.21500  1.0000
  Mg  Mg2       1.0  0.09240  0.25000  0.28500  1.0000
  Mg  Mg3       1.0  0.90800  0.75000  0.71500  1.0000
  Mg  Mg4       1.0  0.40800  0.75000  0.78500  1.0000
  O   O1        1.0  0.29300  0.25000  0.18000  1.0000
  O   O2        1.0  0.79300  0.25000  0.32000  1.0000
  O   O3        1.0  0.20700  0.75000  0.68000  1.0000
  O   O4        1.0  0.70700  0.75000  0.82000  1.0000
  Sn  Sn1       1.0  0.26600  0.75000  0.08940  1.0000
  Sn  Sn2       1.0  0.76600  0.75000  0.41100  1.0000
  Sn  Sn3       1.0  0.23400  0.25000  0.58900  1.0000
  Sn  Sn4       1.0  0.73400  0.25000  0.91100  1.0000
  Te  Te1       1.0  0.76100  0.75000  0.09750  1.0000
  Te  Te2       1.0  0.26100  0.75000  0.40200  1.0000
  Te  Te3       1.0  0.73900  0.25000  0.59800  1.0000
  Te  Te4       1.0  0.23900  0.25000  0.90200  1.0000
