data_image0
_chemical_formula_structural       Li4O4Ru4Se4
_chemical_formula_sum              "Li4 O4 Ru4 Se4"
_cell_length_a       6.05959
_cell_length_b       6.89203
_cell_length_c       5.5376
_cell_angle_alpha    90
_cell_angle_beta     100.168
_cell_angle_gamma    90

_space_group_name_H-M_alt    "P 1"
_space_group_IT_number       1

loop_
  _space_group_symop_operation_xyz
  'x, y, z'

loop_
  _atom_site_type_symbol
  _atom_site_label
  _atom_site_symmetry_multiplicity
  _atom_site_fract_x
  _atom_site_fract_y
  _atom_site_fract_z
  _atom_site_occupancy
  Li  Li1       1.0  0.18000  0.80800  0.08220  1.0000
  Li  Li2       1.0  0.82000  0.30800  0.41800  1.0000
  Li  Li3       1.0  0.18000  0.69200  0.58200  1.0000
  Li  Li4       1.0  0.82000  0.19200  0.91800  1.0000
  O   O1        1.0  0.63500  0.34800  0.09760  1.0000
  O   O2        1.0  0.36500  0.84800  0.40200  1.0000
  O   O3        1.0  0.63500  0.15200  0.59800  1.0000
  O   O4        1.0  0.36500  0.65200  0.90200  1.0000
  Ru  Ru1       1.0  0.48500  0.09420  0.22700  1.0000
  Ru  Ru2       1.0  0.51500  0.59400  0.27300  1.0000
  Ru  Ru3       1.0  0.48500  0.40600  0.72700  1.0000
  Ru  Ru4       1.0  0.51500  0.90600  0.77300  1.0000
  Se  Se1       1.0  0.77200  0.86100  0.15900  1.0000
  Se  Se2       1.0  0.22800  0.36100  0.34100  1.0000
  Se  Se3       1.0  0.77200  0.63900  0.65900  1.0000
  Se  Se4       1.0  0.22800  0.13900  0.84100  1.0000
