data_image0
_chemical_formula_structural       Cr4Na4O4Se4
_chemical_formula_sum              "Cr4 Na4 O4 Se4"
_cell_length_a       6.61203
_cell_length_b       6.67751
_cell_length_c       5.84806
_cell_angle_alpha    90
_cell_angle_beta     103.48
_cell_angle_gamma    90

_space_group_name_H-M_alt    "P 1"
_space_group_IT_number       1

loop_
  _space_group_symop_operation_xyz
  'x, y, z'

loop_
  _atom_site_type_symbol
  _atom_site_label
  _atom_site_symmetry_multiplicity
  _atom_site_fract_x
  _atom_site_fract_y
  _atom_site_fract_z
  _atom_site_occupancy
  Cr  Cr1       1.0  0.52100  0.62000  0.22800  1.0000
  Cr  Cr2       1.0  0.47900  0.12000  0.27200  1.0000
  Cr  Cr3       1.0  0.52100  0.88000  0.72800  1.0000
  Cr  Cr4       1.0  0.47900  0.38000  0.77200  1.0000
  Na  Na1       1.0  0.10500  0.74200  0.02510  1.0000
  Na  Na2       1.0  0.89500  0.24200  0.47500  1.0000
  Na  Na3       1.0  0.10500  0.75800  0.52500  1.0000
  Na  Na4       1.0  0.89500  0.25800  0.97500  1.0000
  O   O1        1.0  0.62100  0.35600  0.12600  1.0000
  O   O2        1.0  0.37900  0.85600  0.37400  1.0000
  O   O3        1.0  0.62100  0.14400  0.62600  1.0000
  O   O4        1.0  0.37900  0.64400  0.87400  1.0000
  Se  Se1       1.0  0.75800  0.89900  0.15300  1.0000
  Se  Se2       1.0  0.24200  0.39900  0.34700  1.0000
  Se  Se3       1.0  0.75800  0.60100  0.65300  1.0000
  Se  Se4       1.0  0.24200  0.10100  0.84700  1.0000
