data_image0
_chemical_formula_structural       Mg4O4Pd4Te4
_chemical_formula_sum              "Mg4 O4 Pd4 Te4"
_cell_length_a       5.21906
_cell_length_b       7.13283
_cell_length_c       7.56447
_cell_angle_alpha    90
_cell_angle_beta     90
_cell_angle_gamma    90

_space_group_name_H-M_alt    "P 1"
_space_group_IT_number       1

loop_
  _space_group_symop_operation_xyz
  'x, y, z'

loop_
  _atom_site_type_symbol
  _atom_site_label
  _atom_site_symmetry_multiplicity
  _atom_site_fract_x
  _atom_site_fract_y
  _atom_site_fract_z
  _atom_site_occupancy
  Mg  Mg1       1.0  0.76400  0.40400  0.07540  1.0000
  Mg  Mg2       1.0  0.23600  0.90400  0.42500  1.0000
  Mg  Mg3       1.0  0.73600  0.59600  0.57500  1.0000
  Mg  Mg4       1.0  0.26400  0.09550  0.92500  1.0000
  O   O1        1.0  0.60600  0.16400  0.01460  1.0000
  O   O2        1.0  0.39400  0.66400  0.48500  1.0000
  O   O3        1.0  0.89400  0.83600  0.51500  1.0000
  O   O4        1.0  0.10600  0.33600  0.98500  1.0000
  Pd  Pd1       1.0  0.09330  0.77000  0.07370  1.0000
  Pd  Pd2       1.0  0.90700  0.27000  0.42600  1.0000
  Pd  Pd3       1.0  0.40700  0.23000  0.57400  1.0000
  Pd  Pd4       1.0  0.59300  0.73000  0.92600  1.0000
  Te  Te1       1.0  0.72600  0.97400  0.20500  1.0000
  Te  Te2       1.0  0.27400  0.47400  0.29500  1.0000
  Te  Te3       1.0  0.77400  0.02570  0.70500  1.0000
  Te  Te4       1.0  0.22600  0.52600  0.79500  1.0000
