data_image0
_chemical_formula_structural       O4Pd4Sn4Te4
_chemical_formula_sum              "O4 Pd4 Sn4 Te4"
_cell_length_a       4.47794
_cell_length_b       8.03303
_cell_length_c       10.3722
_cell_angle_alpha    90
_cell_angle_beta     90
_cell_angle_gamma    90

_space_group_name_H-M_alt    "P 1"
_space_group_IT_number       1

loop_
  _space_group_symop_operation_xyz
  'x, y, z'

loop_
  _atom_site_type_symbol
  _atom_site_label
  _atom_site_symmetry_multiplicity
  _atom_site_fract_x
  _atom_site_fract_y
  _atom_site_fract_z
  _atom_site_occupancy
  O   O1        1.0  0.75800  0.20900  0.07150  1.0000
  O   O2        1.0  0.24200  0.70900  0.42900  1.0000
  O   O3        1.0  0.74200  0.79100  0.57100  1.0000
  O   O4        1.0  0.25800  0.29100  0.92900  1.0000
  Pd  Pd1       1.0  0.26900  0.81800  0.05690  1.0000
  Pd  Pd2       1.0  0.73100  0.31800  0.44300  1.0000
  Pd  Pd3       1.0  0.23100  0.18200  0.55700  1.0000
  Pd  Pd4       1.0  0.76900  0.68200  0.94300  1.0000
  Sn  Sn1       1.0  0.28700  0.14300  0.08720  1.0000
  Sn  Sn2       1.0  0.71300  0.64300  0.41300  1.0000
  Sn  Sn3       1.0  0.21300  0.85700  0.58700  1.0000
  Sn  Sn4       1.0  0.78700  0.35700  0.91300  1.0000
  Te  Te1       1.0  0.76900  0.83500  0.18400  1.0000
  Te  Te2       1.0  0.23100  0.33500  0.31600  1.0000
  Te  Te3       1.0  0.73100  0.16500  0.68400  1.0000
  Te  Te4       1.0  0.26900  0.66500  0.81600  1.0000
