data_image0
_chemical_formula_structural       Li4O4Rh4Se4
_chemical_formula_sum              "Li4 O4 Rh4 Se4"
_cell_length_a       6.05884
_cell_length_b       6.7294
_cell_length_c       5.85128
_cell_angle_alpha    90
_cell_angle_beta     98.2765
_cell_angle_gamma    90

_space_group_name_H-M_alt    "P 1"
_space_group_IT_number       1

loop_
  _space_group_symop_operation_xyz
  'x, y, z'

loop_
  _atom_site_type_symbol
  _atom_site_label
  _atom_site_symmetry_multiplicity
  _atom_site_fract_x
  _atom_site_fract_y
  _atom_site_fract_z
  _atom_site_occupancy
  Li  Li1       1.0  0.15800  0.78500  0.09010  1.0000
  Li  Li2       1.0  0.84200  0.28500  0.41000  1.0000
  Li  Li3       1.0  0.15800  0.71500  0.59000  1.0000
  Li  Li4       1.0  0.84200  0.21500  0.91000  1.0000
  O   O1        1.0  0.65500  0.35600  0.11700  1.0000
  O   O2        1.0  0.34500  0.85600  0.38300  1.0000
  O   O3        1.0  0.65500  0.14400  0.61700  1.0000
  O   O4        1.0  0.34500  0.64400  0.88300  1.0000
  Rh  Rh1       1.0  0.51900  0.61700  0.24000  1.0000
  Rh  Rh2       1.0  0.48100  0.11700  0.26000  1.0000
  Rh  Rh3       1.0  0.51900  0.88300  0.74000  1.0000
  Rh  Rh4       1.0  0.48100  0.38300  0.76000  1.0000
  Se  Se1       1.0  0.75200  0.88300  0.11900  1.0000
  Se  Se2       1.0  0.24800  0.38300  0.38100  1.0000
  Se  Se3       1.0  0.75200  0.61700  0.61900  1.0000
  Se  Se4       1.0  0.24800  0.11700  0.88100  1.0000
