data_image0
_chemical_formula_structural       Co4O4Pd4Se4
_chemical_formula_sum              "Co4 O4 Pd4 Se4"
_cell_length_a       5.64796
_cell_length_b       7.65792
_cell_length_c       5.5239
_cell_angle_alpha    90
_cell_angle_beta     90
_cell_angle_gamma    90

_space_group_name_H-M_alt    "P 1"
_space_group_IT_number       1

loop_
  _space_group_symop_operation_xyz
  'x, y, z'

loop_
  _atom_site_type_symbol
  _atom_site_label
  _atom_site_symmetry_multiplicity
  _atom_site_fract_x
  _atom_site_fract_y
  _atom_site_fract_z
  _atom_site_occupancy
  Co  Co1       1.0  0.38200  0.07170  0.05090  1.0000
  Co  Co2       1.0  0.88200  0.92800  0.05090  1.0000
  Co  Co3       1.0  0.11800  0.07170  0.55100  1.0000
  Co  Co4       1.0  0.61800  0.92800  0.55100  1.0000
  O   O1        1.0  0.67200  0.08960  0.24700  1.0000
  O   O2        1.0  0.17200  0.91000  0.24700  1.0000
  O   O3        1.0  0.82800  0.08960  0.74700  1.0000
  O   O4        1.0  0.32800  0.91000  0.74700  1.0000
  Pd  Pd1       1.0  0.96700  0.26800  0.04170  1.0000
  Pd  Pd2       1.0  0.46700  0.73200  0.04170  1.0000
  Pd  Pd3       1.0  0.53300  0.26800  0.54200  1.0000
  Pd  Pd4       1.0  0.03280  0.73200  0.54200  1.0000
  Se  Se1       1.0  0.14400  0.38900  0.41000  1.0000
  Se  Se2       1.0  0.64400  0.61100  0.41000  1.0000
  Se  Se3       1.0  0.35600  0.38900  0.91000  1.0000
  Se  Se4       1.0  0.85600  0.61100  0.91000  1.0000
