data_image0
_chemical_formula_structural       Cu4O4Pt4Se4
_chemical_formula_sum              "Cu4 O4 Pt4 Se4"
_cell_length_a       5.20636
_cell_length_b       7.87061
_cell_length_c       5.52434
_cell_angle_alpha    90
_cell_angle_beta     90
_cell_angle_gamma    90

_space_group_name_H-M_alt    "P 1"
_space_group_IT_number       1

loop_
  _space_group_symop_operation_xyz
  'x, y, z'

loop_
  _atom_site_type_symbol
  _atom_site_label
  _atom_site_symmetry_multiplicity
  _atom_site_fract_x
  _atom_site_fract_y
  _atom_site_fract_z
  _atom_site_occupancy
  Cu  Cu1       1.0  0.74800  0.12000  0.12600  1.0000
  Cu  Cu2       1.0  0.24800  0.88000  0.12600  1.0000
  Cu  Cu3       1.0  0.75200  0.12000  0.62600  1.0000
  Cu  Cu4       1.0  0.25200  0.88000  0.62600  1.0000
  O   O1        1.0  0.58600  0.26600  0.37700  1.0000
  O   O2        1.0  0.08580  0.73400  0.37700  1.0000
  O   O3        1.0  0.91400  0.26600  0.87700  1.0000
  O   O4        1.0  0.41400  0.73400  0.87700  1.0000
  Pt  Pt1       1.0  0.20700  0.15900  0.37600  1.0000
  Pt  Pt2       1.0  0.70700  0.84100  0.37600  1.0000
  Pt  Pt3       1.0  0.29300  0.15900  0.87600  1.0000
  Pt  Pt4       1.0  0.79300  0.84100  0.87600  1.0000
  Se  Se1       1.0  0.11000  0.47000  0.37100  1.0000
  Se  Se2       1.0  0.61000  0.53000  0.37100  1.0000
  Se  Se3       1.0  0.39000  0.47000  0.87100  1.0000
  Se  Se4       1.0  0.89000  0.53000  0.87100  1.0000
