data_image0
_chemical_formula_structural       Ge4O4Sr4Te4
_chemical_formula_sum              "Ge4 O4 Sr4 Te4"
_cell_length_a       6.8532
_cell_length_b       7.60033
_cell_length_c       8.06606
_cell_angle_alpha    90
_cell_angle_beta     90
_cell_angle_gamma    90

_space_group_name_H-M_alt    "P 1"
_space_group_IT_number       1

loop_
  _space_group_symop_operation_xyz
  'x, y, z'

loop_
  _atom_site_type_symbol
  _atom_site_label
  _atom_site_symmetry_multiplicity
  _atom_site_fract_x
  _atom_site_fract_y
  _atom_site_fract_z
  _atom_site_occupancy
  Ge  Ge1       1.0  0.31200  0.56400  0.19000  1.0000
  Ge  Ge2       1.0  0.68800  0.06390  0.31000  1.0000
  Ge  Ge3       1.0  0.18800  0.43600  0.69000  1.0000
  Ge  Ge4       1.0  0.81200  0.93600  0.81000  1.0000
  O   O1        1.0  0.57700  0.17800  0.14000  1.0000
  O   O2        1.0  0.42300  0.67800  0.36000  1.0000
  O   O3        1.0  0.92300  0.82200  0.64000  1.0000
  O   O4        1.0  0.07700  0.32200  0.86000  1.0000
  Sr  Sr1       1.0  0.27100  0.10900  0.01010  1.0000
  Sr  Sr2       1.0  0.72900  0.60900  0.49000  1.0000
  Sr  Sr3       1.0  0.22900  0.89100  0.51000  1.0000
  Sr  Sr4       1.0  0.77100  0.39100  0.99000  1.0000
  Te  Te1       1.0  0.97500  0.76700  0.14900  1.0000
  Te  Te2       1.0  0.02490  0.26700  0.35100  1.0000
  Te  Te3       1.0  0.52500  0.23300  0.64900  1.0000
  Te  Te4       1.0  0.47500  0.73300  0.85100  1.0000
