data_image0
_chemical_formula_structural       Gd2O2Pb2Te2
_chemical_formula_sum              "Gd2 O2 Pb2 Te2"
_cell_length_a       5.12978
_cell_length_b       5.12978
_cell_length_c       11.0007
_cell_angle_alpha    103.483
_cell_angle_beta     103.483
_cell_angle_gamma    60

_space_group_name_H-M_alt    "P 1"
_space_group_IT_number       1

loop_
  _space_group_symop_operation_xyz
  'x, y, z'

loop_
  _atom_site_type_symbol
  _atom_site_label
  _atom_site_symmetry_multiplicity
  _atom_site_fract_x
  _atom_site_fract_y
  _atom_site_fract_z
  _atom_site_occupancy
  Gd  Gd1       1.0  0.77200  0.77200  0.31600  1.0000
  Gd  Gd2       1.0  0.22800  0.22800  0.68400  1.0000
  O   O1        1.0  0.70600  0.70600  0.11800  1.0000
  O   O2        1.0  0.29400  0.29400  0.88200  1.0000
  Pb  Pb1       1.0  0.36600  0.36600  0.09940  1.0000
  Pb  Pb2       1.0  0.63400  0.63400  0.90100  1.0000
  Te  Te1       1.0  0.12200  0.12200  0.36500  1.0000
  Te  Te2       1.0  0.87800  0.87800  0.63500  1.0000
