data_image0
_chemical_formula_structural       Au12Sn12Sr12
_chemical_formula_sum              "Au12 Sn12 Sr12"
_cell_length_a       23.5456
_cell_length_b       4.87334
_cell_length_c       8.36459
_cell_angle_alpha    90
_cell_angle_beta     90
_cell_angle_gamma    90

_space_group_name_H-M_alt    "P 1"
_space_group_IT_number       1

loop_
  _space_group_symop_operation_xyz
  'x, y, z'

loop_
  _atom_site_type_symbol
  _atom_site_label
  _atom_site_symmetry_multiplicity
  _atom_site_fract_x
  _atom_site_fract_y
  _atom_site_fract_z
  _atom_site_occupancy
  Au  Au1       1.0  0.93300  0.25000  0.08510  1.0000
  Au  Au2       1.0  0.59400  0.25000  0.08670  1.0000
  Au  Au3       1.0  0.73900  0.25000  0.08710  1.0000
  Au  Au4       1.0  0.23900  0.25000  0.41300  1.0000
  Au  Au5       1.0  0.09370  0.25000  0.41300  1.0000
  Au  Au6       1.0  0.43300  0.25000  0.41500  1.0000
  Au  Au7       1.0  0.56700  0.75000  0.58500  1.0000
  Au  Au8       1.0  0.90600  0.75000  0.58700  1.0000
  Au  Au9       1.0  0.76100  0.75000  0.58700  1.0000
  Au  Au10      1.0  0.26100  0.75000  0.91300  1.0000
  Au  Au11      1.0  0.40600  0.75000  0.91300  1.0000
  Au  Au12      1.0  0.06690  0.75000  0.91500  1.0000
  Sn  Sn1       1.0  0.26900  0.25000  0.08240  1.0000
  Sn  Sn2       1.0  0.39800  0.25000  0.08390  1.0000
  Sn  Sn3       1.0  0.06600  0.25000  0.08700  1.0000
  Sn  Sn4       1.0  0.56600  0.25000  0.41300  1.0000
  Sn  Sn5       1.0  0.89900  0.25000  0.41600  1.0000
  Sn  Sn6       1.0  0.76900  0.25000  0.41800  1.0000
  Sn  Sn7       1.0  0.23100  0.75000  0.58200  1.0000
  Sn  Sn8       1.0  0.10200  0.75000  0.58400  1.0000
  Sn  Sn9       1.0  0.43400  0.75000  0.58700  1.0000
  Sn  Sn10      1.0  0.93400  0.75000  0.91300  1.0000
  Sn  Sn11      1.0  0.60200  0.75000  0.91600  1.0000
  Sn  Sn12      1.0  0.73100  0.75000  0.91800  1.0000
  Sr  Sr1       1.0  0.16700  0.75000  0.20700  1.0000
  Sr  Sr2       1.0  0.83400  0.75000  0.20800  1.0000
  Sr  Sr3       1.0  0.49800  0.75000  0.21200  1.0000
  Sr  Sr4       1.0  0.99800  0.75000  0.28800  1.0000
  Sr  Sr5       1.0  0.33400  0.75000  0.29200  1.0000
  Sr  Sr6       1.0  0.66700  0.75000  0.29300  1.0000
  Sr  Sr7       1.0  0.33300  0.25000  0.70700  1.0000
  Sr  Sr8       1.0  0.66600  0.25000  0.70800  1.0000
  Sr  Sr9       1.0  0.00206  0.25000  0.71200  1.0000
  Sr  Sr10      1.0  0.50200  0.25000  0.78800  1.0000
  Sr  Sr11      1.0  0.16600  0.25000  0.79200  1.0000
  Sr  Sr12      1.0  0.83300  0.25000  0.79300  1.0000
