data_image0
_chemical_formula_structural       Na4O4Os4Se4
_chemical_formula_sum              "Na4 O4 Os4 Se4"
_cell_length_a       6.65379
_cell_length_b       7.0061
_cell_length_c       5.70832
_cell_angle_alpha    90
_cell_angle_beta     105.857
_cell_angle_gamma    90

_space_group_name_H-M_alt    "P 1"
_space_group_IT_number       1

loop_
  _space_group_symop_operation_xyz
  'x, y, z'

loop_
  _atom_site_type_symbol
  _atom_site_label
  _atom_site_symmetry_multiplicity
  _atom_site_fract_x
  _atom_site_fract_y
  _atom_site_fract_z
  _atom_site_occupancy
  Na  Na1       1.0  0.13600  0.79700  0.04080  1.0000
  Na  Na2       1.0  0.86400  0.29700  0.45900  1.0000
  Na  Na3       1.0  0.13600  0.70300  0.54100  1.0000
  Na  Na4       1.0  0.86400  0.20300  0.95900  1.0000
  O   O1        1.0  0.61000  0.35200  0.09860  1.0000
  O   O2        1.0  0.39000  0.85200  0.40100  1.0000
  O   O3        1.0  0.61000  0.14800  0.59900  1.0000
  O   O4        1.0  0.39000  0.64800  0.90100  1.0000
  Os  Os1       1.0  0.48100  0.09410  0.22200  1.0000
  Os  Os2       1.0  0.51900  0.59400  0.27800  1.0000
  Os  Os3       1.0  0.48100  0.40600  0.72200  1.0000
  Os  Os4       1.0  0.51900  0.90600  0.77800  1.0000
  Se  Se1       1.0  0.74900  0.86200  0.19100  1.0000
  Se  Se2       1.0  0.25100  0.36200  0.30900  1.0000
  Se  Se3       1.0  0.74900  0.63800  0.69100  1.0000
  Se  Se4       1.0  0.25100  0.13800  0.80900  1.0000
