data_image0
_chemical_formula_structural       Au4Li4O4Se4
_chemical_formula_sum              "Au4 Li4 O4 Se4"
_cell_length_a       6.59145
_cell_length_b       7.18584
_cell_length_c       5.50511
_cell_angle_alpha    90
_cell_angle_beta     93.3943
_cell_angle_gamma    90

_space_group_name_H-M_alt    "P 1"
_space_group_IT_number       1

loop_
  _space_group_symop_operation_xyz
  'x, y, z'

loop_
  _atom_site_type_symbol
  _atom_site_label
  _atom_site_symmetry_multiplicity
  _atom_site_fract_x
  _atom_site_fract_y
  _atom_site_fract_z
  _atom_site_occupancy
  Au  Au1       1.0  0.73200  0.58800  0.04320  1.0000
  Au  Au2       1.0  0.26800  0.08750  0.45700  1.0000
  Au  Au3       1.0  0.73200  0.91200  0.54300  1.0000
  Au  Au4       1.0  0.26800  0.41200  0.95700  1.0000
  Li  Li1       1.0  0.56600  0.15600  0.09190  1.0000
  Li  Li2       1.0  0.43400  0.65600  0.40800  1.0000
  Li  Li3       1.0  0.56600  0.34400  0.59200  1.0000
  Li  Li4       1.0  0.43400  0.84400  0.90800  1.0000
  O   O1        1.0  0.51900  0.42200  0.23500  1.0000
  O   O2        1.0  0.48100  0.92200  0.26500  1.0000
  O   O3        1.0  0.51900  0.07850  0.73500  1.0000
  O   O4        1.0  0.48100  0.57800  0.76500  1.0000
  Se  Se1       1.0  0.02730  0.18600  0.11300  1.0000
  Se  Se2       1.0  0.97300  0.68600  0.38700  1.0000
  Se  Se3       1.0  0.02730  0.31400  0.61300  1.0000
  Se  Se4       1.0  0.97300  0.81400  0.88700  1.0000
