data_image0
_chemical_formula_structural       Na4O4Rh4Se4
_chemical_formula_sum              "Na4 O4 Rh4 Se4"
_cell_length_a       6.64245
_cell_length_b       6.76253
_cell_length_c       6.00329
_cell_angle_alpha    90
_cell_angle_beta     107.161
_cell_angle_gamma    90

_space_group_name_H-M_alt    "P 1"
_space_group_IT_number       1

loop_
  _space_group_symop_operation_xyz
  'x, y, z'

loop_
  _atom_site_type_symbol
  _atom_site_label
  _atom_site_symmetry_multiplicity
  _atom_site_fract_x
  _atom_site_fract_y
  _atom_site_fract_z
  _atom_site_occupancy
  Na  Na1       1.0  0.10600  0.76000  0.02610  1.0000
  Na  Na2       1.0  0.89400  0.26000  0.47400  1.0000
  Na  Na3       1.0  0.10600  0.74000  0.52600  1.0000
  Na  Na4       1.0  0.89400  0.24000  0.97400  1.0000
  O   O1        1.0  0.63700  0.36100  0.13400  1.0000
  O   O2        1.0  0.36300  0.86100  0.36600  1.0000
  O   O3        1.0  0.63700  0.13900  0.63400  1.0000
  O   O4        1.0  0.36300  0.63900  0.86600  1.0000
  Rh  Rh1       1.0  0.51800  0.62000  0.24000  1.0000
  Rh  Rh2       1.0  0.48200  0.12000  0.26000  1.0000
  Rh  Rh3       1.0  0.51800  0.88000  0.74000  1.0000
  Rh  Rh4       1.0  0.48200  0.38000  0.76000  1.0000
  Se  Se1       1.0  0.73300  0.89000  0.15400  1.0000
  Se  Se2       1.0  0.26700  0.39000  0.34600  1.0000
  Se  Se3       1.0  0.73300  0.61000  0.65400  1.0000
  Se  Se4       1.0  0.26700  0.11000  0.84600  1.0000
