data_image0
_chemical_formula_structural       Au4Na4O4Se4
_chemical_formula_sum              "Au4 Na4 O4 Se4"
_cell_length_a       5.65073
_cell_length_b       6.49732
_cell_length_c       9.37535
_cell_angle_alpha    90
_cell_angle_beta     98.5148
_cell_angle_gamma    90

_space_group_name_H-M_alt    "P 1"
_space_group_IT_number       1

loop_
  _space_group_symop_operation_xyz
  'x, y, z'

loop_
  _atom_site_type_symbol
  _atom_site_label
  _atom_site_symmetry_multiplicity
  _atom_site_fract_x
  _atom_site_fract_y
  _atom_site_fract_z
  _atom_site_occupancy
  Au  Au1       1.0  0.27200  0.11300  0.13700  1.0000
  Au  Au2       1.0  0.72800  0.61300  0.36300  1.0000
  Au  Au3       1.0  0.27200  0.38700  0.63700  1.0000
  Au  Au4       1.0  0.72800  0.88700  0.86300  1.0000
  Na  Na1       1.0  0.71700  0.33000  0.00177  1.0000
  Na  Na2       1.0  0.28300  0.83000  0.49800  1.0000
  Na  Na3       1.0  0.71700  0.17000  0.50200  1.0000
  Na  Na4       1.0  0.28300  0.67000  0.99800  1.0000
  O   O1        1.0  0.64300  0.61200  0.14000  1.0000
  O   O2        1.0  0.35700  0.11200  0.36000  1.0000
  O   O3        1.0  0.64300  0.88800  0.64000  1.0000
  O   O4        1.0  0.35700  0.38800  0.86000  1.0000
  Se  Se1       1.0  0.85300  0.83800  0.11400  1.0000
  Se  Se2       1.0  0.14700  0.33800  0.38600  1.0000
  Se  Se3       1.0  0.85300  0.66300  0.61400  1.0000
  Se  Se4       1.0  0.14700  0.16200  0.88600  1.0000
