data_image0
_chemical_formula_structural       Cu4O4Rh4Se4
_chemical_formula_sum              "Cu4 O4 Rh4 Se4"
_cell_length_a       6.04061
_cell_length_b       6.53093
_cell_length_c       5.96177
_cell_angle_alpha    90
_cell_angle_beta     94.4167
_cell_angle_gamma    90

_space_group_name_H-M_alt    "P 1"
_space_group_IT_number       1

loop_
  _space_group_symop_operation_xyz
  'x, y, z'

loop_
  _atom_site_type_symbol
  _atom_site_label
  _atom_site_symmetry_multiplicity
  _atom_site_fract_x
  _atom_site_fract_y
  _atom_site_fract_z
  _atom_site_occupancy
  Cu  Cu1       1.0  0.94000  0.30300  0.04080  1.0000
  Cu  Cu2       1.0  0.05960  0.80300  0.45900  1.0000
  Cu  Cu3       1.0  0.94000  0.19700  0.54100  1.0000
  Cu  Cu4       1.0  0.05960  0.69700  0.95900  1.0000
  O   O1        1.0  0.64800  0.37000  0.10100  1.0000
  O   O2        1.0  0.35200  0.87000  0.39900  1.0000
  O   O3        1.0  0.64800  0.13000  0.60100  1.0000
  O   O4        1.0  0.35200  0.63000  0.89900  1.0000
  Rh  Rh1       1.0  0.51300  0.62500  0.23800  1.0000
  Rh  Rh2       1.0  0.48700  0.12500  0.26200  1.0000
  Rh  Rh3       1.0  0.51300  0.87500  0.73800  1.0000
  Rh  Rh4       1.0  0.48700  0.37500  0.76200  1.0000
  Se  Se1       1.0  0.75800  0.87100  0.08570  1.0000
  Se  Se2       1.0  0.24200  0.37100  0.41400  1.0000
  Se  Se3       1.0  0.75800  0.62900  0.58600  1.0000
  Se  Se4       1.0  0.24200  0.12900  0.91400  1.0000
