data_image0
_chemical_formula_structural       Au8O4Se4
_chemical_formula_sum              "Au8 O4 Se4"
_cell_length_a       6.48394
_cell_length_b       7.69247
_cell_length_c       6.21257
_cell_angle_alpha    90
_cell_angle_beta     90.4193
_cell_angle_gamma    90

_space_group_name_H-M_alt    "P 1"
_space_group_IT_number       1

loop_
  _space_group_symop_operation_xyz
  'x, y, z'

loop_
  _atom_site_type_symbol
  _atom_site_label
  _atom_site_symmetry_multiplicity
  _atom_site_fract_x
  _atom_site_fract_y
  _atom_site_fract_z
  _atom_site_occupancy
  Au  Au1       1.0  0.90300  0.24000  0.01180  1.0000
  Au  Au2       1.0  0.57100  0.62400  0.21200  1.0000
  Au  Au3       1.0  0.42900  0.12400  0.28800  1.0000
  Au  Au4       1.0  0.09720  0.74000  0.48800  1.0000
  Au  Au5       1.0  0.90300  0.26000  0.51200  1.0000
  Au  Au6       1.0  0.57100  0.87600  0.71200  1.0000
  Au  Au7       1.0  0.42900  0.37600  0.78800  1.0000
  Au  Au8       1.0  0.09720  0.76000  0.98800  1.0000
  O   O1        1.0  0.61400  0.35300  0.06860  1.0000
  O   O2        1.0  0.38600  0.85300  0.43100  1.0000
  O   O3        1.0  0.61400  0.14700  0.56900  1.0000
  O   O4        1.0  0.38600  0.64700  0.93100  1.0000
  Se  Se1       1.0  0.76300  0.89700  0.05490  1.0000
  Se  Se2       1.0  0.23700  0.39700  0.44500  1.0000
  Se  Se3       1.0  0.76300  0.60300  0.55500  1.0000
  Se  Se4       1.0  0.23700  0.10300  0.94500  1.0000
