data_image0
_chemical_formula_structural       Ge4O4Te4Zn4
_chemical_formula_sum              "Ge4 O4 Te4 Zn4"
_cell_length_a       5.65126
_cell_length_b       8.84705
_cell_length_c       7.10553
_cell_angle_alpha    90
_cell_angle_beta     90
_cell_angle_gamma    90

_space_group_name_H-M_alt    "P 1"
_space_group_IT_number       1

loop_
  _space_group_symop_operation_xyz
  'x, y, z'

loop_
  _atom_site_type_symbol
  _atom_site_label
  _atom_site_symmetry_multiplicity
  _atom_site_fract_x
  _atom_site_fract_y
  _atom_site_fract_z
  _atom_site_occupancy
  Ge  Ge1       1.0  0.30700  0.74100  0.13300  1.0000
  Ge  Ge2       1.0  0.69300  0.24100  0.36700  1.0000
  Ge  Ge3       1.0  0.19300  0.25900  0.63300  1.0000
  Ge  Ge4       1.0  0.80700  0.75900  0.86700  1.0000
  O   O1        1.0  0.54100  0.25300  0.14100  1.0000
  O   O2        1.0  0.45900  0.75300  0.35900  1.0000
  O   O3        1.0  0.95900  0.74700  0.64100  1.0000
  O   O4        1.0  0.04060  0.24700  0.85900  1.0000
  Te  Te1       1.0  0.01400  0.48700  0.24400  1.0000
  Te  Te2       1.0  0.98600  0.98700  0.25600  1.0000
  Te  Te3       1.0  0.48600  0.51300  0.74400  1.0000
  Te  Te4       1.0  0.51400  0.01300  0.75600  1.0000
  Zn  Zn1       1.0  0.26500  0.14200  0.04260  1.0000
  Zn  Zn2       1.0  0.73500  0.64200  0.45700  1.0000
  Zn  Zn3       1.0  0.23500  0.85800  0.54300  1.0000
  Zn  Zn4       1.0  0.76500  0.35800  0.95700  1.0000
