data_image0
_chemical_formula_structural       As5Ir5Nb4
_chemical_formula_sum              "As5 Ir5 Nb4"
_cell_length_a       6.05246
_cell_length_b       7.33597
_cell_length_c       7.33597
_cell_angle_alpha    80.2022
_cell_angle_beta     114.363
_cell_angle_gamma    114.363

_space_group_name_H-M_alt    "P 1"
_space_group_IT_number       1

loop_
  _space_group_symop_operation_xyz
  'x, y, z'

loop_
  _atom_site_type_symbol
  _atom_site_label
  _atom_site_symmetry_multiplicity
  _atom_site_fract_x
  _atom_site_fract_y
  _atom_site_fract_z
  _atom_site_occupancy
  As  As1       1.0  0.50000  0.00000  0.00000  1.0000
  As  As2       1.0  0.90400  0.62200  0.19300  1.0000
  As  As3       1.0  0.28800  0.19300  0.37800  1.0000
  As  As4       1.0  0.71700  0.80700  0.62200  1.0000
  As  As5       1.0  0.09000  0.37800  0.80700  1.0000
  Ir  Ir1       1.0  0.94600  0.31900  0.10500  1.0000
  Ir  Ir2       1.0  0.37200  0.89500  0.31900  1.0000
  Ir  Ir3       1.0  0.75000  0.50000  0.50000  1.0000
  Ir  Ir4       1.0  0.15800  0.10500  0.68100  1.0000
  Ir  Ir5       1.0  0.52300  0.68100  0.89500  1.0000
  Nb  Nb1       1.0  0.40100  0.60100  0.20300  1.0000
  Nb  Nb2       1.0  0.80200  0.20300  0.39900  1.0000
  Nb  Nb3       1.0  0.20100  0.79700  0.60100  1.0000
  Nb  Nb4       1.0  0.59700  0.39900  0.79700  1.0000
