data_image0
_chemical_formula_structural       Cu4Ge4Hf3
_chemical_formula_sum              "Cu4 Ge4 Hf3"
_cell_length_a       5.78203
_cell_length_b       5.78203
_cell_length_c       7.1242
_cell_angle_alpha    66.0586
_cell_angle_beta     66.0586
_cell_angle_gamma    90

_space_group_name_H-M_alt    "P 1"
_space_group_IT_number       1

loop_
  _space_group_symop_operation_xyz
  'x, y, z'

loop_
  _atom_site_type_symbol
  _atom_site_label
  _atom_site_symmetry_multiplicity
  _atom_site_fract_x
  _atom_site_fract_y
  _atom_site_fract_z
  _atom_site_occupancy
  Cu  Cu1       1.0  0.69000  0.09820  0.21100  1.0000
  Cu  Cu2       1.0  0.09820  0.69000  0.21100  1.0000
  Cu  Cu3       1.0  0.31000  0.31000  0.78900  1.0000
  Cu  Cu4       1.0  0.90200  0.90200  0.78900  1.0000
  Ge  Ge1       1.0  0.50000  0.00000  0.00000  1.0000
  Ge  Ge2       1.0  0.00000  0.50000  0.00000  1.0000
  Ge  Ge3       1.0  0.25900  0.25900  0.48200  1.0000
  Ge  Ge4       1.0  0.74100  0.74100  0.51800  1.0000
  Hf  Hf1       1.0  0.50000  0.50000  0.00000  1.0000
  Hf  Hf2       1.0  0.75000  0.25000  0.50000  1.0000
  Hf  Hf3       1.0  0.25000  0.75000  0.50000  1.0000
