data_image0
_chemical_formula_structural       Au4Hf3Sn4
_chemical_formula_sum              "Au4 Hf3 Sn4"
_cell_length_a       6.44926
_cell_length_b       6.44926
_cell_length_c       7.88432
_cell_angle_alpha    65.8584
_cell_angle_beta     65.8584
_cell_angle_gamma    90

_space_group_name_H-M_alt    "P 1"
_space_group_IT_number       1

loop_
  _space_group_symop_operation_xyz
  'x, y, z'

loop_
  _atom_site_type_symbol
  _atom_site_label
  _atom_site_symmetry_multiplicity
  _atom_site_fract_x
  _atom_site_fract_y
  _atom_site_fract_z
  _atom_site_occupancy
  Au  Au1       1.0  0.61100  0.13400  0.25500  1.0000
  Au  Au2       1.0  0.13400  0.61100  0.25500  1.0000
  Au  Au3       1.0  0.86600  0.86600  0.74500  1.0000
  Au  Au4       1.0  0.38900  0.38900  0.74500  1.0000
  Hf  Hf1       1.0  0.50000  0.50000  0.00000  1.0000
  Hf  Hf2       1.0  0.75000  0.25000  0.50000  1.0000
  Hf  Hf3       1.0  0.25000  0.75000  0.50000  1.0000
  Sn  Sn1       1.0  0.50000  0.00000  0.00000  1.0000
  Sn  Sn2       1.0  0.00000  0.50000  0.00000  1.0000
  Sn  Sn3       1.0  0.76600  0.76600  0.46800  1.0000
  Sn  Sn4       1.0  0.23400  0.23400  0.53200  1.0000
