data_image0
_chemical_formula_structural       Bi5Nb4Rh5
_chemical_formula_sum              "Bi5 Nb4 Rh5"
_cell_length_a       6.32341
_cell_length_b       7.68565
_cell_length_c       7.68565
_cell_angle_alpha    80.2569
_cell_angle_beta     114.291
_cell_angle_gamma    114.291

_space_group_name_H-M_alt    "P 1"
_space_group_IT_number       1

loop_
  _space_group_symop_operation_xyz
  'x, y, z'

loop_
  _atom_site_type_symbol
  _atom_site_label
  _atom_site_symmetry_multiplicity
  _atom_site_fract_x
  _atom_site_fract_y
  _atom_site_fract_z
  _atom_site_occupancy
  Bi  Bi1       1.0  0.50000  0.00000  0.00000  1.0000
  Bi  Bi2       1.0  0.90200  0.63500  0.19300  1.0000
  Bi  Bi3       1.0  0.29100  0.19300  0.36500  1.0000
  Bi  Bi4       1.0  0.73300  0.80700  0.63500  1.0000
  Bi  Bi5       1.0  0.07350  0.36500  0.80700  1.0000
  Nb  Nb1       1.0  0.39700  0.60200  0.20400  1.0000
  Nb  Nb2       1.0  0.80800  0.20400  0.39800  1.0000
  Nb  Nb3       1.0  0.20500  0.79600  0.60200  1.0000
  Nb  Nb4       1.0  0.59000  0.39800  0.79600  1.0000
  Rh  Rh1       1.0  0.93700  0.32500  0.10800  1.0000
  Rh  Rh2       1.0  0.38800  0.89200  0.32500  1.0000
  Rh  Rh3       1.0  0.75000  0.50000  0.50000  1.0000
  Rh  Rh4       1.0  0.17000  0.10800  0.67500  1.0000
  Rh  Rh5       1.0  0.50400  0.67500  0.89200  1.0000
