data_image0
_chemical_formula_structural       K4Mn4O4Se4
_chemical_formula_sum              "K4 Mn4 O4 Se4"
_cell_length_a       8.35207
_cell_length_b       6.59852
_cell_length_c       5.92355
_cell_angle_alpha    90
_cell_angle_beta     101.082
_cell_angle_gamma    90

_space_group_name_H-M_alt    "P 1"
_space_group_IT_number       1

loop_
  _space_group_symop_operation_xyz
  'x, y, z'

loop_
  _atom_site_type_symbol
  _atom_site_label
  _atom_site_symmetry_multiplicity
  _atom_site_fract_x
  _atom_site_fract_y
  _atom_site_fract_z
  _atom_site_occupancy
  K   K1        1.0  0.86800  0.42100  0.17200  1.0000
  K   K2        1.0  0.13200  0.92100  0.32800  1.0000
  K   K3        1.0  0.86800  0.07870  0.67200  1.0000
  K   K4        1.0  0.13200  0.57900  0.82800  1.0000
  Mn  Mn1       1.0  0.50400  0.61000  0.23700  1.0000
  Mn  Mn2       1.0  0.49600  0.11000  0.26300  1.0000
  Mn  Mn3       1.0  0.50400  0.89000  0.73700  1.0000
  Mn  Mn4       1.0  0.49600  0.39000  0.76300  1.0000
  O   O1        1.0  0.56700  0.35300  0.12400  1.0000
  O   O2        1.0  0.43300  0.85300  0.37600  1.0000
  O   O3        1.0  0.56700  0.14700  0.62400  1.0000
  O   O4        1.0  0.43300  0.64700  0.87600  1.0000
  Se  Se1       1.0  0.74000  0.91900  0.12600  1.0000
  Se  Se2       1.0  0.26000  0.41900  0.37400  1.0000
  Se  Se3       1.0  0.74000  0.58100  0.62600  1.0000
  Se  Se4       1.0  0.26000  0.08100  0.87400  1.0000
