data_image0
_chemical_formula_structural       Cu2GeSe3
_chemical_formula_sum              "Cu2 Ge1 Se3"
_cell_length_a       4.03309
_cell_length_b       5.56551
_cell_length_c       6.8645
_cell_angle_alpha    113.915
_cell_angle_beta     107.083
_cell_angle_gamma    90

_space_group_name_H-M_alt    "P 1"
_space_group_IT_number       1

loop_
  _space_group_symop_operation_xyz
  'x, y, z'

loop_
  _atom_site_type_symbol
  _atom_site_label
  _atom_site_symmetry_multiplicity
  _atom_site_fract_x
  _atom_site_fract_y
  _atom_site_fract_z
  _atom_site_occupancy
  Cu  Cu1       1.0  0.16900  0.91000  0.33800  1.0000
  Cu  Cu2       1.0  0.83100  0.57100  0.66200  1.0000
  Ge  Ge1       1.0  0.50000  0.26500  0.00000  1.0000
  Se  Se1       1.0  0.00000  0.98900  0.00000  1.0000
  Se  Se2       1.0  0.67000  0.67300  0.34000  1.0000
  Se  Se3       1.0  0.33000  0.33300  0.66000  1.0000
