data_image0
_chemical_formula_structural       Nb4Pb5Pt5
_chemical_formula_sum              "Nb4 Pb5 Pt5"
_cell_length_a       6.36921
_cell_length_b       7.78304
_cell_length_c       7.78304
_cell_angle_alpha    80.362
_cell_angle_beta     114.153
_cell_angle_gamma    114.153

_space_group_name_H-M_alt    "P 1"
_space_group_IT_number       1

loop_
  _space_group_symop_operation_xyz
  'x, y, z'

loop_
  _atom_site_type_symbol
  _atom_site_label
  _atom_site_symmetry_multiplicity
  _atom_site_fract_x
  _atom_site_fract_y
  _atom_site_fract_z
  _atom_site_occupancy
  Nb  Nb1       1.0  0.39700  0.60000  0.20400  1.0000
  Nb  Nb2       1.0  0.80700  0.20400  0.40000  1.0000
  Nb  Nb3       1.0  0.20300  0.79600  0.60000  1.0000
  Nb  Nb4       1.0  0.59400  0.40000  0.79600  1.0000
  Pb  Pb1       1.0  0.50000  0.00000  0.00000  1.0000
  Pb  Pb2       1.0  0.90300  0.64500  0.19100  1.0000
  Pb  Pb3       1.0  0.28800  0.19100  0.35500  1.0000
  Pb  Pb4       1.0  0.74200  0.80900  0.64500  1.0000
  Pb  Pb5       1.0  0.06690  0.35500  0.80900  1.0000
  Pt  Pt1       1.0  0.93600  0.32800  0.10900  1.0000
  Pt  Pt2       1.0  0.39200  0.89100  0.32800  1.0000
  Pt  Pt3       1.0  0.75000  0.50000  0.50000  1.0000
  Pt  Pt4       1.0  0.17400  0.10900  0.67200  1.0000
  Pt  Pt5       1.0  0.49900  0.67200  0.89100  1.0000
