data_image0
_chemical_formula_structural       Cu4O4Os4Se4
_chemical_formula_sum              "Cu4 O4 Os4 Se4"
_cell_length_a       6.10068
_cell_length_b       6.60858
_cell_length_c       5.67052
_cell_angle_alpha    90
_cell_angle_beta     97.7757
_cell_angle_gamma    90

_space_group_name_H-M_alt    "P 1"
_space_group_IT_number       1

loop_
  _space_group_symop_operation_xyz
  'x, y, z'

loop_
  _atom_site_type_symbol
  _atom_site_label
  _atom_site_symmetry_multiplicity
  _atom_site_fract_x
  _atom_site_fract_y
  _atom_site_fract_z
  _atom_site_occupancy
  Cu  Cu1       1.0  0.09290  0.67000  0.04020  1.0000
  Cu  Cu2       1.0  0.90700  0.17000  0.46000  1.0000
  Cu  Cu3       1.0  0.09290  0.83000  0.54000  1.0000
  Cu  Cu4       1.0  0.90700  0.33000  0.96000  1.0000
  O   O1        1.0  0.61800  0.35400  0.07630  1.0000
  O   O2        1.0  0.38200  0.85400  0.42400  1.0000
  O   O3        1.0  0.61800  0.14600  0.57600  1.0000
  O   O4        1.0  0.38200  0.64600  0.92400  1.0000
  Os  Os1       1.0  0.48000  0.09500  0.21900  1.0000
  Os  Os2       1.0  0.52000  0.59500  0.28100  1.0000
  Os  Os3       1.0  0.48000  0.40500  0.71900  1.0000
  Os  Os4       1.0  0.52000  0.90500  0.78100  1.0000
  Se  Se1       1.0  0.78600  0.85500  0.14900  1.0000
  Se  Se2       1.0  0.21400  0.35500  0.35100  1.0000
  Se  Se3       1.0  0.78600  0.64500  0.64900  1.0000
  Se  Se4       1.0  0.21400  0.14500  0.85100  1.0000
