data_image0
_chemical_formula_structural       Cr4K4O4Se4
_chemical_formula_sum              "Cr4 K4 O4 Se4"
_cell_length_a       7.57859
_cell_length_b       6.70721
_cell_length_c       6.01406
_cell_angle_alpha    90
_cell_angle_beta     104.66
_cell_angle_gamma    90

_space_group_name_H-M_alt    "P 1"
_space_group_IT_number       1

loop_
  _space_group_symop_operation_xyz
  'x, y, z'

loop_
  _atom_site_type_symbol
  _atom_site_label
  _atom_site_symmetry_multiplicity
  _atom_site_fract_x
  _atom_site_fract_y
  _atom_site_fract_z
  _atom_site_occupancy
  Cr  Cr1       1.0  0.51300  0.61800  0.22400  1.0000
  Cr  Cr2       1.0  0.48700  0.11800  0.27600  1.0000
  Cr  Cr3       1.0  0.51300  0.88200  0.72400  1.0000
  Cr  Cr4       1.0  0.48700  0.38200  0.77600  1.0000
  K   K1        1.0  0.10400  0.74400  0.02270  1.0000
  K   K2        1.0  0.89600  0.24400  0.47700  1.0000
  K   K3        1.0  0.10400  0.75600  0.52300  1.0000
  K   K4        1.0  0.89600  0.25600  0.97700  1.0000
  O   O1        1.0  0.60700  0.35900  0.12800  1.0000
  O   O2        1.0  0.39300  0.85900  0.37200  1.0000
  O   O3        1.0  0.60700  0.14100  0.62800  1.0000
  O   O4        1.0  0.39300  0.64100  0.87200  1.0000
  Se  Se1       1.0  0.72500  0.88700  0.14600  1.0000
  Se  Se2       1.0  0.27500  0.38700  0.35400  1.0000
  Se  Se3       1.0  0.72500  0.61300  0.64600  1.0000
  Se  Se4       1.0  0.27500  0.11300  0.85400  1.0000
