data_image0
_chemical_formula_structural       Nb4Ni5Pb5
_chemical_formula_sum              "Nb4 Ni5 Pb5"
_cell_length_a       6.07153
_cell_length_b       7.42347
_cell_length_c       7.42347
_cell_angle_alpha    80.373
_cell_angle_beta     114.138
_cell_angle_gamma    114.138

_space_group_name_H-M_alt    "P 1"
_space_group_IT_number       1

loop_
  _space_group_symop_operation_xyz
  'x, y, z'

loop_
  _atom_site_type_symbol
  _atom_site_label
  _atom_site_symmetry_multiplicity
  _atom_site_fract_x
  _atom_site_fract_y
  _atom_site_fract_z
  _atom_site_occupancy
  Nb  Nb1       1.0  0.39500  0.60100  0.20300  1.0000
  Nb  Nb2       1.0  0.80800  0.20300  0.39900  1.0000
  Nb  Nb3       1.0  0.20600  0.79700  0.60100  1.0000
  Nb  Nb4       1.0  0.59100  0.39900  0.79700  1.0000
  Ni  Ni1       1.0  0.93700  0.32400  0.10700  1.0000
  Ni  Ni2       1.0  0.38700  0.89300  0.32400  1.0000
  Ni  Ni3       1.0  0.75000  0.50000  0.50000  1.0000
  Ni  Ni4       1.0  0.17100  0.10700  0.67600  1.0000
  Ni  Ni5       1.0  0.50600  0.67600  0.89300  1.0000
  Pb  Pb1       1.0  0.50000  0.00000  0.00000  1.0000
  Pb  Pb2       1.0  0.90200  0.63700  0.19000  1.0000
  Pb  Pb3       1.0  0.28800  0.19000  0.36300  1.0000
  Pb  Pb4       1.0  0.73500  0.81000  0.63700  1.0000
  Pb  Pb5       1.0  0.07530  0.36300  0.81000  1.0000
