data_image0
_chemical_formula_structural       Ca2O2Pb2Te2
_chemical_formula_sum              "Ca2 O2 Pb2 Te2"
_cell_length_a       3.26704
_cell_length_b       6.10199
_cell_length_c       9.27374
_cell_angle_alpha    90
_cell_angle_beta     79.8547
_cell_angle_gamma    90

_space_group_name_H-M_alt    "P 1"
_space_group_IT_number       1

loop_
  _space_group_symop_operation_xyz
  'x, y, z'

loop_
  _atom_site_type_symbol
  _atom_site_label
  _atom_site_symmetry_multiplicity
  _atom_site_fract_x
  _atom_site_fract_y
  _atom_site_fract_z
  _atom_site_occupancy
  Ca  Ca1       1.0  0.46000  0.75000  0.08030  1.0000
  Ca  Ca2       1.0  0.54000  0.25000  0.92000  1.0000
  O   O1        1.0  0.00000  0.00000  0.00000  1.0000
  O   O2        1.0  0.00000  0.50000  0.00000  1.0000
  Pb  Pb1       1.0  0.87300  0.25000  0.25400  1.0000
  Pb  Pb2       1.0  0.12700  0.75000  0.74600  1.0000
  Te  Te1       1.0  0.80400  0.75000  0.39200  1.0000
  Te  Te2       1.0  0.19600  0.25000  0.60800  1.0000
