data_image0
_chemical_formula_structural       Hg4O4Os4Se4
_chemical_formula_sum              "Hg4 O4 Os4 Se4"
_cell_length_a       7.07821
_cell_length_b       6.96482
_cell_length_c       6.03739
_cell_angle_alpha    90
_cell_angle_beta     94.836
_cell_angle_gamma    90

_space_group_name_H-M_alt    "P 1"
_space_group_IT_number       1

loop_
  _space_group_symop_operation_xyz
  'x, y, z'

loop_
  _atom_site_type_symbol
  _atom_site_label
  _atom_site_symmetry_multiplicity
  _atom_site_fract_x
  _atom_site_fract_y
  _atom_site_fract_z
  _atom_site_occupancy
  Hg  Hg1       1.0  0.06850  0.69300  0.09470  1.0000
  Hg  Hg2       1.0  0.93100  0.19300  0.40500  1.0000
  Hg  Hg3       1.0  0.06850  0.80700  0.59500  1.0000
  Hg  Hg4       1.0  0.93100  0.30700  0.90500  1.0000
  O   O1        1.0  0.58300  0.39000  0.12000  1.0000
  O   O2        1.0  0.41700  0.89000  0.38000  1.0000
  O   O3        1.0  0.58300  0.11000  0.62000  1.0000
  O   O4        1.0  0.41700  0.61000  0.88000  1.0000
  Os  Os1       1.0  0.47700  0.64200  0.22400  1.0000
  Os  Os2       1.0  0.52300  0.14200  0.27600  1.0000
  Os  Os3       1.0  0.47700  0.85800  0.72400  1.0000
  Os  Os4       1.0  0.52300  0.35800  0.77600  1.0000
  Se  Se1       1.0  0.69600  0.89300  0.06570  1.0000
  Se  Se2       1.0  0.30400  0.39300  0.43400  1.0000
  Se  Se3       1.0  0.69600  0.60700  0.56600  1.0000
  Se  Se4       1.0  0.30400  0.10700  0.93400  1.0000
