data_image0
_chemical_formula_structural       Ag4O4Os4Se4
_chemical_formula_sum              "Ag4 O4 Os4 Se4"
_cell_length_a       6.81212
_cell_length_b       5.88521
_cell_length_c       6.44333
_cell_angle_alpha    90
_cell_angle_beta     96.6851
_cell_angle_gamma    90

_space_group_name_H-M_alt    "P 1"
_space_group_IT_number       1

loop_
  _space_group_symop_operation_xyz
  'x, y, z'

loop_
  _atom_site_type_symbol
  _atom_site_label
  _atom_site_symmetry_multiplicity
  _atom_site_fract_x
  _atom_site_fract_y
  _atom_site_fract_z
  _atom_site_occupancy
  Ag  Ag1       1.0  0.07810  0.69600  0.11100  1.0000
  Ag  Ag2       1.0  0.92200  0.19600  0.38900  1.0000
  Ag  Ag3       1.0  0.07810  0.80400  0.61100  1.0000
  Ag  Ag4       1.0  0.92200  0.30400  0.88900  1.0000
  O   O1        1.0  0.63000  0.37600  0.09140  1.0000
  O   O2        1.0  0.37000  0.87600  0.40900  1.0000
  O   O3        1.0  0.63000  0.12400  0.59100  1.0000
  O   O4        1.0  0.37000  0.62400  0.90900  1.0000
  Os  Os1       1.0  0.50800  0.63100  0.23500  1.0000
  Os  Os2       1.0  0.49200  0.13100  0.26500  1.0000
  Os  Os3       1.0  0.50800  0.86900  0.73500  1.0000
  Os  Os4       1.0  0.49200  0.36900  0.76500  1.0000
  Se  Se1       1.0  0.72900  0.88800  0.06580  1.0000
  Se  Se2       1.0  0.27100  0.38800  0.43400  1.0000
  Se  Se3       1.0  0.72900  0.61200  0.56600  1.0000
  Se  Se4       1.0  0.27100  0.11200  0.93400  1.0000
