data_image0
_chemical_formula_structural       Ge2H4La2O8
_chemical_formula_sum              "Ge2 H4 La2 O8"
_cell_length_a       6.47318
_cell_length_b       6.47318
_cell_length_c       6.47318
_cell_angle_alpha    114.759
_cell_angle_beta     99.3465
_cell_angle_gamma    114.759

_space_group_name_H-M_alt    "P 1"
_space_group_IT_number       1

loop_
  _space_group_symop_operation_xyz
  'x, y, z'

loop_
  _atom_site_type_symbol
  _atom_site_label
  _atom_site_symmetry_multiplicity
  _atom_site_fract_x
  _atom_site_fract_y
  _atom_site_fract_z
  _atom_site_occupancy
  Ge  Ge1       1.0  0.00000  0.00000  0.00000  1.0000
  Ge  Ge2       1.0  0.75000  0.50000  0.25000  1.0000
  H   H1        1.0  0.52600  0.50000  0.02630  1.0000
  H   H2        1.0  0.22400  0.00000  0.22400  1.0000
  H   H3        1.0  0.97400  0.50000  0.47400  1.0000
  H   H4        1.0  0.77600  0.00000  0.77600  1.0000
  La  La1       1.0  0.50000  0.00000  0.50000  1.0000
  La  La2       1.0  0.25000  0.50000  0.75000  1.0000
  O   O1        1.0  0.18800  0.82700  0.02460  1.0000
  O   O2        1.0  0.55200  0.66400  0.22500  1.0000
  O   O3        1.0  0.19800  0.17300  0.36200  1.0000
  O   O4        1.0  0.77500  0.32700  0.43800  1.0000
  O   O5        1.0  0.11200  0.67300  0.44800  1.0000
  O   O6        1.0  0.97500  0.16400  0.80200  1.0000
  O   O7        1.0  0.63800  0.83600  0.81200  1.0000
  O   O8        1.0  0.56200  0.33600  0.88800  1.0000
