data_image0
_chemical_formula_structural       Co4Li4O4Se4
_chemical_formula_sum              "Co4 Li4 O4 Se4"
_cell_length_a       6.3029
_cell_length_b       6.41806
_cell_length_c       5.4257
_cell_angle_alpha    90
_cell_angle_beta     102.608
_cell_angle_gamma    90

_space_group_name_H-M_alt    "P 1"
_space_group_IT_number       1

loop_
  _space_group_symop_operation_xyz
  'x, y, z'

loop_
  _atom_site_type_symbol
  _atom_site_label
  _atom_site_symmetry_multiplicity
  _atom_site_fract_x
  _atom_site_fract_y
  _atom_site_fract_z
  _atom_site_occupancy
  Co  Co1       1.0  0.52400  0.61300  0.23300  1.0000
  Co  Co2       1.0  0.47600  0.11300  0.26700  1.0000
  Co  Co3       1.0  0.52400  0.88700  0.73300  1.0000
  Co  Co4       1.0  0.47600  0.38700  0.76700  1.0000
  Li  Li1       1.0  0.15000  0.75500  0.05460  1.0000
  Li  Li2       1.0  0.85000  0.25500  0.44500  1.0000
  Li  Li3       1.0  0.15000  0.74500  0.55500  1.0000
  Li  Li4       1.0  0.85000  0.24500  0.94500  1.0000
  O   O1        1.0  0.64100  0.34600  0.13600  1.0000
  O   O2        1.0  0.35900  0.84600  0.36400  1.0000
  O   O3        1.0  0.64100  0.15400  0.63600  1.0000
  O   O4        1.0  0.35900  0.65400  0.86400  1.0000
  Se  Se1       1.0  0.78900  0.87800  0.15800  1.0000
  Se  Se2       1.0  0.21100  0.37800  0.34200  1.0000
  Se  Se3       1.0  0.78900  0.62200  0.65800  1.0000
  Se  Se4       1.0  0.21100  0.12200  0.84200  1.0000
