data_image0
_chemical_formula_structural       Hg4O4Rh4Se4
_chemical_formula_sum              "Hg4 O4 Rh4 Se4"
_cell_length_a       7.29909
_cell_length_b       6.64057
_cell_length_c       5.93249
_cell_angle_alpha    90
_cell_angle_beta     90.3911
_cell_angle_gamma    90

_space_group_name_H-M_alt    "P 1"
_space_group_IT_number       1

loop_
  _space_group_symop_operation_xyz
  'x, y, z'

loop_
  _atom_site_type_symbol
  _atom_site_label
  _atom_site_symmetry_multiplicity
  _atom_site_fract_x
  _atom_site_fract_y
  _atom_site_fract_z
  _atom_site_occupancy
  Hg  Hg1       1.0  0.93200  0.29500  0.02450  1.0000
  Hg  Hg2       1.0  0.06780  0.79500  0.47600  1.0000
  Hg  Hg3       1.0  0.93200  0.20500  0.52400  1.0000
  Hg  Hg4       1.0  0.06780  0.70500  0.97600  1.0000
  O   O1        1.0  0.61100  0.36600  0.09380  1.0000
  O   O2        1.0  0.38900  0.86600  0.40600  1.0000
  O   O3        1.0  0.61100  0.13400  0.59400  1.0000
  O   O4        1.0  0.38900  0.63400  0.90600  1.0000
  Rh  Rh1       1.0  0.51500  0.62500  0.23800  1.0000
  Rh  Rh2       1.0  0.48500  0.12500  0.26200  1.0000
  Rh  Rh3       1.0  0.51500  0.87500  0.73800  1.0000
  Rh  Rh4       1.0  0.48500  0.37500  0.76200  1.0000
  Se  Se1       1.0  0.70700  0.89800  0.07200  1.0000
  Se  Se2       1.0  0.29300  0.39800  0.42800  1.0000
  Se  Se3       1.0  0.70700  0.60200  0.57200  1.0000
  Se  Se4       1.0  0.29300  0.10200  0.92800  1.0000
