data_image0
_chemical_formula_structural       As5Co5Nb4
_chemical_formula_sum              "As5 Co5 Nb4"
_cell_length_a       5.69756
_cell_length_b       6.92232
_cell_length_c       6.92232
_cell_angle_alpha    80.2493
_cell_angle_beta     114.301
_cell_angle_gamma    114.301

_space_group_name_H-M_alt    "P 1"
_space_group_IT_number       1

loop_
  _space_group_symop_operation_xyz
  'x, y, z'

loop_
  _atom_site_type_symbol
  _atom_site_label
  _atom_site_symmetry_multiplicity
  _atom_site_fract_x
  _atom_site_fract_y
  _atom_site_fract_z
  _atom_site_occupancy
  As  As1       1.0  0.50000  0.00000  0.00000  1.0000
  As  As2       1.0  0.90400  0.61900  0.19300  1.0000
  As  As3       1.0  0.28900  0.19300  0.38100  1.0000
  As  As4       1.0  0.71400  0.80700  0.61900  1.0000
  As  As5       1.0  0.09260  0.38100  0.80700  1.0000
  Co  Co1       1.0  0.94700  0.31500  0.10300  1.0000
  Co  Co2       1.0  0.36800  0.89700  0.31500  1.0000
  Co  Co3       1.0  0.75000  0.50000  0.50000  1.0000
  Co  Co4       1.0  0.15600  0.10300  0.68500  1.0000
  Co  Co5       1.0  0.52900  0.68500  0.89700  1.0000
  Nb  Nb1       1.0  0.40000  0.60200  0.20200  1.0000
  Nb  Nb2       1.0  0.80200  0.20200  0.39800  1.0000
  Nb  Nb3       1.0  0.20200  0.79800  0.60200  1.0000
  Nb  Nb4       1.0  0.59600  0.39800  0.79800  1.0000
