data_image0
_chemical_formula_structural       Bi5Rh5V4
_chemical_formula_sum              "Bi5 Rh5 V4"
_cell_length_a       6.17591
_cell_length_b       7.54306
_cell_length_c       7.54306
_cell_angle_alpha    80.3523
_cell_angle_beta     114.166
_cell_angle_gamma    114.166

_space_group_name_H-M_alt    "P 1"
_space_group_IT_number       1

loop_
  _space_group_symop_operation_xyz
  'x, y, z'

loop_
  _atom_site_type_symbol
  _atom_site_label
  _atom_site_symmetry_multiplicity
  _atom_site_fract_x
  _atom_site_fract_y
  _atom_site_fract_z
  _atom_site_occupancy
  Bi  Bi1       1.0  0.50000  0.00000  0.00000  1.0000
  Bi  Bi2       1.0  0.90000  0.64100  0.19600  1.0000
  Bi  Bi3       1.0  0.29600  0.19600  0.35900  1.0000
  Bi  Bi4       1.0  0.74000  0.80400  0.64100  1.0000
  Bi  Bi5       1.0  0.06380  0.35900  0.80400  1.0000
  Rh  Rh1       1.0  0.93300  0.32800  0.11100  1.0000
  Rh  Rh2       1.0  0.39500  0.88900  0.32800  1.0000
  Rh  Rh3       1.0  0.75000  0.50000  0.50000  1.0000
  Rh  Rh4       1.0  0.17800  0.11100  0.67200  1.0000
  Rh  Rh5       1.0  0.49400  0.67200  0.88900  1.0000
  V   V1        1.0  0.39300  0.60300  0.20400  1.0000
  V   V2        1.0  0.81100  0.20400  0.39700  1.0000
  V   V3        1.0  0.21000  0.79600  0.60300  1.0000
  V   V4        1.0  0.58600  0.39700  0.79600  1.0000
