data_image0
_chemical_formula_structural       Ir5Nb4Sb5
_chemical_formula_sum              "Ir5 Nb4 Sb5"
_cell_length_a       6.24913
_cell_length_b       7.59597
_cell_length_c       7.59597
_cell_angle_alpha    80.2584
_cell_angle_beta     114.289
_cell_angle_gamma    114.289

_space_group_name_H-M_alt    "P 1"
_space_group_IT_number       1

loop_
  _space_group_symop_operation_xyz
  'x, y, z'

loop_
  _atom_site_type_symbol
  _atom_site_label
  _atom_site_symmetry_multiplicity
  _atom_site_fract_x
  _atom_site_fract_y
  _atom_site_fract_z
  _atom_site_occupancy
  Ir  Ir1       1.0  0.94100  0.32300  0.10600  1.0000
  Ir  Ir2       1.0  0.38200  0.89400  0.32300  1.0000
  Ir  Ir3       1.0  0.75000  0.50000  0.50000  1.0000
  Ir  Ir4       1.0  0.16500  0.10600  0.67700  1.0000
  Ir  Ir5       1.0  0.51200  0.67700  0.89400  1.0000
  Nb  Nb1       1.0  0.39800  0.60100  0.20400  1.0000
  Nb  Nb2       1.0  0.80600  0.20400  0.39900  1.0000
  Nb  Nb3       1.0  0.20300  0.79600  0.60100  1.0000
  Nb  Nb4       1.0  0.59300  0.39900  0.79600  1.0000
  Sb  Sb1       1.0  0.50000  0.00000  0.00000  1.0000
  Sb  Sb2       1.0  0.90300  0.63000  0.19300  1.0000
  Sb  Sb3       1.0  0.28900  0.19300  0.37000  1.0000
  Sb  Sb4       1.0  0.72600  0.80700  0.63000  1.0000
  Sb  Sb5       1.0  0.08120  0.37000  0.80700  1.0000
