data_image0
_chemical_formula_structural       Au4Ir4O4Se4
_chemical_formula_sum              "Au4 Ir4 O4 Se4"
_cell_length_a       6.63454
_cell_length_b       6.72679
_cell_length_c       6.10612
_cell_angle_alpha    90
_cell_angle_beta     84.5463
_cell_angle_gamma    90

_space_group_name_H-M_alt    "P 1"
_space_group_IT_number       1

loop_
  _space_group_symop_operation_xyz
  'x, y, z'

loop_
  _atom_site_type_symbol
  _atom_site_label
  _atom_site_symmetry_multiplicity
  _atom_site_fract_x
  _atom_site_fract_y
  _atom_site_fract_z
  _atom_site_occupancy
  Au  Au1       1.0  0.95100  0.28800  0.03590  1.0000
  Au  Au2       1.0  0.04920  0.78800  0.46400  1.0000
  Au  Au3       1.0  0.95100  0.21200  0.53600  1.0000
  Au  Au4       1.0  0.04920  0.71200  0.96400  1.0000
  Ir  Ir1       1.0  0.50700  0.62700  0.23200  1.0000
  Ir  Ir2       1.0  0.49300  0.12700  0.26800  1.0000
  Ir  Ir3       1.0  0.50700  0.87300  0.73200  1.0000
  Ir  Ir4       1.0  0.49300  0.37300  0.76800  1.0000
  O   O1        1.0  0.63300  0.37300  0.08180  1.0000
  O   O2        1.0  0.36700  0.87300  0.41800  1.0000
  O   O3        1.0  0.63300  0.12700  0.58200  1.0000
  O   O4        1.0  0.36700  0.62700  0.91800  1.0000
  Se  Se1       1.0  0.71400  0.87300  0.03550  1.0000
  Se  Se2       1.0  0.28600  0.37300  0.46400  1.0000
  Se  Se3       1.0  0.71400  0.62700  0.53600  1.0000
  Se  Se4       1.0  0.28600  0.12700  0.96400  1.0000
