data_image0
_chemical_formula_structural       Au4O4Rb4Se4
_chemical_formula_sum              "Au4 O4 Rb4 Se4"
_cell_length_a       5.6531
_cell_length_b       6.49917
_cell_length_c       11.2452
_cell_angle_alpha    90
_cell_angle_beta     99.0724
_cell_angle_gamma    90

_space_group_name_H-M_alt    "P 1"
_space_group_IT_number       1

loop_
  _space_group_symop_operation_xyz
  'x, y, z'

loop_
  _atom_site_type_symbol
  _atom_site_label
  _atom_site_symmetry_multiplicity
  _atom_site_fract_x
  _atom_site_fract_y
  _atom_site_fract_z
  _atom_site_occupancy
  Au  Au1       1.0  0.49100  0.01300  0.24100  1.0000
  Au  Au2       1.0  0.50900  0.51300  0.25800  1.0000
  Au  Au3       1.0  0.49100  0.48700  0.74100  1.0000
  Au  Au4       1.0  0.50900  0.98700  0.75900  1.0000
  O   O1        1.0  0.76500  0.73600  0.03550  1.0000
  O   O2        1.0  0.23500  0.23600  0.46400  1.0000
  O   O3        1.0  0.76500  0.76400  0.53600  1.0000
  O   O4        1.0  0.23500  0.26400  0.96400  1.0000
  Rb  Rb1       1.0  0.76300  0.26400  0.02360  1.0000
  Rb  Rb2       1.0  0.23700  0.76400  0.47600  1.0000
  Rb  Rb3       1.0  0.76300  0.23600  0.52400  1.0000
  Rb  Rb4       1.0  0.23700  0.73600  0.97600  1.0000
  Se  Se1       1.0  0.79500  0.76300  0.19400  1.0000
  Se  Se2       1.0  0.20500  0.26300  0.30600  1.0000
  Se  Se3       1.0  0.79500  0.73700  0.69400  1.0000
  Se  Se4       1.0  0.20500  0.23700  0.80600  1.0000
