data_image0
_chemical_formula_structural       Fe4O4Se4Sr4
_chemical_formula_sum              "Fe4 O4 Se4 Sr4"
_cell_length_a       6.20971
_cell_length_b       4.0956
_cell_length_c       13.6085
_cell_angle_alpha    90
_cell_angle_beta     90
_cell_angle_gamma    90

_space_group_name_H-M_alt    "P 1"
_space_group_IT_number       1

loop_
  _space_group_symop_operation_xyz
  'x, y, z'

loop_
  _atom_site_type_symbol
  _atom_site_label
  _atom_site_symmetry_multiplicity
  _atom_site_fract_x
  _atom_site_fract_y
  _atom_site_fract_z
  _atom_site_occupancy
  Fe  Fe1       1.0  0.62800  0.25000  0.20300  1.0000
  Fe  Fe2       1.0  0.12800  0.25000  0.29700  1.0000
  Fe  Fe3       1.0  0.87200  0.75000  0.70300  1.0000
  Fe  Fe4       1.0  0.37200  0.75000  0.79700  1.0000
  O   O1        1.0  0.31400  0.25000  0.18200  1.0000
  O   O2        1.0  0.81400  0.25000  0.31800  1.0000
  O   O3        1.0  0.18600  0.75000  0.68200  1.0000
  O   O4        1.0  0.68600  0.75000  0.81800  1.0000
  Se  Se1       1.0  0.75400  0.75000  0.09750  1.0000
  Se  Se2       1.0  0.25400  0.75000  0.40300  1.0000
  Se  Se3       1.0  0.74600  0.25000  0.59700  1.0000
  Se  Se4       1.0  0.24600  0.25000  0.90300  1.0000
  Sr  Sr1       1.0  0.25200  0.75000  0.08520  1.0000
  Sr  Sr2       1.0  0.75200  0.75000  0.41500  1.0000
  Sr  Sr3       1.0  0.24800  0.25000  0.58500  1.0000
  Sr  Sr4       1.0  0.74800  0.25000  0.91500  1.0000
