data_image0
_chemical_formula_structural       Ge5Pt5Ta4
_chemical_formula_sum              "Ge5 Pt5 Ta4"
_cell_length_a       6.06072
_cell_length_b       7.3939
_cell_length_c       7.3939
_cell_angle_alpha    80.33
_cell_angle_beta     114.195
_cell_angle_gamma    114.195

_space_group_name_H-M_alt    "P 1"
_space_group_IT_number       1

loop_
  _space_group_symop_operation_xyz
  'x, y, z'

loop_
  _atom_site_type_symbol
  _atom_site_label
  _atom_site_symmetry_multiplicity
  _atom_site_fract_x
  _atom_site_fract_y
  _atom_site_fract_z
  _atom_site_occupancy
  Ge  Ge1       1.0  0.50000  0.00000  0.00000  1.0000
  Ge  Ge2       1.0  0.90400  0.62500  0.19200  1.0000
  Ge  Ge3       1.0  0.28800  0.19200  0.37500  1.0000
  Ge  Ge4       1.0  0.72100  0.80800  0.62500  1.0000
  Ge  Ge5       1.0  0.08650  0.37500  0.80800  1.0000
  Pt  Pt1       1.0  0.94600  0.31700  0.10600  1.0000
  Pt  Pt2       1.0  0.37100  0.89400  0.31700  1.0000
  Pt  Pt3       1.0  0.75000  0.50000  0.50000  1.0000
  Pt  Pt4       1.0  0.16000  0.10600  0.68300  1.0000
  Pt  Pt5       1.0  0.52300  0.68300  0.89400  1.0000
  Ta  Ta1       1.0  0.40100  0.60100  0.20100  1.0000
  Ta  Ta2       1.0  0.80000  0.20100  0.39900  1.0000
  Ta  Ta3       1.0  0.20000  0.79900  0.60100  1.0000
  Ta  Ta4       1.0  0.59900  0.39900  0.79900  1.0000
