data_image0
_chemical_formula_structural       Co5Sb5Ta4
_chemical_formula_sum              "Co5 Sb5 Ta4"
_cell_length_a       5.94484
_cell_length_b       7.22549
_cell_length_c       7.22549
_cell_angle_alpha    80.2567
_cell_angle_beta     114.292
_cell_angle_gamma    114.292

_space_group_name_H-M_alt    "P 1"
_space_group_IT_number       1

loop_
  _space_group_symop_operation_xyz
  'x, y, z'

loop_
  _atom_site_type_symbol
  _atom_site_label
  _atom_site_symmetry_multiplicity
  _atom_site_fract_x
  _atom_site_fract_y
  _atom_site_fract_z
  _atom_site_occupancy
  Co  Co1       1.0  0.94100  0.32200  0.10500  1.0000
  Co  Co2       1.0  0.38100  0.89500  0.32200  1.0000
  Co  Co3       1.0  0.75000  0.50000  0.50000  1.0000
  Co  Co4       1.0  0.16400  0.10500  0.67800  1.0000
  Co  Co5       1.0  0.51400  0.67800  0.89500  1.0000
  Sb  Sb1       1.0  0.50000  0.00000  0.00000  1.0000
  Sb  Sb2       1.0  0.90300  0.62800  0.19100  1.0000
  Sb  Sb3       1.0  0.28800  0.19100  0.37200  1.0000
  Sb  Sb4       1.0  0.72400  0.80900  0.62800  1.0000
  Sb  Sb5       1.0  0.08470  0.37200  0.80900  1.0000
  Ta  Ta1       1.0  0.39900  0.60300  0.20500  1.0000
  Ta  Ta2       1.0  0.80600  0.20500  0.39700  1.0000
  Ta  Ta3       1.0  0.20400  0.79500  0.60300  1.0000
  Ta  Ta4       1.0  0.59200  0.39700  0.79500  1.0000
