data_image0
_chemical_formula_structural       Ir5Sb5V4
_chemical_formula_sum              "Ir5 Sb5 V4"
_cell_length_a       6.08123
_cell_length_b       7.40674
_cell_length_c       7.40674
_cell_angle_alpha    80.2978
_cell_angle_beta     114.238
_cell_angle_gamma    114.238

_space_group_name_H-M_alt    "P 1"
_space_group_IT_number       1

loop_
  _space_group_symop_operation_xyz
  'x, y, z'

loop_
  _atom_site_type_symbol
  _atom_site_label
  _atom_site_symmetry_multiplicity
  _atom_site_fract_x
  _atom_site_fract_y
  _atom_site_fract_z
  _atom_site_occupancy
  Ir  Ir1       1.0  0.93700  0.32500  0.10800  1.0000
  Ir  Ir2       1.0  0.38800  0.89200  0.32500  1.0000
  Ir  Ir3       1.0  0.75000  0.50000  0.50000  1.0000
  Ir  Ir4       1.0  0.17100  0.10800  0.67500  1.0000
  Ir  Ir5       1.0  0.50400  0.67500  0.89200  1.0000
  Sb  Sb1       1.0  0.50000  0.00000  0.00000  1.0000
  Sb  Sb2       1.0  0.90200  0.63300  0.19600  1.0000
  Sb  Sb3       1.0  0.29400  0.19600  0.36700  1.0000
  Sb  Sb4       1.0  0.73100  0.80400  0.63300  1.0000
  Sb  Sb5       1.0  0.07260  0.36700  0.80400  1.0000
  V   V1        1.0  0.39500  0.60200  0.20300  1.0000
  V   V2        1.0  0.80800  0.20300  0.39800  1.0000
  V   V3        1.0  0.20600  0.79700  0.60200  1.0000
  V   V4        1.0  0.59000  0.39800  0.79700  1.0000
