data_image0
_chemical_formula_structural       Au4Hf3Pb4
_chemical_formula_sum              "Au4 Hf3 Pb4"
_cell_length_a       6.56951
_cell_length_b       6.56951
_cell_length_c       8.00708
_cell_angle_alpha    65.7806
_cell_angle_beta     65.7806
_cell_angle_gamma    90

_space_group_name_H-M_alt    "P 1"
_space_group_IT_number       1

loop_
  _space_group_symop_operation_xyz
  'x, y, z'

loop_
  _atom_site_type_symbol
  _atom_site_label
  _atom_site_symmetry_multiplicity
  _atom_site_fract_x
  _atom_site_fract_y
  _atom_site_fract_z
  _atom_site_occupancy
  Au  Au1       1.0  0.59900  0.14100  0.26000  1.0000
  Au  Au2       1.0  0.14100  0.59900  0.26000  1.0000
  Au  Au3       1.0  0.40100  0.40100  0.74000  1.0000
  Au  Au4       1.0  0.85900  0.85900  0.74000  1.0000
  Hf  Hf1       1.0  0.50000  0.50000  0.00000  1.0000
  Hf  Hf2       1.0  0.75000  0.25000  0.50000  1.0000
  Hf  Hf3       1.0  0.25000  0.75000  0.50000  1.0000
  Pb  Pb1       1.0  0.50000  0.00000  0.00000  1.0000
  Pb  Pb2       1.0  0.00000  0.50000  0.00000  1.0000
  Pb  Pb3       1.0  0.77700  0.77700  0.44500  1.0000
  Pb  Pb4       1.0  0.22300  0.22300  0.55500  1.0000
