data_image0
_chemical_formula_structural       O2Sr2Te2Zn2
_chemical_formula_sum              "O2 Sr2 Te2 Zn2"
_cell_length_a       4.12214
_cell_length_b       6.06732
_cell_length_c       7.2554
_cell_angle_alpha    90
_cell_angle_beta     73.4965
_cell_angle_gamma    90

_space_group_name_H-M_alt    "P 1"
_space_group_IT_number       1

loop_
  _space_group_symop_operation_xyz
  'x, y, z'

loop_
  _atom_site_type_symbol
  _atom_site_label
  _atom_site_symmetry_multiplicity
  _atom_site_fract_x
  _atom_site_fract_y
  _atom_site_fract_z
  _atom_site_occupancy
  O   O1        1.0  0.00000  0.00000  0.00000  1.0000
  O   O2        1.0  0.00000  0.50000  0.00000  1.0000
  Sr  Sr1       1.0  0.41300  0.75000  0.17400  1.0000
  Sr  Sr2       1.0  0.58700  0.25000  0.82600  1.0000
  Te  Te1       1.0  0.29700  0.25000  0.40700  1.0000
  Te  Te2       1.0  0.70300  0.75000  0.59300  1.0000
  Zn  Zn1       1.0  0.90700  0.25000  0.18700  1.0000
  Zn  Zn2       1.0  0.09340  0.75000  0.81300  1.0000
