data_image0
_chemical_formula_structural       Pd5Sn5Ta4
_chemical_formula_sum              "Pd5 Sn5 Ta4"
_cell_length_a       6.22106
_cell_length_b       7.61734
_cell_length_c       7.61734
_cell_angle_alpha    80.4012
_cell_angle_beta     114.101
_cell_angle_gamma    114.101

_space_group_name_H-M_alt    "P 1"
_space_group_IT_number       1

loop_
  _space_group_symop_operation_xyz
  'x, y, z'

loop_
  _atom_site_type_symbol
  _atom_site_label
  _atom_site_symmetry_multiplicity
  _atom_site_fract_x
  _atom_site_fract_y
  _atom_site_fract_z
  _atom_site_occupancy
  Pd  Pd1       1.0  0.94200  0.31900  0.10700  1.0000
  Pd  Pd2       1.0  0.37800  0.89300  0.31900  1.0000
  Pd  Pd3       1.0  0.75000  0.50000  0.50000  1.0000
  Pd  Pd4       1.0  0.16500  0.10700  0.68100  1.0000
  Pd  Pd5       1.0  0.51600  0.68100  0.89300  1.0000
  Sn  Sn1       1.0  0.50000  0.00000  0.00000  1.0000
  Sn  Sn2       1.0  0.90300  0.62600  0.19500  1.0000
  Sn  Sn3       1.0  0.29200  0.19500  0.37400  1.0000
  Sn  Sn4       1.0  0.72400  0.80500  0.62600  1.0000
  Sn  Sn5       1.0  0.08120  0.37400  0.80500  1.0000
  Ta  Ta1       1.0  0.39800  0.60000  0.20000  1.0000
  Ta  Ta2       1.0  0.80200  0.20000  0.40000  1.0000
  Ta  Ta3       1.0  0.20300  0.80000  0.60000  1.0000
  Ta  Ta4       1.0  0.59800  0.40000  0.80000  1.0000
