data_image0
_chemical_formula_structural       Ni4Sb4Ti3
_chemical_formula_sum              "Ni4 Sb4 Ti3"
_cell_length_a       5.90287
_cell_length_b       5.90287
_cell_length_c       7.18303
_cell_angle_alpha    65.7392
_cell_angle_beta     65.7392
_cell_angle_gamma    90

_space_group_name_H-M_alt    "P 1"
_space_group_IT_number       1

loop_
  _space_group_symop_operation_xyz
  'x, y, z'

loop_
  _atom_site_type_symbol
  _atom_site_label
  _atom_site_symmetry_multiplicity
  _atom_site_fract_x
  _atom_site_fract_y
  _atom_site_fract_z
  _atom_site_occupancy
  Ni  Ni1       1.0  0.60700  0.13500  0.25800  1.0000
  Ni  Ni2       1.0  0.13500  0.60700  0.25800  1.0000
  Ni  Ni3       1.0  0.39300  0.39300  0.74200  1.0000
  Ni  Ni4       1.0  0.86500  0.86500  0.74200  1.0000
  Sb  Sb1       1.0  0.50000  0.00000  0.00000  1.0000
  Sb  Sb2       1.0  0.00000  0.50000  0.00000  1.0000
  Sb  Sb3       1.0  0.76400  0.76400  0.47200  1.0000
  Sb  Sb4       1.0  0.23600  0.23600  0.52800  1.0000
  Ti  Ti1       1.0  0.50000  0.50000  0.00000  1.0000
  Ti  Ti2       1.0  0.75000  0.25000  0.50000  1.0000
  Ti  Ti3       1.0  0.25000  0.75000  0.50000  1.0000
