data_image0
_chemical_formula_structural       Bi5Rh5Ta4
_chemical_formula_sum              "Bi5 Rh5 Ta4"
_cell_length_a       6.32158
_cell_length_b       7.68213
_cell_length_c       7.68213
_cell_angle_alpha    80.2535
_cell_angle_beta     114.296
_cell_angle_gamma    114.296

_space_group_name_H-M_alt    "P 1"
_space_group_IT_number       1

loop_
  _space_group_symop_operation_xyz
  'x, y, z'

loop_
  _atom_site_type_symbol
  _atom_site_label
  _atom_site_symmetry_multiplicity
  _atom_site_fract_x
  _atom_site_fract_y
  _atom_site_fract_z
  _atom_site_occupancy
  Bi  Bi1       1.0  0.50000  0.00000  0.00000  1.0000
  Bi  Bi2       1.0  0.90300  0.63600  0.19300  1.0000
  Bi  Bi3       1.0  0.29000  0.19300  0.36400  1.0000
  Bi  Bi4       1.0  0.73300  0.80700  0.63600  1.0000
  Bi  Bi5       1.0  0.07400  0.36400  0.80700  1.0000
  Rh  Rh1       1.0  0.93700  0.32600  0.10800  1.0000
  Rh  Rh2       1.0  0.38900  0.89200  0.32600  1.0000
  Rh  Rh3       1.0  0.75000  0.50000  0.50000  1.0000
  Rh  Rh4       1.0  0.17100  0.10800  0.67400  1.0000
  Rh  Rh5       1.0  0.50300  0.67400  0.89200  1.0000
  Ta  Ta1       1.0  0.39700  0.60200  0.20500  1.0000
  Ta  Ta2       1.0  0.80800  0.20500  0.39800  1.0000
  Ta  Ta3       1.0  0.20400  0.79500  0.60200  1.0000
  Ta  Ta4       1.0  0.59100  0.39800  0.79500  1.0000
