data_image0
_chemical_formula_structural       Nb4Pb5Pd5
_chemical_formula_sum              "Nb4 Pb5 Pd5"
_cell_length_a       6.3286
_cell_length_b       7.75669
_cell_length_c       7.75669
_cell_angle_alpha    80.4203
_cell_angle_beta     114.076
_cell_angle_gamma    114.076

_space_group_name_H-M_alt    "P 1"
_space_group_IT_number       1

loop_
  _space_group_symop_operation_xyz
  'x, y, z'

loop_
  _atom_site_type_symbol
  _atom_site_label
  _atom_site_symmetry_multiplicity
  _atom_site_fract_x
  _atom_site_fract_y
  _atom_site_fract_z
  _atom_site_occupancy
  Nb  Nb1       1.0  0.39600  0.60000  0.20100  1.0000
  Nb  Nb2       1.0  0.80500  0.20100  0.40000  1.0000
  Nb  Nb3       1.0  0.20400  0.79900  0.60000  1.0000
  Nb  Nb4       1.0  0.59600  0.40000  0.79900  1.0000
  Pb  Pb1       1.0  0.50000  0.00000  0.00000  1.0000
  Pb  Pb2       1.0  0.90100  0.63500  0.19300  1.0000
  Pb  Pb3       1.0  0.29200  0.19300  0.36500  1.0000
  Pb  Pb4       1.0  0.73300  0.80700  0.63500  1.0000
  Pb  Pb5       1.0  0.07310  0.36500  0.80700  1.0000
  Pd  Pd1       1.0  0.93800  0.32200  0.10900  1.0000
  Pd  Pd2       1.0  0.38400  0.89100  0.32200  1.0000
  Pd  Pd3       1.0  0.75000  0.50000  0.50000  1.0000
  Pd  Pd4       1.0  0.17000  0.10900  0.67800  1.0000
  Pd  Pd5       1.0  0.50700  0.67800  0.89100  1.0000
