data_image0
_chemical_formula_structural       Bi5Ir5Ta4
_chemical_formula_sum              "Bi5 Ir5 Ta4"
_cell_length_a       6.38566
_cell_length_b       7.74341
_cell_length_c       7.74341
_cell_angle_alpha    80.2113
_cell_angle_beta     114.351
_cell_angle_gamma    114.351

_space_group_name_H-M_alt    "P 1"
_space_group_IT_number       1

loop_
  _space_group_symop_operation_xyz
  'x, y, z'

loop_
  _atom_site_type_symbol
  _atom_site_label
  _atom_site_symmetry_multiplicity
  _atom_site_fract_x
  _atom_site_fract_y
  _atom_site_fract_z
  _atom_site_occupancy
  Bi  Bi1       1.0  0.50000  0.00000  0.00000  1.0000
  Bi  Bi2       1.0  0.90300  0.64100  0.19100  1.0000
  Bi  Bi3       1.0  0.28800  0.19100  0.35900  1.0000
  Bi  Bi4       1.0  0.73800  0.80900  0.64100  1.0000
  Bi  Bi5       1.0  0.07120  0.35900  0.80900  1.0000
  Ir  Ir1       1.0  0.93600  0.32800  0.10800  1.0000
  Ir  Ir2       1.0  0.39300  0.89200  0.32800  1.0000
  Ir  Ir3       1.0  0.75000  0.50000  0.50000  1.0000
  Ir  Ir4       1.0  0.17300  0.10800  0.67200  1.0000
  Ir  Ir5       1.0  0.49900  0.67200  0.89200  1.0000
  Ta  Ta1       1.0  0.39700  0.60100  0.20700  1.0000
  Ta  Ta2       1.0  0.81000  0.20700  0.39900  1.0000
  Ta  Ta3       1.0  0.20400  0.79300  0.60100  1.0000
  Ta  Ta4       1.0  0.58900  0.39900  0.79300  1.0000
