data_image0
_chemical_formula_structural       Pd5Sn5V4
_chemical_formula_sum              "Pd5 Sn5 V4"
_cell_length_a       6.08388
_cell_length_b       7.48132
_cell_length_c       7.48132
_cell_angle_alpha    80.4837
_cell_angle_beta     113.992
_cell_angle_gamma    113.992

_space_group_name_H-M_alt    "P 1"
_space_group_IT_number       1

loop_
  _space_group_symop_operation_xyz
  'x, y, z'

loop_
  _atom_site_type_symbol
  _atom_site_label
  _atom_site_symmetry_multiplicity
  _atom_site_fract_x
  _atom_site_fract_y
  _atom_site_fract_z
  _atom_site_occupancy
  Pd  Pd1       1.0  0.93800  0.32300  0.10900  1.0000
  Pd  Pd2       1.0  0.38500  0.89100  0.32300  1.0000
  Pd  Pd3       1.0  0.75000  0.50000  0.50000  1.0000
  Pd  Pd4       1.0  0.17100  0.10900  0.67700  1.0000
  Pd  Pd5       1.0  0.50600  0.67700  0.89100  1.0000
  Sn  Sn1       1.0  0.50000  0.00000  0.00000  1.0000
  Sn  Sn2       1.0  0.90000  0.63200  0.19700  1.0000
  Sn  Sn3       1.0  0.29700  0.19700  0.36800  1.0000
  Sn  Sn4       1.0  0.73200  0.80300  0.63200  1.0000
  Sn  Sn5       1.0  0.07120  0.36800  0.80300  1.0000
  V   V1        1.0  0.39400  0.60000  0.19900  1.0000
  V   V2        1.0  0.80400  0.19900  0.40000  1.0000
  V   V3        1.0  0.20600  0.80100  0.60000  1.0000
  V   V4        1.0  0.59600  0.40000  0.80100  1.0000
