data_image0
_chemical_formula_structural       As5Rh5V4
_chemical_formula_sum              "As5 Rh5 V4"
_cell_length_a       5.80868
_cell_length_b       7.05172
_cell_length_c       7.05172
_cell_angle_alpha    80.2336
_cell_angle_beta     114.322
_cell_angle_gamma    114.322

_space_group_name_H-M_alt    "P 1"
_space_group_IT_number       1

loop_
  _space_group_symop_operation_xyz
  'x, y, z'

loop_
  _atom_site_type_symbol
  _atom_site_label
  _atom_site_symmetry_multiplicity
  _atom_site_fract_x
  _atom_site_fract_y
  _atom_site_fract_z
  _atom_site_occupancy
  As  As1       1.0  0.50000  0.00000  0.00000  1.0000
  As  As2       1.0  0.90200  0.62100  0.19800  1.0000
  As  As3       1.0  0.29600  0.19800  0.37900  1.0000
  As  As4       1.0  0.71900  0.80200  0.62100  1.0000
  As  As5       1.0  0.08300  0.37900  0.80200  1.0000
  Rh  Rh1       1.0  0.94300  0.32000  0.10500  1.0000
  Rh  Rh2       1.0  0.37700  0.89500  0.32000  1.0000
  Rh  Rh3       1.0  0.75000  0.50000  0.50000  1.0000
  Rh  Rh4       1.0  0.16200  0.10500  0.68000  1.0000
  Rh  Rh5       1.0  0.51800  0.68000  0.89500  1.0000
  V   V1        1.0  0.39700  0.60100  0.20100  1.0000
  V   V2        1.0  0.80300  0.20100  0.39900  1.0000
  V   V3        1.0  0.20400  0.79900  0.60100  1.0000
  V   V4        1.0  0.59600  0.39900  0.79900  1.0000
