data_image0
_chemical_formula_structural       As5Ir5Ta4
_chemical_formula_sum              "As5 Ir5 Ta4"
_cell_length_a       6.06456
_cell_length_b       7.34472
_cell_length_c       7.34472
_cell_angle_alpha    80.1862
_cell_angle_beta     114.384
_cell_angle_gamma    114.384

_space_group_name_H-M_alt    "P 1"
_space_group_IT_number       1

loop_
  _space_group_symop_operation_xyz
  'x, y, z'

loop_
  _atom_site_type_symbol
  _atom_site_label
  _atom_site_symmetry_multiplicity
  _atom_site_fract_x
  _atom_site_fract_y
  _atom_site_fract_z
  _atom_site_occupancy
  As  As1       1.0  0.50000  0.00000  0.00000  1.0000
  As  As2       1.0  0.90400  0.62200  0.19300  1.0000
  As  As3       1.0  0.28800  0.19300  0.37800  1.0000
  As  As4       1.0  0.71800  0.80700  0.62200  1.0000
  As  As5       1.0  0.08970  0.37800  0.80700  1.0000
  Ir  Ir1       1.0  0.94600  0.32000  0.10500  1.0000
  Ir  Ir2       1.0  0.37400  0.89500  0.32000  1.0000
  Ir  Ir3       1.0  0.75000  0.50000  0.50000  1.0000
  Ir  Ir4       1.0  0.15900  0.10500  0.68000  1.0000
  Ir  Ir5       1.0  0.52000  0.68000  0.89500  1.0000
  Ta  Ta1       1.0  0.40100  0.60100  0.20300  1.0000
  Ta  Ta2       1.0  0.80200  0.20300  0.39900  1.0000
  Ta  Ta3       1.0  0.20000  0.79700  0.60100  1.0000
  Ta  Ta4       1.0  0.59700  0.39900  0.79700  1.0000
