data_image0
_chemical_formula_structural       As5Rh5Ta4
_chemical_formula_sum              "As5 Rh5 Ta4"
_cell_length_a       6.00375
_cell_length_b       7.27155
_cell_length_c       7.27155
_cell_angle_alpha    80.1875
_cell_angle_beta     114.382
_cell_angle_gamma    114.382

_space_group_name_H-M_alt    "P 1"
_space_group_IT_number       1

loop_
  _space_group_symop_operation_xyz
  'x, y, z'

loop_
  _atom_site_type_symbol
  _atom_site_label
  _atom_site_symmetry_multiplicity
  _atom_site_fract_x
  _atom_site_fract_y
  _atom_site_fract_z
  _atom_site_occupancy
  As  As1       1.0  0.50000  0.00000  0.00000  1.0000
  As  As2       1.0  0.90300  0.61700  0.19600  1.0000
  As  As3       1.0  0.29300  0.19600  0.38300  1.0000
  As  As4       1.0  0.71400  0.80400  0.61700  1.0000
  As  As5       1.0  0.08970  0.38300  0.80400  1.0000
  Rh  Rh1       1.0  0.94700  0.31800  0.10500  1.0000
  Rh  Rh2       1.0  0.37100  0.89500  0.31800  1.0000
  Rh  Rh3       1.0  0.75000  0.50000  0.50000  1.0000
  Rh  Rh4       1.0  0.15800  0.10500  0.68200  1.0000
  Rh  Rh5       1.0  0.52500  0.68200  0.89500  1.0000
  Ta  Ta1       1.0  0.40000  0.60200  0.20100  1.0000
  Ta  Ta2       1.0  0.80100  0.20100  0.39800  1.0000
  Ta  Ta3       1.0  0.20200  0.79900  0.60200  1.0000
  Ta  Ta4       1.0  0.59700  0.39800  0.79900  1.0000
