data_image0
_chemical_formula_structural       Ge5Nb4Pt5
_chemical_formula_sum              "Ge5 Nb4 Pt5"
_cell_length_a       6.06566
_cell_length_b       7.39905
_cell_length_c       7.39905
_cell_angle_alpha    80.3277
_cell_angle_beta     114.198
_cell_angle_gamma    114.198

_space_group_name_H-M_alt    "P 1"
_space_group_IT_number       1

loop_
  _space_group_symop_operation_xyz
  'x, y, z'

loop_
  _atom_site_type_symbol
  _atom_site_label
  _atom_site_symmetry_multiplicity
  _atom_site_fract_x
  _atom_site_fract_y
  _atom_site_fract_z
  _atom_site_occupancy
  Ge  Ge1       1.0  0.50000  0.00000  0.00000  1.0000
  Ge  Ge2       1.0  0.90400  0.62300  0.19300  1.0000
  Ge  Ge3       1.0  0.28900  0.19300  0.37700  1.0000
  Ge  Ge4       1.0  0.72000  0.80700  0.62300  1.0000
  Ge  Ge5       1.0  0.08780  0.37700  0.80700  1.0000
  Nb  Nb1       1.0  0.40100  0.60100  0.20000  1.0000
  Nb  Nb2       1.0  0.79900  0.20000  0.39900  1.0000
  Nb  Nb3       1.0  0.20000  0.80000  0.60100  1.0000
  Nb  Nb4       1.0  0.60000  0.39900  0.80000  1.0000
  Pt  Pt1       1.0  0.94700  0.31500  0.10600  1.0000
  Pt  Pt2       1.0  0.36800  0.89400  0.31500  1.0000
  Pt  Pt3       1.0  0.75000  0.50000  0.50000  1.0000
  Pt  Pt4       1.0  0.15900  0.10600  0.68500  1.0000
  Pt  Pt5       1.0  0.52600  0.68500  0.89400  1.0000
