data_image0
_chemical_formula_structural       As5Co5V4
_chemical_formula_sum              "As5 Co5 V4"
_cell_length_a       5.48849
_cell_length_b       6.68114
_cell_length_c       6.68114
_cell_angle_alpha    80.2871
_cell_angle_beta     114.252
_cell_angle_gamma    114.252

_space_group_name_H-M_alt    "P 1"
_space_group_IT_number       1

loop_
  _space_group_symop_operation_xyz
  'x, y, z'

loop_
  _atom_site_type_symbol
  _atom_site_label
  _atom_site_symmetry_multiplicity
  _atom_site_fract_x
  _atom_site_fract_y
  _atom_site_fract_z
  _atom_site_occupancy
  As  As1       1.0  0.50000  0.00000  0.00000  1.0000
  As  As2       1.0  0.90300  0.62000  0.19600  1.0000
  As  As3       1.0  0.29300  0.19600  0.38000  1.0000
  As  As4       1.0  0.71700  0.80400  0.62000  1.0000
  As  As5       1.0  0.08610  0.38000  0.80400  1.0000
  Co  Co1       1.0  0.94300  0.31800  0.10400  1.0000
  Co  Co2       1.0  0.37500  0.89600  0.31800  1.0000
  Co  Co3       1.0  0.75000  0.50000  0.50000  1.0000
  Co  Co4       1.0  0.16100  0.10400  0.68200  1.0000
  Co  Co5       1.0  0.52100  0.68200  0.89600  1.0000
  V   V1        1.0  0.39700  0.60300  0.20100  1.0000
  V   V2        1.0  0.80300  0.20100  0.39700  1.0000
  V   V3        1.0  0.20500  0.79900  0.60300  1.0000
  V   V4        1.0  0.59400  0.39700  0.79900  1.0000
