data_image0
_chemical_formula_structural       Cu4Sn4Ti3
_chemical_formula_sum              "Cu4 Sn4 Ti3"
_cell_length_a       5.99594
_cell_length_b       5.99594
_cell_length_c       7.35888
_cell_angle_alpha    65.9587
_cell_angle_beta     65.9587
_cell_angle_gamma    90

_space_group_name_H-M_alt    "P 1"
_space_group_IT_number       1

loop_
  _space_group_symop_operation_xyz
  'x, y, z'

loop_
  _atom_site_type_symbol
  _atom_site_label
  _atom_site_symmetry_multiplicity
  _atom_site_fract_x
  _atom_site_fract_y
  _atom_site_fract_z
  _atom_site_occupancy
  Cu  Cu1       1.0  0.61500  0.13200  0.25300  1.0000
  Cu  Cu2       1.0  0.13200  0.61500  0.25300  1.0000
  Cu  Cu3       1.0  0.38500  0.38500  0.74700  1.0000
  Cu  Cu4       1.0  0.86800  0.86800  0.74700  1.0000
  Sn  Sn1       1.0  0.50000  0.00000  0.00000  1.0000
  Sn  Sn2       1.0  0.00000  0.50000  0.00000  1.0000
  Sn  Sn3       1.0  0.76100  0.76100  0.47900  1.0000
  Sn  Sn4       1.0  0.23900  0.23900  0.52100  1.0000
  Ti  Ti1       1.0  0.50000  0.50000  0.00000  1.0000
  Ti  Ti2       1.0  0.75000  0.25000  0.50000  1.0000
  Ti  Ti3       1.0  0.25000  0.75000  0.50000  1.0000
