data_image0
_chemical_formula_structural       Pt5Sn5V4
_chemical_formula_sum              "Pt5 Sn5 V4"
_cell_length_a       6.12129
_cell_length_b       7.49775
_cell_length_c       7.49775
_cell_angle_alpha    80.4078
_cell_angle_beta     114.092
_cell_angle_gamma    114.092

_space_group_name_H-M_alt    "P 1"
_space_group_IT_number       1

loop_
  _space_group_symop_operation_xyz
  'x, y, z'

loop_
  _atom_site_type_symbol
  _atom_site_label
  _atom_site_symmetry_multiplicity
  _atom_site_fract_x
  _atom_site_fract_y
  _atom_site_fract_z
  _atom_site_occupancy
  Pt  Pt1       1.0  0.93600  0.32600  0.10900  1.0000
  Pt  Pt2       1.0  0.39000  0.89100  0.32600  1.0000
  Pt  Pt3       1.0  0.75000  0.50000  0.50000  1.0000
  Pt  Pt4       1.0  0.17300  0.10900  0.67400  1.0000
  Pt  Pt5       1.0  0.50200  0.67400  0.89100  1.0000
  Sn  Sn1       1.0  0.50000  0.00000  0.00000  1.0000
  Sn  Sn2       1.0  0.90200  0.63800  0.19600  1.0000
  Sn  Sn3       1.0  0.29400  0.19600  0.36200  1.0000
  Sn  Sn4       1.0  0.73600  0.80400  0.63800  1.0000
  Sn  Sn5       1.0  0.06800  0.36200  0.80400  1.0000
  V   V1        1.0  0.39500  0.60000  0.20100  1.0000
  V   V2        1.0  0.80600  0.20100  0.40000  1.0000
  V   V3        1.0  0.20600  0.79900  0.60000  1.0000
  V   V4        1.0  0.59300  0.40000  0.79900  1.0000
