data_image0
_chemical_formula_structural       Ag2Ce2Pb2
_chemical_formula_sum              "Ag2 Ce2 Pb2"
_cell_length_a       4.92179
_cell_length_b       4.92167
_cell_length_c       7.78541
_cell_angle_alpha    90
_cell_angle_beta     90
_cell_angle_gamma    120.001

_space_group_name_H-M_alt    "P 1"
_space_group_IT_number       1

loop_
  _space_group_symop_operation_xyz
  'x, y, z'

loop_
  _atom_site_type_symbol
  _atom_site_label
  _atom_site_symmetry_multiplicity
  _atom_site_fract_x
  _atom_site_fract_y
  _atom_site_fract_z
  _atom_site_occupancy
  Ag  Ag1       1.0  0.66700  0.33300  0.30300  1.0000
  Ag  Ag2       1.0  0.33300  0.66700  0.80300  1.0000
  Ce  Ce1       1.0  0.00000  0.00000  0.00165  1.0000
  Ce  Ce2       1.0  0.00001  0.00002  0.50200  1.0000
  Pb  Pb1       1.0  0.33300  0.66700  0.22200  1.0000
  Pb  Pb2       1.0  0.66700  0.33300  0.72200  1.0000
