data_image0
_chemical_formula_structural       Ag4Hf3Pb4
_chemical_formula_sum              "Ag4 Hf3 Pb4"
_cell_length_a       6.51645
_cell_length_b       6.51645
_cell_length_c       7.99359
_cell_angle_alpha    65.9456
_cell_angle_beta     65.9456
_cell_angle_gamma    90

_space_group_name_H-M_alt    "P 1"
_space_group_IT_number       1

loop_
  _space_group_symop_operation_xyz
  'x, y, z'

loop_
  _atom_site_type_symbol
  _atom_site_label
  _atom_site_symmetry_multiplicity
  _atom_site_fract_x
  _atom_site_fract_y
  _atom_site_fract_z
  _atom_site_occupancy
  Ag  Ag1       1.0  0.62900  0.12500  0.24700  1.0000
  Ag  Ag2       1.0  0.12500  0.62900  0.24700  1.0000
  Ag  Ag3       1.0  0.87500  0.87500  0.75300  1.0000
  Ag  Ag4       1.0  0.37100  0.37100  0.75300  1.0000
  Hf  Hf1       1.0  0.50000  0.50000  0.00000  1.0000
  Hf  Hf2       1.0  0.75000  0.25000  0.50000  1.0000
  Hf  Hf3       1.0  0.25000  0.75000  0.50000  1.0000
  Pb  Pb1       1.0  0.50000  0.00000  0.00000  1.0000
  Pb  Pb2       1.0  0.00000  0.50000  0.00000  1.0000
  Pb  Pb3       1.0  0.75300  0.75300  0.49400  1.0000
  Pb  Pb4       1.0  0.24700  0.24700  0.50600  1.0000
