data_image0
_chemical_formula_structural       Ge5Nb4Pd5
_chemical_formula_sum              "Ge5 Nb4 Pd5"
_cell_length_a       6.01081
_cell_length_b       7.35735
_cell_length_c       7.35735
_cell_angle_alpha    80.3945
_cell_angle_beta     114.11
_cell_angle_gamma    114.11

_space_group_name_H-M_alt    "P 1"
_space_group_IT_number       1

loop_
  _space_group_symop_operation_xyz
  'x, y, z'

loop_
  _atom_site_type_symbol
  _atom_site_label
  _atom_site_symmetry_multiplicity
  _atom_site_fract_x
  _atom_site_fract_y
  _atom_site_fract_z
  _atom_site_occupancy
  Ge  Ge1       1.0  0.50000  0.00000  0.00000  1.0000
  Ge  Ge2       1.0  0.90100  0.61200  0.19600  1.0000
  Ge  Ge3       1.0  0.29500  0.19600  0.38800  1.0000
  Ge  Ge4       1.0  0.71100  0.80400  0.61200  1.0000
  Ge  Ge5       1.0  0.09300  0.38800  0.80400  1.0000
  Nb  Nb1       1.0  0.40000  0.60100  0.19600  1.0000
  Nb  Nb2       1.0  0.79600  0.19600  0.39900  1.0000
  Nb  Nb3       1.0  0.20100  0.80400  0.60100  1.0000
  Nb  Nb4       1.0  0.60300  0.39900  0.80400  1.0000
  Pd  Pd1       1.0  0.95000  0.30900  0.10600  1.0000
  Pd  Pd2       1.0  0.35900  0.89400  0.30900  1.0000
  Pd  Pd3       1.0  0.75000  0.50000  0.50000  1.0000
  Pd  Pd4       1.0  0.15600  0.10600  0.69100  1.0000
  Pd  Pd5       1.0  0.53500  0.69100  0.89400  1.0000
