data_image0
_chemical_formula_structural       Pt5Sn5Ta4
_chemical_formula_sum              "Pt5 Sn5 Ta4"
_cell_length_a       6.26728
_cell_length_b       7.64698
_cell_length_c       7.64698
_cell_angle_alpha    80.3327
_cell_angle_beta     114.192
_cell_angle_gamma    114.192

_space_group_name_H-M_alt    "P 1"
_space_group_IT_number       1

loop_
  _space_group_symop_operation_xyz
  'x, y, z'

loop_
  _atom_site_type_symbol
  _atom_site_label
  _atom_site_symmetry_multiplicity
  _atom_site_fract_x
  _atom_site_fract_y
  _atom_site_fract_z
  _atom_site_occupancy
  Pt  Pt1       1.0  0.94000  0.32400  0.10800  1.0000
  Pt  Pt2       1.0  0.38300  0.89200  0.32400  1.0000
  Pt  Pt3       1.0  0.75000  0.50000  0.50000  1.0000
  Pt  Pt4       1.0  0.16700  0.10800  0.67600  1.0000
  Pt  Pt5       1.0  0.50900  0.67600  0.89200  1.0000
  Sn  Sn1       1.0  0.50000  0.00000  0.00000  1.0000
  Sn  Sn2       1.0  0.90300  0.63400  0.19200  1.0000
  Sn  Sn3       1.0  0.28900  0.19200  0.36600  1.0000
  Sn  Sn4       1.0  0.73100  0.80800  0.63400  1.0000
  Sn  Sn5       1.0  0.07670  0.36600  0.80800  1.0000
  Ta  Ta1       1.0  0.39800  0.60000  0.20200  1.0000
  Ta  Ta2       1.0  0.80400  0.20200  0.40000  1.0000
  Ta  Ta3       1.0  0.20200  0.79800  0.60000  1.0000
  Ta  Ta4       1.0  0.59600  0.40000  0.79800  1.0000
