data_image0
_chemical_formula_structural       Ge5Pd5Ta4
_chemical_formula_sum              "Ge5 Pd5 Ta4"
_cell_length_a       6.00368
_cell_length_b       7.3461
_cell_length_c       7.3461
_cell_angle_alpha    80.3878
_cell_angle_beta     114.119
_cell_angle_gamma    114.119

_space_group_name_H-M_alt    "P 1"
_space_group_IT_number       1

loop_
  _space_group_symop_operation_xyz
  'x, y, z'

loop_
  _atom_site_type_symbol
  _atom_site_label
  _atom_site_symmetry_multiplicity
  _atom_site_fract_x
  _atom_site_fract_y
  _atom_site_fract_z
  _atom_site_occupancy
  Ge  Ge1       1.0  0.50000  0.00000  0.00000  1.0000
  Ge  Ge2       1.0  0.90200  0.61400  0.19600  1.0000
  Ge  Ge3       1.0  0.29400  0.19600  0.38600  1.0000
  Ge  Ge4       1.0  0.71300  0.80400  0.61400  1.0000
  Ge  Ge5       1.0  0.09150  0.38600  0.80400  1.0000
  Pd  Pd1       1.0  0.94900  0.31100  0.10600  1.0000
  Pd  Pd2       1.0  0.36100  0.89400  0.31100  1.0000
  Pd  Pd3       1.0  0.75000  0.50000  0.50000  1.0000
  Pd  Pd4       1.0  0.15700  0.10600  0.68900  1.0000
  Pd  Pd5       1.0  0.53200  0.68900  0.89400  1.0000
  Ta  Ta1       1.0  0.40000  0.60100  0.19700  1.0000
  Ta  Ta2       1.0  0.79700  0.19700  0.39900  1.0000
  Ta  Ta3       1.0  0.20100  0.80300  0.60100  1.0000
  Ta  Ta4       1.0  0.60200  0.39900  0.80300  1.0000
