data_image0
_chemical_formula_structural       Ag4Sn4Zr3
_chemical_formula_sum              "Ag4 Sn4 Zr3"
_cell_length_a       6.42439
_cell_length_b       6.42439
_cell_length_c       7.90492
_cell_angle_alpha    66.024
_cell_angle_beta     66.024
_cell_angle_gamma    90

_space_group_name_H-M_alt    "P 1"
_space_group_IT_number       1

loop_
  _space_group_symop_operation_xyz
  'x, y, z'

loop_
  _atom_site_type_symbol
  _atom_site_label
  _atom_site_symmetry_multiplicity
  _atom_site_fract_x
  _atom_site_fract_y
  _atom_site_fract_z
  _atom_site_occupancy
  Ag  Ag1       1.0  0.64400  0.11700  0.23900  1.0000
  Ag  Ag2       1.0  0.11700  0.64400  0.23900  1.0000
  Ag  Ag3       1.0  0.35600  0.35600  0.76100  1.0000
  Ag  Ag4       1.0  0.88300  0.88300  0.76100  1.0000
  Sn  Sn1       1.0  0.50000  0.00000  0.00000  1.0000
  Sn  Sn2       1.0  0.00000  0.50000  0.00000  1.0000
  Sn  Sn3       1.0  0.25500  0.25500  0.49100  1.0000
  Sn  Sn4       1.0  0.74500  0.74500  0.50900  1.0000
  Zr  Zr1       1.0  0.50000  0.50000  0.00000  1.0000
  Zr  Zr2       1.0  0.75000  0.25000  0.50000  1.0000
  Zr  Zr3       1.0  0.25000  0.75000  0.50000  1.0000
