data_image0
_chemical_formula_structural       Pb5Pd5V4
_chemical_formula_sum              "Pb5 Pd5 V4"
_cell_length_a       6.18633
_cell_length_b       7.60871
_cell_length_c       7.60871
_cell_angle_alpha    80.4873
_cell_angle_beta     113.987
_cell_angle_gamma    113.987

_space_group_name_H-M_alt    "P 1"
_space_group_IT_number       1

loop_
  _space_group_symop_operation_xyz
  'x, y, z'

loop_
  _atom_site_type_symbol
  _atom_site_label
  _atom_site_symmetry_multiplicity
  _atom_site_fract_x
  _atom_site_fract_y
  _atom_site_fract_z
  _atom_site_occupancy
  Pb  Pb1       1.0  0.50000  0.00000  0.00000  1.0000
  Pb  Pb2       1.0  0.90000  0.64200  0.19700  1.0000
  Pb  Pb3       1.0  0.29700  0.19700  0.35800  1.0000
  Pb  Pb4       1.0  0.74200  0.80300  0.64200  1.0000
  Pb  Pb5       1.0  0.06100  0.35800  0.80300  1.0000
  Pd  Pd1       1.0  0.93400  0.32700  0.11100  1.0000
  Pd  Pd2       1.0  0.39300  0.88900  0.32700  1.0000
  Pd  Pd3       1.0  0.75000  0.50000  0.50000  1.0000
  Pd  Pd4       1.0  0.17700  0.11100  0.67300  1.0000
  Pd  Pd5       1.0  0.49500  0.67300  0.88900  1.0000
  V   V1        1.0  0.39300  0.60000  0.19900  1.0000
  V   V2        1.0  0.80700  0.19900  0.40000  1.0000
  V   V3        1.0  0.20800  0.80100  0.60000  1.0000
  V   V4        1.0  0.59300  0.40000  0.80100  1.0000
