data_image0
_chemical_formula_structural       Ir4O4Rb4Se4
_chemical_formula_sum              "Ir4 O4 Rb4 Se4"
_cell_length_a       5.47509
_cell_length_b       6.37003
_cell_length_c       12.5653
_cell_angle_alpha    90
_cell_angle_beta     85
_cell_angle_gamma    90

_space_group_name_H-M_alt    "P 1"
_space_group_IT_number       1

loop_
  _space_group_symop_operation_xyz
  'x, y, z'

loop_
  _atom_site_type_symbol
  _atom_site_label
  _atom_site_symmetry_multiplicity
  _atom_site_fract_x
  _atom_site_fract_y
  _atom_site_fract_z
  _atom_site_occupancy
  Ir  Ir1       1.0  0.38800  0.23900  0.16500  1.0000
  Ir  Ir2       1.0  0.61200  0.73900  0.33500  1.0000
  Ir  Ir3       1.0  0.38800  0.26100  0.66500  1.0000
  Ir  Ir4       1.0  0.61200  0.76100  0.83500  1.0000
  O   O1        1.0  0.25600  0.26900  0.03920  1.0000
  O   O2        1.0  0.74400  0.76900  0.46100  1.0000
  O   O3        1.0  0.25600  0.23100  0.53900  1.0000
  O   O4        1.0  0.74400  0.73100  0.96100  1.0000
  Rb  Rb1       1.0  0.18400  0.73700  0.06320  1.0000
  Rb  Rb2       1.0  0.81600  0.23700  0.43700  1.0000
  Rb  Rb3       1.0  0.18400  0.76300  0.56300  1.0000
  Rb  Rb4       1.0  0.81600  0.26300  0.93700  1.0000
  Se  Se1       1.0  0.68000  0.98700  0.20000  1.0000
  Se  Se2       1.0  0.32000  0.48700  0.30000  1.0000
  Se  Se3       1.0  0.68000  0.51300  0.70000  1.0000
  Se  Se4       1.0  0.32000  0.01330  0.80000  1.0000
