data_image0
_chemical_formula_structural       Ge5Pt5V4
_chemical_formula_sum              "Ge5 Pt5 V4"
_cell_length_a       6.00686
_cell_length_b       7.35766
_cell_length_c       7.35766
_cell_angle_alpha    80.408
_cell_angle_beta     114.092
_cell_angle_gamma    114.092

_space_group_name_H-M_alt    "P 1"
_space_group_IT_number       1

loop_
  _space_group_symop_operation_xyz
  'x, y, z'

loop_
  _atom_site_type_symbol
  _atom_site_label
  _atom_site_symmetry_multiplicity
  _atom_site_fract_x
  _atom_site_fract_y
  _atom_site_fract_z
  _atom_site_occupancy
  Ge  Ge1       1.0  0.50000  0.00000  0.00000  1.0000
  Ge  Ge2       1.0  0.90000  0.60000  0.20000  1.0000
  Ge  Ge3       1.0  0.29900  0.20000  0.40000  1.0000
  Ge  Ge4       1.0  0.70000  0.80000  0.60000  1.0000
  Ge  Ge5       1.0  0.10000  0.40000  0.80000  1.0000
  Pt  Pt1       1.0  0.95000  0.30200  0.10100  1.0000
  Pt  Pt2       1.0  0.35300  0.89900  0.30200  1.0000
  Pt  Pt3       1.0  0.75000  0.50000  0.50000  1.0000
  Pt  Pt4       1.0  0.15100  0.10100  0.69800  1.0000
  Pt  Pt5       1.0  0.54600  0.69800  0.89900  1.0000
  V   V1        1.0  0.40000  0.60000  0.19900  1.0000
  V   V2        1.0  0.79900  0.19900  0.40000  1.0000
  V   V3        1.0  0.20000  0.80100  0.60000  1.0000
  V   V4        1.0  0.60000  0.40000  0.80100  1.0000
