data_image0
_chemical_formula_structural       Cu4Pb4Zr3
_chemical_formula_sum              "Cu4 Pb4 Zr3"
_cell_length_a       6.26905
_cell_length_b       6.26905
_cell_length_c       7.71261
_cell_angle_alpha    66.0201
_cell_angle_beta     66.0201
_cell_angle_gamma    90

_space_group_name_H-M_alt    "P 1"
_space_group_IT_number       1

loop_
  _space_group_symop_operation_xyz
  'x, y, z'

loop_
  _atom_site_type_symbol
  _atom_site_label
  _atom_site_symmetry_multiplicity
  _atom_site_fract_x
  _atom_site_fract_y
  _atom_site_fract_z
  _atom_site_occupancy
  Cu  Cu1       1.0  0.62600  0.12500  0.24900  1.0000
  Cu  Cu2       1.0  0.12500  0.62600  0.24900  1.0000
  Cu  Cu3       1.0  0.37400  0.37400  0.75100  1.0000
  Cu  Cu4       1.0  0.87500  0.87500  0.75100  1.0000
  Pb  Pb1       1.0  0.50000  0.00000  0.00000  1.0000
  Pb  Pb2       1.0  0.00000  0.50000  0.00000  1.0000
  Pb  Pb3       1.0  0.75300  0.75300  0.49400  1.0000
  Pb  Pb4       1.0  0.24700  0.24700  0.50600  1.0000
  Zr  Zr1       1.0  0.50000  0.50000  0.00000  1.0000
  Zr  Zr2       1.0  0.75000  0.25000  0.50000  1.0000
  Zr  Zr3       1.0  0.25000  0.75000  0.50000  1.0000
