data_image0
_chemical_formula_structural       Al4Mg4O20P4
_chemical_formula_sum              "Al4 Mg4 O20 P4"
_cell_length_a       7.08063
_cell_length_b       10.2944
_cell_length_c       5.40325
_cell_angle_alpha    90
_cell_angle_beta     98.1906
_cell_angle_gamma    90

_space_group_name_H-M_alt    "P 1"
_space_group_IT_number       1

loop_
  _space_group_symop_operation_xyz
  'x, y, z'

loop_
  _atom_site_type_symbol
  _atom_site_label
  _atom_site_symmetry_multiplicity
  _atom_site_fract_x
  _atom_site_fract_y
  _atom_site_fract_z
  _atom_site_occupancy
  Al  Al1       1.0  0.35800  0.32700  0.06070  1.0000
  Al  Al2       1.0  0.64200  0.82700  0.43900  1.0000
  Al  Al3       1.0  0.35800  0.17300  0.56100  1.0000
  Al  Al4       1.0  0.64200  0.67300  0.93900  1.0000
  Mg  Mg1       1.0  0.01420  0.14100  0.11500  1.0000
  Mg  Mg2       1.0  0.98600  0.64100  0.38500  1.0000
  Mg  Mg3       1.0  0.01420  0.35900  0.61500  1.0000
  Mg  Mg4       1.0  0.98600  0.85900  0.88500  1.0000
  O   O1        1.0  0.08420  0.68700  0.05940  1.0000
  O   O2        1.0  0.28800  0.48800  0.11700  1.0000
  O   O3        1.0  0.60800  0.32100  0.12300  1.0000
  O   O4        1.0  0.11300  0.95600  0.18700  1.0000
  O   O5        1.0  0.73300  0.71700  0.24400  1.0000
  O   O6        1.0  0.26700  0.21700  0.25600  1.0000
  O   O7        1.0  0.88700  0.45600  0.31300  1.0000
  O   O8        1.0  0.39200  0.82100  0.37600  1.0000
  O   O9        1.0  0.71200  0.98800  0.38300  1.0000
  O   O10       1.0  0.91600  0.18700  0.44100  1.0000
  O   O11       1.0  0.08420  0.81300  0.55900  1.0000
  O   O12       1.0  0.28800  0.01200  0.61700  1.0000
  O   O13       1.0  0.60800  0.17900  0.62300  1.0000
  O   O14       1.0  0.11300  0.54400  0.68700  1.0000
  O   O15       1.0  0.73300  0.78300  0.74400  1.0000
  O   O16       1.0  0.26700  0.28300  0.75600  1.0000
  O   O17       1.0  0.88700  0.04380  0.81300  1.0000
  O   O18       1.0  0.39200  0.67900  0.87700  1.0000
  O   O19       1.0  0.71200  0.51200  0.88300  1.0000
  O   O20       1.0  0.91600  0.31300  0.94100  1.0000
  P   P1        1.0  0.78000  0.40100  0.06710  1.0000
  P   P2        1.0  0.22000  0.90100  0.43300  1.0000
  P   P3        1.0  0.78000  0.09950  0.56700  1.0000
  P   P4        1.0  0.22000  0.59900  0.93300  1.0000
