data_image0
_chemical_formula_structural       Bi5Ir5Nb4
_chemical_formula_sum              "Bi5 Ir5 Nb4"
_cell_length_a       6.37991
_cell_length_b       7.74875
_cell_length_c       7.74875
_cell_angle_alpha    80.2427
_cell_angle_beta     114.31
_cell_angle_gamma    114.31

_space_group_name_H-M_alt    "P 1"
_space_group_IT_number       1

loop_
  _space_group_symop_operation_xyz
  'x, y, z'

loop_
  _atom_site_type_symbol
  _atom_site_label
  _atom_site_symmetry_multiplicity
  _atom_site_fract_x
  _atom_site_fract_y
  _atom_site_fract_z
  _atom_site_occupancy
  Bi  Bi1       1.0  0.50000  0.00000  0.00000  1.0000
  Bi  Bi2       1.0  0.90300  0.64000  0.19200  1.0000
  Bi  Bi3       1.0  0.28900  0.19200  0.36000  1.0000
  Bi  Bi4       1.0  0.73700  0.80800  0.64000  1.0000
  Bi  Bi5       1.0  0.07150  0.36000  0.80800  1.0000
  Ir  Ir1       1.0  0.93600  0.32700  0.10800  1.0000
  Ir  Ir2       1.0  0.39100  0.89200  0.32700  1.0000
  Ir  Ir3       1.0  0.75000  0.50000  0.50000  1.0000
  Ir  Ir4       1.0  0.17200  0.10800  0.67300  1.0000
  Ir  Ir5       1.0  0.50000  0.67300  0.89200  1.0000
  Nb  Nb1       1.0  0.39700  0.60100  0.20600  1.0000
  Nb  Nb2       1.0  0.80900  0.20600  0.39900  1.0000
  Nb  Nb3       1.0  0.20400  0.79400  0.60100  1.0000
  Nb  Nb4       1.0  0.59000  0.39900  0.79400  1.0000
