data_image0
_chemical_formula_structural       Au4Ge4Zr3
_chemical_formula_sum              "Au4 Ge4 Zr3"
_cell_length_a       6.24385
_cell_length_b       6.24385
_cell_length_c       7.62766
_cell_angle_alpha    65.8398
_cell_angle_beta     65.8398
_cell_angle_gamma    90

_space_group_name_H-M_alt    "P 1"
_space_group_IT_number       1

loop_
  _space_group_symop_operation_xyz
  'x, y, z'

loop_
  _atom_site_type_symbol
  _atom_site_label
  _atom_site_symmetry_multiplicity
  _atom_site_fract_x
  _atom_site_fract_y
  _atom_site_fract_z
  _atom_site_occupancy
  Au  Au1       1.0  0.63700  0.12200  0.24100  1.0000
  Au  Au2       1.0  0.12200  0.63700  0.24100  1.0000
  Au  Au3       1.0  0.36300  0.36300  0.75900  1.0000
  Au  Au4       1.0  0.87800  0.87800  0.75900  1.0000
  Ge  Ge1       1.0  0.50000  0.00000  0.00000  1.0000
  Ge  Ge2       1.0  0.00000  0.50000  0.00000  1.0000
  Ge  Ge3       1.0  0.75300  0.75300  0.49300  1.0000
  Ge  Ge4       1.0  0.24700  0.24700  0.50700  1.0000
  Zr  Zr1       1.0  0.50000  0.50000  0.00000  1.0000
  Zr  Zr2       1.0  0.75000  0.25000  0.50000  1.0000
  Zr  Zr3       1.0  0.25000  0.75000  0.50000  1.0000
