data_image0
_chemical_formula_structural       Pb5Pt5V4
_chemical_formula_sum              "Pb5 Pt5 V4"
_cell_length_a       6.22066
_cell_length_b       7.62409
_cell_length_c       7.62409
_cell_angle_alpha    80.4196
_cell_angle_beta     114.077
_cell_angle_gamma    114.077

_space_group_name_H-M_alt    "P 1"
_space_group_IT_number       1

loop_
  _space_group_symop_operation_xyz
  'x, y, z'

loop_
  _atom_site_type_symbol
  _atom_site_label
  _atom_site_symmetry_multiplicity
  _atom_site_fract_x
  _atom_site_fract_y
  _atom_site_fract_z
  _atom_site_occupancy
  Pb  Pb1       1.0  0.50000  0.00000  0.00000  1.0000
  Pb  Pb2       1.0  0.90100  0.65100  0.19400  1.0000
  Pb  Pb3       1.0  0.29400  0.19400  0.34900  1.0000
  Pb  Pb4       1.0  0.75100  0.80600  0.65100  1.0000
  Pb  Pb5       1.0  0.05490  0.34900  0.80600  1.0000
  Pt  Pt1       1.0  0.93100  0.33200  0.11200  1.0000
  Pt  Pt2       1.0  0.40100  0.88800  0.33200  1.0000
  Pt  Pt3       1.0  0.75000  0.50000  0.50000  1.0000
  Pt  Pt4       1.0  0.18100  0.11200  0.66800  1.0000
  Pt  Pt5       1.0  0.48700  0.66800  0.88800  1.0000
  V   V1        1.0  0.39300  0.60100  0.20300  1.0000
  V   V2        1.0  0.81000  0.20300  0.39900  1.0000
  V   V3        1.0  0.20800  0.79700  0.60100  1.0000
  V   V4        1.0  0.58900  0.39900  0.79700  1.0000
