data_image0
_chemical_formula_structural       Pb5Pd5Ta4
_chemical_formula_sum              "Pb5 Pd5 Ta4"
_cell_length_a       6.32767
_cell_length_b       7.74494
_cell_length_c       7.74494
_cell_angle_alpha    80.3938
_cell_angle_beta     114.111
_cell_angle_gamma    114.111

_space_group_name_H-M_alt    "P 1"
_space_group_IT_number       1

loop_
  _space_group_symop_operation_xyz
  'x, y, z'

loop_
  _atom_site_type_symbol
  _atom_site_label
  _atom_site_symmetry_multiplicity
  _atom_site_fract_x
  _atom_site_fract_y
  _atom_site_fract_z
  _atom_site_occupancy
  Pb  Pb1       1.0  0.50000  0.00000  0.00000  1.0000
  Pb  Pb2       1.0  0.90200  0.63700  0.19300  1.0000
  Pb  Pb3       1.0  0.29100  0.19300  0.36300  1.0000
  Pb  Pb4       1.0  0.73500  0.80700  0.63700  1.0000
  Pb  Pb5       1.0  0.07180  0.36300  0.80700  1.0000
  Pd  Pd1       1.0  0.93800  0.32400  0.10900  1.0000
  Pd  Pd2       1.0  0.38700  0.89100  0.32400  1.0000
  Pd  Pd3       1.0  0.75000  0.50000  0.50000  1.0000
  Pd  Pd4       1.0  0.17100  0.10900  0.67600  1.0000
  Pd  Pd5       1.0  0.50500  0.67600  0.89100  1.0000
  Ta  Ta1       1.0  0.39600  0.60000  0.20100  1.0000
  Ta  Ta2       1.0  0.80500  0.20100  0.40000  1.0000
  Ta  Ta3       1.0  0.20400  0.79900  0.60000  1.0000
  Ta  Ta4       1.0  0.59500  0.40000  0.79900  1.0000
