data_image0
_chemical_formula_structural       As4Hf3Pt4
_chemical_formula_sum              "As4 Hf3 Pt4"
_cell_length_a       6.17479
_cell_length_b       6.17479
_cell_length_c       7.45235
_cell_angle_alpha    65.5257
_cell_angle_beta     65.5257
_cell_angle_gamma    90

_space_group_name_H-M_alt    "P 1"
_space_group_IT_number       1

loop_
  _space_group_symop_operation_xyz
  'x, y, z'

loop_
  _atom_site_type_symbol
  _atom_site_label
  _atom_site_symmetry_multiplicity
  _atom_site_fract_x
  _atom_site_fract_y
  _atom_site_fract_z
  _atom_site_occupancy
  As  As1       1.0  0.50000  0.00000  0.00000  1.0000
  As  As2       1.0  0.00000  0.50000  0.00000  1.0000
  As  As3       1.0  0.76000  0.76000  0.48000  1.0000
  As  As4       1.0  0.24000  0.24000  0.52000  1.0000
  Hf  Hf1       1.0  0.50000  0.50000  0.00000  1.0000
  Hf  Hf2       1.0  0.75000  0.25000  0.50000  1.0000
  Hf  Hf3       1.0  0.25000  0.75000  0.50000  1.0000
  Pt  Pt1       1.0  0.61400  0.12900  0.25700  1.0000
  Pt  Pt2       1.0  0.12900  0.61400  0.25700  1.0000
  Pt  Pt3       1.0  0.38600  0.38600  0.74300  1.0000
  Pt  Pt4       1.0  0.87100  0.87100  0.74300  1.0000
