data_image0
_chemical_formula_structural       Mg4Na8O16Si4
_chemical_formula_sum              "Mg4 Na8 O16 Si4"
_cell_length_a       10.8385
_cell_length_b       5.24225
_cell_length_c       7.05144
_cell_angle_alpha    90
_cell_angle_beta     90
_cell_angle_gamma    90

_space_group_name_H-M_alt    "P 1"
_space_group_IT_number       1

loop_
  _space_group_symop_operation_xyz
  'x, y, z'

loop_
  _atom_site_type_symbol
  _atom_site_label
  _atom_site_symmetry_multiplicity
  _atom_site_fract_x
  _atom_site_fract_y
  _atom_site_fract_z
  _atom_site_occupancy
  Mg  Mg1       1.0  0.34300  0.69700  0.11900  1.0000
  Mg  Mg2       1.0  0.84300  0.80300  0.11900  1.0000
  Mg  Mg3       1.0  0.15700  0.19700  0.61900  1.0000
  Mg  Mg4       1.0  0.65700  0.30300  0.61900  1.0000
  Na  Na1       1.0  0.15600  0.20800  0.11600  1.0000
  Na  Na2       1.0  0.65600  0.29200  0.11600  1.0000
  Na  Na3       1.0  0.40800  0.23600  0.36900  1.0000
  Na  Na4       1.0  0.90800  0.26400  0.36900  1.0000
  Na  Na5       1.0  0.34400  0.70800  0.61600  1.0000
  Na  Na6       1.0  0.84400  0.79200  0.61600  1.0000
  Na  Na7       1.0  0.09210  0.73600  0.86900  1.0000
  Na  Na8       1.0  0.59200  0.76400  0.86900  1.0000
  O   O1        1.0  0.85500  0.16400  0.05920  1.0000
  O   O2        1.0  0.35500  0.33600  0.05920  1.0000
  O   O3        1.0  0.67100  0.72100  0.17500  1.0000
  O   O4        1.0  0.17100  0.77900  0.17500  1.0000
  O   O5        1.0  0.44600  0.74600  0.34000  1.0000
  O   O6        1.0  0.94600  0.75400  0.34000  1.0000
  O   O7        1.0  0.61000  0.11600  0.39500  1.0000
  O   O8        1.0  0.11000  0.38400  0.39500  1.0000
  O   O9        1.0  0.64500  0.66400  0.55900  1.0000
  O   O10       1.0  0.14500  0.83600  0.55900  1.0000
  O   O11       1.0  0.82900  0.22100  0.67500  1.0000
  O   O12       1.0  0.32900  0.27900  0.67500  1.0000
  O   O13       1.0  0.05430  0.24600  0.84000  1.0000
  O   O14       1.0  0.55400  0.25400  0.84000  1.0000
  O   O15       1.0  0.89000  0.61600  0.89500  1.0000
  O   O16       1.0  0.39000  0.88400  0.89500  1.0000
  Si  Si1       1.0  0.09380  0.69400  0.36700  1.0000
  Si  Si2       1.0  0.59400  0.80600  0.36700  1.0000
  Si  Si3       1.0  0.40600  0.19400  0.86700  1.0000
  Si  Si4       1.0  0.90600  0.30600  0.86700  1.0000
