data_image0
_chemical_formula_structural       Bi5Co5Nb4
_chemical_formula_sum              "Bi5 Co5 Nb4"
_cell_length_a       6.08176
_cell_length_b       7.38826
_cell_length_c       7.38826
_cell_angle_alpha    80.2471
_cell_angle_beta     114.304
_cell_angle_gamma    114.304

_space_group_name_H-M_alt    "P 1"
_space_group_IT_number       1

loop_
  _space_group_symop_operation_xyz
  'x, y, z'

loop_
  _atom_site_type_symbol
  _atom_site_label
  _atom_site_symmetry_multiplicity
  _atom_site_fract_x
  _atom_site_fract_y
  _atom_site_fract_z
  _atom_site_occupancy
  Bi  Bi1       1.0  0.50000  0.00000  0.00000  1.0000
  Bi  Bi2       1.0  0.90200  0.63500  0.18900  1.0000
  Bi  Bi3       1.0  0.28700  0.18900  0.36500  1.0000
  Bi  Bi4       1.0  0.73300  0.81100  0.63500  1.0000
  Bi  Bi5       1.0  0.07780  0.36500  0.81100  1.0000
  Co  Co1       1.0  0.93700  0.32400  0.10800  1.0000
  Co  Co2       1.0  0.38700  0.89200  0.32400  1.0000
  Co  Co3       1.0  0.75000  0.50000  0.50000  1.0000
  Co  Co4       1.0  0.17000  0.10800  0.67600  1.0000
  Co  Co5       1.0  0.50600  0.67600  0.89200  1.0000
  Nb  Nb1       1.0  0.39800  0.60300  0.20700  1.0000
  Nb  Nb2       1.0  0.81000  0.20700  0.39700  1.0000
  Nb  Nb3       1.0  0.20600  0.79300  0.60300  1.0000
  Nb  Nb4       1.0  0.58700  0.39700  0.79300  1.0000
