data_image0
_chemical_formula_structural       Ni5Sn5V4
_chemical_formula_sum              "Ni5 Sn5 V4"
_cell_length_a       5.80957
_cell_length_b       7.11458
_cell_length_c       7.11458
_cell_angle_alpha    80.4041
_cell_angle_beta     114.097
_cell_angle_gamma    114.097

_space_group_name_H-M_alt    "P 1"
_space_group_IT_number       1

loop_
  _space_group_symop_operation_xyz
  'x, y, z'

loop_
  _atom_site_type_symbol
  _atom_site_label
  _atom_site_symmetry_multiplicity
  _atom_site_fract_x
  _atom_site_fract_y
  _atom_site_fract_z
  _atom_site_occupancy
  Ni  Ni1       1.0  0.93700  0.32400  0.10800  1.0000
  Ni  Ni2       1.0  0.38700  0.89200  0.32400  1.0000
  Ni  Ni3       1.0  0.75000  0.50000  0.50000  1.0000
  Ni  Ni4       1.0  0.17100  0.10800  0.67600  1.0000
  Ni  Ni5       1.0  0.50500  0.67600  0.89200  1.0000
  Sn  Sn1       1.0  0.50000  0.00000  0.00000  1.0000
  Sn  Sn2       1.0  0.90200  0.63300  0.19600  1.0000
  Sn  Sn3       1.0  0.29400  0.19600  0.36700  1.0000
  Sn  Sn4       1.0  0.73200  0.80400  0.63300  1.0000
  Sn  Sn5       1.0  0.07300  0.36700  0.80400  1.0000
  V   V1        1.0  0.39200  0.60100  0.20000  1.0000
  V   V2        1.0  0.80700  0.20000  0.39900  1.0000
  V   V3        1.0  0.20900  0.80000  0.60100  1.0000
  V   V4        1.0  0.59100  0.39900  0.80000  1.0000
