data_image0
_chemical_formula_structural       Pd8Sn8Te8
_chemical_formula_sum              "Pd8 Sn8 Te8"
_cell_length_a       6.64839
_cell_length_b       6.6898
_cell_length_c       13.0431
_cell_angle_alpha    90
_cell_angle_beta     90
_cell_angle_gamma    90

_space_group_name_H-M_alt    "P 1"
_space_group_IT_number       1

loop_
  _space_group_symop_operation_xyz
  'x, y, z'

loop_
  _atom_site_type_symbol
  _atom_site_label
  _atom_site_symmetry_multiplicity
  _atom_site_fract_x
  _atom_site_fract_y
  _atom_site_fract_z
  _atom_site_occupancy
  Pd  Pd1       1.0  0.00215  0.17700  0.12900  1.0000
  Pd  Pd2       1.0  0.49800  0.67700  0.12900  1.0000
  Pd  Pd3       1.0  0.50200  0.17700  0.37100  1.0000
  Pd  Pd4       1.0  0.99800  0.67700  0.37100  1.0000
  Pd  Pd5       1.0  0.00215  0.32300  0.62900  1.0000
  Pd  Pd6       1.0  0.49800  0.82300  0.62900  1.0000
  Pd  Pd7       1.0  0.50200  0.32300  0.87100  1.0000
  Pd  Pd8       1.0  0.99800  0.82300  0.87100  1.0000
  Sn  Sn1       1.0  0.35800  0.31800  0.06440  1.0000
  Sn  Sn2       1.0  0.14200  0.81800  0.06440  1.0000
  Sn  Sn3       1.0  0.85800  0.31800  0.43600  1.0000
  Sn  Sn4       1.0  0.64200  0.81800  0.43600  1.0000
  Sn  Sn5       1.0  0.35800  0.18200  0.56400  1.0000
  Sn  Sn6       1.0  0.14200  0.68200  0.56400  1.0000
  Sn  Sn7       1.0  0.85800  0.18200  0.93600  1.0000
  Sn  Sn8       1.0  0.64200  0.68200  0.93600  1.0000
  Te  Te1       1.0  0.62700  0.05160  0.17900  1.0000
  Te  Te2       1.0  0.87300  0.55200  0.17900  1.0000
  Te  Te3       1.0  0.12700  0.05160  0.32100  1.0000
  Te  Te4       1.0  0.37300  0.55200  0.32100  1.0000
  Te  Te5       1.0  0.62700  0.44800  0.67900  1.0000
  Te  Te6       1.0  0.87300  0.94800  0.67900  1.0000
  Te  Te7       1.0  0.12700  0.44800  0.82100  1.0000
  Te  Te8       1.0  0.37300  0.94800  0.82100  1.0000
