data_image0
_chemical_formula_structural       Fe2O2Pb2Te2
_chemical_formula_sum              "Fe2 O2 Pb2 Te2"
_cell_length_a       3.07001
_cell_length_b       5.96628
_cell_length_c       9.11151
_cell_angle_alpha    90
_cell_angle_beta     80.3012
_cell_angle_gamma    90

_space_group_name_H-M_alt    "P 1"
_space_group_IT_number       1

loop_
  _space_group_symop_operation_xyz
  'x, y, z'

loop_
  _atom_site_type_symbol
  _atom_site_label
  _atom_site_symmetry_multiplicity
  _atom_site_fract_x
  _atom_site_fract_y
  _atom_site_fract_z
  _atom_site_occupancy
  Fe  Fe1       1.0  0.47400  0.75000  0.05200  1.0000
  Fe  Fe2       1.0  0.52600  0.25000  0.94800  1.0000
  O   O1        1.0  0.00000  0.00000  0.00000  1.0000
  O   O2        1.0  0.00000  0.50000  0.00000  1.0000
  Pb  Pb1       1.0  0.86400  0.25000  0.27200  1.0000
  Pb  Pb2       1.0  0.13600  0.75000  0.72800  1.0000
  Te  Te1       1.0  0.81300  0.75000  0.37400  1.0000
  Te  Te2       1.0  0.18700  0.25000  0.62600  1.0000
