data_image0
_chemical_formula_structural       Au4Nb4O4Se4
_chemical_formula_sum              "Au4 Nb4 O4 Se4"
_cell_length_a       7.39679
_cell_length_b       6.95787
_cell_length_c       5.72522
_cell_angle_alpha    89.9978
_cell_angle_beta     81.9577
_cell_angle_gamma    89.9992

_space_group_name_H-M_alt    "P 1"
_space_group_IT_number       1

loop_
  _space_group_symop_operation_xyz
  'x, y, z'

loop_
  _atom_site_type_symbol
  _atom_site_label
  _atom_site_symmetry_multiplicity
  _atom_site_fract_x
  _atom_site_fract_y
  _atom_site_fract_z
  _atom_site_occupancy
  Au  Au1       1.0  0.92300  0.67300  0.01950  1.0000
  Au  Au2       1.0  0.07670  0.17400  0.48000  1.0000
  Au  Au3       1.0  0.92300  0.82700  0.51900  1.0000
  Au  Au4       1.0  0.07670  0.32600  0.98000  1.0000
  Nb  Nb1       1.0  0.43800  0.08970  0.24000  1.0000
  Nb  Nb2       1.0  0.56200  0.59000  0.26000  1.0000
  Nb  Nb3       1.0  0.43800  0.41000  0.74000  1.0000
  Nb  Nb4       1.0  0.56200  0.91000  0.76000  1.0000
  O   O1        1.0  0.52500  0.33900  0.09200  1.0000
  O   O2        1.0  0.47500  0.83900  0.40800  1.0000
  O   O3        1.0  0.52500  0.16100  0.59200  1.0000
  O   O4        1.0  0.47500  0.66100  0.90800  1.0000
  Se  Se1       1.0  0.77300  0.01890  0.04350  1.0000
  Se  Se2       1.0  0.22700  0.51900  0.45700  1.0000
  Se  Se3       1.0  0.77300  0.48100  0.54300  1.0000
  Se  Se4       1.0  0.22700  0.98100  0.95700  1.0000
