data_image0
_chemical_formula_structural       Cs20O70Se20
_chemical_formula_sum              "Cs20 O70 Se20"
_cell_length_a       7.64619
_cell_length_b       15.9981
_cell_length_c       18.1823
_cell_angle_alpha    89.3262
_cell_angle_beta     89.1939
_cell_angle_gamma    76.7911

_space_group_name_H-M_alt    "P 1"
_space_group_IT_number       1

loop_
  _space_group_symop_operation_xyz
  'x, y, z'

loop_
  _atom_site_type_symbol
  _atom_site_label
  _atom_site_symmetry_multiplicity
  _atom_site_fract_x
  _atom_site_fract_y
  _atom_site_fract_z
  _atom_site_occupancy
  Cs  Cs1       1.0  0.05280  0.64300  0.04440  1.0000
  Cs  Cs2       1.0  0.42200  0.84900  0.06870  1.0000
  Cs  Cs3       1.0  0.58700  0.54700  0.15300  1.0000
  Cs  Cs4       1.0  0.85200  0.26500  0.17300  1.0000
  Cs  Cs5       1.0  0.86500  0.00449  0.19400  1.0000
  Cs  Cs6       1.0  0.36400  0.25300  0.32000  1.0000
  Cs  Cs7       1.0  0.36200  0.95400  0.32200  1.0000
  Cs  Cs8       1.0  0.10000  0.54000  0.35200  1.0000
  Cs  Cs9       1.0  0.91300  0.85100  0.43200  1.0000
  Cs  Cs10      1.0  0.54800  0.64500  0.44500  1.0000
  Cs  Cs11      1.0  0.45200  0.35500  0.55500  1.0000
  Cs  Cs12      1.0  0.08750  0.14900  0.56800  1.0000
  Cs  Cs13      1.0  0.90000  0.46000  0.64800  1.0000
  Cs  Cs14      1.0  0.63800  0.04610  0.67800  1.0000
  Cs  Cs15      1.0  0.63600  0.74700  0.68000  1.0000
  Cs  Cs16      1.0  0.13500  0.99600  0.80600  1.0000
  Cs  Cs17      1.0  0.14800  0.73500  0.82700  1.0000
  Cs  Cs18      1.0  0.41300  0.45300  0.84700  1.0000
  Cs  Cs19      1.0  0.57800  0.15100  0.93100  1.0000
  Cs  Cs20      1.0  0.94700  0.35700  0.95600  1.0000
  O   O1        1.0  0.66000  0.68300  0.01940  1.0000
  O   O2        1.0  0.32900  0.48100  0.02730  1.0000
  O   O3        1.0  0.93500  0.17200  0.02760  1.0000
  O   O4        1.0  0.62600  0.34900  0.05620  1.0000
  O   O5        1.0  0.12200  0.00760  0.06310  1.0000
  O   O6        1.0  0.79000  0.90900  0.06470  1.0000
  O   O7        1.0  0.29500  0.14200  0.06570  1.0000
  O   O8        1.0  0.96600  0.44900  0.10500  1.0000
  O   O9        1.0  0.31300  0.35400  0.13100  1.0000
  O   O10       1.0  0.29200  0.70500  0.15000  1.0000
  O   O11       1.0  0.46200  0.00266  0.15700  1.0000
  O   O12       1.0  0.52300  0.16400  0.16800  1.0000
  O   O13       1.0  0.19500  0.52300  0.18600  1.0000
  O   O14       1.0  0.97000  0.72500  0.20500  1.0000
  O   O15       1.0  0.62000  0.73100  0.20600  1.0000
  O   O16       1.0  0.19500  0.13100  0.21300  1.0000
  O   O17       1.0  0.16400  0.85000  0.23400  1.0000
  O   O18       1.0  0.07810  0.38400  0.24200  1.0000
  O   O19       1.0  0.57800  0.38600  0.26300  1.0000
  O   O20       1.0  0.73800  0.86300  0.27400  1.0000
  O   O21       1.0  0.78900  0.17000  0.30200  1.0000
  O   O22       1.0  0.25900  0.69200  0.30400  1.0000
  O   O23       1.0  0.70700  0.52100  0.31400  1.0000
  O   O24       1.0  0.80600  0.70400  0.33900  1.0000
  O   O25       1.0  0.96400  0.01730  0.36200  1.0000
  O   O26       1.0  0.82400  0.35200  0.37100  1.0000
  O   O27       1.0  0.53000  0.08090  0.38800  1.0000
  O   O28       1.0  0.09030  0.16300  0.39000  1.0000
  O   O29       1.0  0.48000  0.44800  0.40200  1.0000
  O   O30       1.0  0.13800  0.35000  0.44200  1.0000
  O   O31       1.0  0.78300  0.15000  0.45300  1.0000
  O   O32       1.0  0.83700  0.47900  0.47000  1.0000
  O   O33       1.0  0.52800  0.83700  0.47500  1.0000
  O   O34       1.0  0.14900  0.68300  0.47800  1.0000
  O   O35       1.0  0.29700  0.99600  0.48700  1.0000
  O   O36       1.0  0.70300  0.00417  0.51300  1.0000
  O   O37       1.0  0.85100  0.31700  0.52200  1.0000
  O   O38       1.0  0.47200  0.16300  0.52500  1.0000
  O   O39       1.0  0.16300  0.52100  0.53000  1.0000
  O   O40       1.0  0.21700  0.85000  0.54700  1.0000
  O   O41       1.0  0.86200  0.65000  0.55800  1.0000
  O   O42       1.0  0.52000  0.55200  0.59800  1.0000
  O   O43       1.0  0.91000  0.83700  0.61000  1.0000
  O   O44       1.0  0.47000  0.91900  0.61200  1.0000
  O   O45       1.0  0.17600  0.64800  0.62900  1.0000
  O   O46       1.0  0.03600  0.98300  0.63800  1.0000
  O   O47       1.0  0.19400  0.29600  0.66100  1.0000
  O   O48       1.0  0.29300  0.47900  0.68600  1.0000
  O   O49       1.0  0.74100  0.30800  0.69600  1.0000
  O   O50       1.0  0.21100  0.83000  0.69800  1.0000
  O   O51       1.0  0.26200  0.13700  0.72600  1.0000
  O   O52       1.0  0.42200  0.61400  0.73700  1.0000
  O   O53       1.0  0.92200  0.61600  0.75800  1.0000
  O   O54       1.0  0.83600  0.15000  0.76600  1.0000
  O   O55       1.0  0.80500  0.86900  0.78700  1.0000
  O   O56       1.0  0.38000  0.26900  0.79400  1.0000
  O   O57       1.0  0.02980  0.27500  0.79500  1.0000
  O   O58       1.0  0.80500  0.47700  0.81400  1.0000
  O   O59       1.0  0.47700  0.83600  0.83200  1.0000
  O   O60       1.0  0.53800  0.99700  0.84300  1.0000
  O   O61       1.0  0.70800  0.29500  0.85000  1.0000
  O   O62       1.0  0.68700  0.64600  0.86900  1.0000
  O   O63       1.0  0.03430  0.55100  0.89500  1.0000
  O   O64       1.0  0.70500  0.85800  0.93400  1.0000
  O   O65       1.0  0.21000  0.09070  0.93500  1.0000
  O   O66       1.0  0.87800  0.99200  0.93700  1.0000
  O   O67       1.0  0.37400  0.65100  0.94400  1.0000
  O   O68       1.0  0.06540  0.82800  0.97200  1.0000
  O   O69       1.0  0.67100  0.51900  0.97300  1.0000
  O   O70       1.0  0.34000  0.31700  0.98100  1.0000
  Se  Se1       1.0  0.12100  0.09740  0.01810  1.0000
  Se  Se2       1.0  0.40900  0.37800  0.04130  1.0000
  Se  Se3       1.0  0.37300  0.10700  0.15800  1.0000
  Se  Se4       1.0  0.12400  0.43600  0.16800  1.0000
  Se  Se5       1.0  0.19300  0.74500  0.22700  1.0000
  Se  Se6       1.0  0.76700  0.75900  0.26100  1.0000
  Se  Se7       1.0  0.63400  0.43400  0.33600  1.0000
  Se  Se8       1.0  0.91700  0.12300  0.36900  1.0000
  Se  Se9       1.0  0.92100  0.37600  0.45800  1.0000
  Se  Se10      1.0  0.60200  0.09260  0.47100  1.0000
  Se  Se11      1.0  0.39800  0.90700  0.52900  1.0000
  Se  Se12      1.0  0.07920  0.62400  0.54200  1.0000
  Se  Se13      1.0  0.08270  0.87700  0.63100  1.0000
  Se  Se14      1.0  0.36600  0.56600  0.66400  1.0000
  Se  Se15      1.0  0.23300  0.24100  0.73900  1.0000
  Se  Se16      1.0  0.80700  0.25500  0.77300  1.0000
  Se  Se17      1.0  0.87600  0.56400  0.83200  1.0000
  Se  Se18      1.0  0.62700  0.89300  0.84200  1.0000
  Se  Se19      1.0  0.59100  0.62200  0.95900  1.0000
  Se  Se20      1.0  0.87900  0.90300  0.98200  1.0000
