data_image0
_chemical_formula_structural       Ce2Ge2H4O8
_chemical_formula_sum              "Ce2 Ge2 H4 O8"
_cell_length_a       6.473
_cell_length_b       6.473
_cell_length_c       6.473
_cell_angle_alpha    114.42
_cell_angle_beta     99.9712
_cell_angle_gamma    114.42

_space_group_name_H-M_alt    "P 1"
_space_group_IT_number       1

loop_
  _space_group_symop_operation_xyz
  'x, y, z'

loop_
  _atom_site_type_symbol
  _atom_site_label
  _atom_site_symmetry_multiplicity
  _atom_site_fract_x
  _atom_site_fract_y
  _atom_site_fract_z
  _atom_site_occupancy
  Ce  Ce1       1.0  0.50000  0.00000  0.50000  1.0000
  Ce  Ce2       1.0  0.25000  0.50000  0.75000  1.0000
  Ge  Ge1       1.0  0.00000  0.00000  0.00000  1.0000
  Ge  Ge2       1.0  0.75000  0.50000  0.25000  1.0000
  H   H1        1.0  0.52600  0.50000  0.02550  1.0000
  H   H2        1.0  0.22400  0.00000  0.22400  1.0000
  H   H3        1.0  0.97400  0.50000  0.47400  1.0000
  H   H4        1.0  0.77600  0.00000  0.77600  1.0000
  O   O1        1.0  0.18900  0.82700  0.02710  1.0000
  O   O2        1.0  0.55000  0.66200  0.22300  1.0000
  O   O3        1.0  0.20000  0.17300  0.36200  1.0000
  O   O4        1.0  0.77700  0.32700  0.43900  1.0000
  O   O5        1.0  0.11200  0.67300  0.45000  1.0000
  O   O6        1.0  0.97300  0.16200  0.80000  1.0000
  O   O7        1.0  0.63800  0.83800  0.81100  1.0000
  O   O8        1.0  0.56100  0.33800  0.88800  1.0000
