data_image0
_chemical_formula_structural       Ge5Ni5V4
_chemical_formula_sum              "Ge5 Ni5 V4"
_cell_length_a       5.50099
_cell_length_b       6.7523
_cell_length_c       6.7523
_cell_angle_alpha    80.4489
_cell_angle_beta     114.038
_cell_angle_gamma    114.038

_space_group_name_H-M_alt    "P 1"
_space_group_IT_number       1

loop_
  _space_group_symop_operation_xyz
  'x, y, z'

loop_
  _atom_site_type_symbol
  _atom_site_label
  _atom_site_symmetry_multiplicity
  _atom_site_fract_x
  _atom_site_fract_y
  _atom_site_fract_z
  _atom_site_occupancy
  Ge  Ge1       1.0  0.50000  0.00000  0.00000  1.0000
  Ge  Ge2       1.0  0.90200  0.60800  0.19800  1.0000
  Ge  Ge3       1.0  0.29600  0.19800  0.39200  1.0000
  Ge  Ge4       1.0  0.70600  0.80200  0.60800  1.0000
  Ge  Ge5       1.0  0.09630  0.39200  0.80200  1.0000
  Ni  Ni1       1.0  0.94900  0.30800  0.10500  1.0000
  Ni  Ni2       1.0  0.35900  0.89500  0.30800  1.0000
  Ni  Ni3       1.0  0.75000  0.50000  0.50000  1.0000
  Ni  Ni4       1.0  0.15500  0.10500  0.69200  1.0000
  Ni  Ni5       1.0  0.53700  0.69200  0.89500  1.0000
  V   V1        1.0  0.39900  0.60200  0.19500  1.0000
  V   V2        1.0  0.79600  0.19500  0.39800  1.0000
  V   V3        1.0  0.20300  0.80500  0.60200  1.0000
  V   V4        1.0  0.60200  0.39800  0.80500  1.0000
