data_image0
_chemical_formula_structural       Ga4Os2
_chemical_formula_sum              "Ga4 Os2"
_cell_length_a       4.76464
_cell_length_b       4.79041
_cell_length_c       4.98346
_cell_angle_alpha    103.753
_cell_angle_beta     118.558
_cell_angle_gamma    60.1778

_space_group_name_H-M_alt    "P 1"
_space_group_IT_number       1

loop_
  _space_group_symop_operation_xyz
  'x, y, z'

loop_
  _atom_site_type_symbol
  _atom_site_label
  _atom_site_symmetry_multiplicity
  _atom_site_fract_x
  _atom_site_fract_y
  _atom_site_fract_z
  _atom_site_occupancy
  Ga  Ga1       1.0  0.33200  0.33600  0.00000  1.0000
  Ga  Ga2       1.0  0.66800  0.66400  0.00000  1.0000
  Ga  Ga3       1.0  0.41800  0.16400  0.50000  1.0000
  Ga  Ga4       1.0  0.08220  0.83600  0.50000  1.0000
  Os  Os1       1.0  0.00000  0.00000  0.00000  1.0000
  Os  Os2       1.0  0.75000  0.50000  0.50000  1.0000
