data_image0
_chemical_formula_structural       Hg2Pb2Sr2
_chemical_formula_sum              "Hg2 Pb2 Sr2"
_cell_length_a       5.10567
_cell_length_b       5.11808
_cell_length_c       8.2164
_cell_angle_alpha    90
_cell_angle_beta     90
_cell_angle_gamma    119.92

_space_group_name_H-M_alt    "P 1"
_space_group_IT_number       1

loop_
  _space_group_symop_operation_xyz
  'x, y, z'

loop_
  _atom_site_type_symbol
  _atom_site_label
  _atom_site_symmetry_multiplicity
  _atom_site_fract_x
  _atom_site_fract_y
  _atom_site_fract_z
  _atom_site_occupancy
  Hg  Hg1       1.0  0.66600  0.33200  0.47500  1.0000
  Hg  Hg2       1.0  0.33400  0.66800  0.97500  1.0000
  Pb  Pb1       1.0  0.33300  0.66600  0.38000  1.0000
  Pb  Pb2       1.0  0.66700  0.33400  0.88000  1.0000
  Sr  Sr1       1.0  0.00085  0.00170  0.16500  1.0000
  Sr  Sr2       1.0  0.99900  0.99800  0.66500  1.0000
