data_image0
_chemical_formula_structural       O4Rb4Rh4Se4
_chemical_formula_sum              "O4 Rb4 Rh4 Se4"
_cell_length_a       5.39615
_cell_length_b       8.10465
_cell_length_c       8.27394
_cell_angle_alpha    90.0853
_cell_angle_beta     95.9477
_cell_angle_gamma    89.9202

_space_group_name_H-M_alt    "P 1"
_space_group_IT_number       1

loop_
  _space_group_symop_operation_xyz
  'x, y, z'

loop_
  _atom_site_type_symbol
  _atom_site_label
  _atom_site_symmetry_multiplicity
  _atom_site_fract_x
  _atom_site_fract_y
  _atom_site_fract_z
  _atom_site_occupancy
  O   O1        1.0  0.71700  0.65700  0.15800  1.0000
  O   O2        1.0  0.28300  0.15700  0.34200  1.0000
  O   O3        1.0  0.71700  0.84300  0.65800  1.0000
  O   O4        1.0  0.28300  0.34300  0.84200  1.0000
  Rb  Rb1       1.0  0.78900  0.34200  0.01910  1.0000
  Rb  Rb2       1.0  0.21100  0.84200  0.48100  1.0000
  Rb  Rb3       1.0  0.78800  0.15800  0.51900  1.0000
  Rb  Rb4       1.0  0.21200  0.65800  0.98100  1.0000
  Rh  Rh1       1.0  0.41100  0.05830  0.13800  1.0000
  Rh  Rh2       1.0  0.58900  0.55800  0.36100  1.0000
  Rh  Rh3       1.0  0.41100  0.44200  0.63800  1.0000
  Rh  Rh4       1.0  0.58900  0.94200  0.86200  1.0000
  Se  Se1       1.0  0.75700  0.88900  0.13000  1.0000
  Se  Se2       1.0  0.24300  0.38900  0.37100  1.0000
  Se  Se3       1.0  0.75700  0.61100  0.62900  1.0000
  Se  Se4       1.0  0.24400  0.11100  0.87100  1.0000
