data_image0
_chemical_formula_structural       K4O4Rh4Se4
_chemical_formula_sum              "K4 O4 Rh4 Se4"
_cell_length_a       5.73312
_cell_length_b       8.96857
_cell_length_c       6.50665
_cell_angle_alpha    90.3306
_cell_angle_beta     88.7564
_cell_angle_gamma    90.2268

_space_group_name_H-M_alt    "P 1"
_space_group_IT_number       1

loop_
  _space_group_symop_operation_xyz
  'x, y, z'

loop_
  _atom_site_type_symbol
  _atom_site_label
  _atom_site_symmetry_multiplicity
  _atom_site_fract_x
  _atom_site_fract_y
  _atom_site_fract_z
  _atom_site_occupancy
  K   K1        1.0  0.22700  0.64600  0.02490  1.0000
  K   K2        1.0  0.77300  0.14500  0.47500  1.0000
  K   K3        1.0  0.22700  0.84900  0.52700  1.0000
  K   K4        1.0  0.77300  0.34800  0.97300  1.0000
  O   O1        1.0  0.73000  0.62700  0.01260  1.0000
  O   O2        1.0  0.27300  0.12700  0.48600  1.0000
  O   O3        1.0  0.72400  0.86500  0.51400  1.0000
  O   O4        1.0  0.27400  0.36500  0.98700  1.0000
  Rh  Rh1       1.0  0.27900  0.25400  0.24300  1.0000
  Rh  Rh2       1.0  0.72000  0.75300  0.25700  1.0000
  Rh  Rh3       1.0  0.27900  0.25000  0.73300  1.0000
  Rh  Rh4       1.0  0.72100  0.75000  0.76700  1.0000
  Se  Se1       1.0  0.71700  0.96600  0.00730  1.0000
  Se  Se2       1.0  0.28200  0.46600  0.49500  1.0000
  Se  Se3       1.0  0.71500  0.54400  0.50600  1.0000
  Se  Se4       1.0  0.28500  0.04440  0.99200  1.0000
