data_image0
_chemical_formula_structural       Ge5Pd5V4
_chemical_formula_sum              "Ge5 Pd5 V4"
_cell_length_a       5.82868
_cell_length_b       7.1737
_cell_length_c       7.1737
_cell_angle_alpha    80.5003
_cell_angle_beta     113.97
_cell_angle_gamma    113.97

_space_group_name_H-M_alt    "P 1"
_space_group_IT_number       1

loop_
  _space_group_symop_operation_xyz
  'x, y, z'

loop_
  _atom_site_type_symbol
  _atom_site_label
  _atom_site_symmetry_multiplicity
  _atom_site_fract_x
  _atom_site_fract_y
  _atom_site_fract_z
  _atom_site_occupancy
  Ge  Ge1       1.0  0.50000  0.00000  0.00000  1.0000
  Ge  Ge2       1.0  0.90000  0.61700  0.19800  1.0000
  Ge  Ge3       1.0  0.29800  0.19800  0.38300  1.0000
  Ge  Ge4       1.0  0.71600  0.80200  0.61700  1.0000
  Ge  Ge5       1.0  0.08580  0.38300  0.80200  1.0000
  Pd  Pd1       1.0  0.94600  0.31400  0.10700  1.0000
  Pd  Pd2       1.0  0.36800  0.89300  0.31400  1.0000
  Pd  Pd3       1.0  0.75000  0.50000  0.50000  1.0000
  Pd  Pd4       1.0  0.16100  0.10700  0.68600  1.0000
  Pd  Pd5       1.0  0.52500  0.68600  0.89300  1.0000
  V   V1        1.0  0.39800  0.60000  0.19700  1.0000
  V   V2        1.0  0.79900  0.19700  0.40000  1.0000
  V   V3        1.0  0.20200  0.80300  0.60000  1.0000
  V   V4        1.0  0.60100  0.40000  0.80300  1.0000
