data_image0
_chemical_formula_structural       Nb4Pd5Sn5
_chemical_formula_sum              "Nb4 Pd5 Sn5"
_cell_length_a       6.22961
_cell_length_b       7.6298
_cell_length_c       7.6298
_cell_angle_alpha    80.4062
_cell_angle_beta     114.094
_cell_angle_gamma    114.094

_space_group_name_H-M_alt    "P 1"
_space_group_IT_number       1

loop_
  _space_group_symop_operation_xyz
  'x, y, z'

loop_
  _atom_site_type_symbol
  _atom_site_label
  _atom_site_symmetry_multiplicity
  _atom_site_fract_x
  _atom_site_fract_y
  _atom_site_fract_z
  _atom_site_occupancy
  Nb  Nb1       1.0  0.39800  0.60000  0.19900  1.0000
  Nb  Nb2       1.0  0.80200  0.19900  0.40000  1.0000
  Nb  Nb3       1.0  0.20200  0.80100  0.60000  1.0000
  Nb  Nb4       1.0  0.59800  0.40000  0.80100  1.0000
  Pd  Pd1       1.0  0.94300  0.31700  0.10700  1.0000
  Pd  Pd2       1.0  0.37400  0.89300  0.31700  1.0000
  Pd  Pd3       1.0  0.75000  0.50000  0.50000  1.0000
  Pd  Pd4       1.0  0.16400  0.10700  0.68300  1.0000
  Pd  Pd5       1.0  0.51900  0.68300  0.89300  1.0000
  Sn  Sn1       1.0  0.50000  0.00000  0.00000  1.0000
  Sn  Sn2       1.0  0.90200  0.62300  0.19500  1.0000
  Sn  Sn3       1.0  0.29300  0.19500  0.37700  1.0000
  Sn  Sn4       1.0  0.72200  0.80500  0.62300  1.0000
  Sn  Sn5       1.0  0.08330  0.37700  0.80500  1.0000
