data_image0
_chemical_formula_structural       Pd4Sb4Zr3
_chemical_formula_sum              "Pd4 Sb4 Zr3"
_cell_length_a       6.35989
_cell_length_b       6.35989
_cell_length_c       7.73865
_cell_angle_alpha    65.7375
_cell_angle_beta     65.7375
_cell_angle_gamma    90

_space_group_name_H-M_alt    "P 1"
_space_group_IT_number       1

loop_
  _space_group_symop_operation_xyz
  'x, y, z'

loop_
  _atom_site_type_symbol
  _atom_site_label
  _atom_site_symmetry_multiplicity
  _atom_site_fract_x
  _atom_site_fract_y
  _atom_site_fract_z
  _atom_site_occupancy
  Pd  Pd1       1.0  0.61400  0.13000  0.25600  1.0000
  Pd  Pd2       1.0  0.13000  0.61400  0.25600  1.0000
  Pd  Pd3       1.0  0.38600  0.38600  0.74400  1.0000
  Pd  Pd4       1.0  0.87000  0.87000  0.74400  1.0000
  Sb  Sb1       1.0  0.50000  0.00000  0.00000  1.0000
  Sb  Sb2       1.0  0.00000  0.50000  0.00000  1.0000
  Sb  Sb3       1.0  0.75900  0.75900  0.48100  1.0000
  Sb  Sb4       1.0  0.24100  0.24100  0.51900  1.0000
  Zr  Zr1       1.0  0.50000  0.50000  0.00000  1.0000
  Zr  Zr2       1.0  0.75000  0.25000  0.50000  1.0000
  Zr  Zr3       1.0  0.25000  0.75000  0.50000  1.0000
