data_image0
_chemical_formula_structural       Eu4H16Mg4Ni4
_chemical_formula_sum              "Eu4 H16 Mg4 Ni4"
_cell_length_a       6.69708
_cell_length_b       6.69708
_cell_length_c       6.69708
_cell_angle_alpha    90
_cell_angle_beta     90
_cell_angle_gamma    90

_space_group_name_H-M_alt    "P 1"
_space_group_IT_number       1

loop_
  _space_group_symop_operation_xyz
  'x, y, z'

loop_
  _atom_site_type_symbol
  _atom_site_label
  _atom_site_symmetry_multiplicity
  _atom_site_fract_x
  _atom_site_fract_y
  _atom_site_fract_z
  _atom_site_occupancy
  Eu  Eu1       1.0  0.65900  0.84100  0.15900  1.0000
  Eu  Eu2       1.0  0.34100  0.34100  0.34100  1.0000
  Eu  Eu3       1.0  0.84100  0.15900  0.65900  1.0000
  Eu  Eu4       1.0  0.15900  0.65900  0.84100  1.0000
  H   H1        1.0  0.57800  0.22900  0.04750  1.0000
  H   H2        1.0  0.27100  0.95300  0.07760  1.0000
  H   H3        1.0  0.41800  0.58200  0.08190  1.0000
  H   H4        1.0  0.04750  0.57800  0.22900  1.0000
  H   H5        1.0  0.95300  0.07760  0.27100  1.0000
  H   H6        1.0  0.58200  0.08190  0.41800  1.0000
  H   H7        1.0  0.72900  0.45300  0.42200  1.0000
  H   H8        1.0  0.42200  0.72900  0.45300  1.0000
  H   H9        1.0  0.92200  0.77100  0.54700  1.0000
  H   H10       1.0  0.22900  0.04750  0.57800  1.0000
  H   H11       1.0  0.08190  0.41800  0.58200  1.0000
  H   H12       1.0  0.45300  0.42200  0.72900  1.0000
  H   H13       1.0  0.54700  0.92200  0.77100  1.0000
  H   H14       1.0  0.91800  0.91800  0.91800  1.0000
  H   H15       1.0  0.77100  0.54700  0.92200  1.0000
  H   H16       1.0  0.07760  0.27100  0.95300  1.0000
  Mg  Mg1       1.0  0.84600  0.34600  0.15400  1.0000
  Mg  Mg2       1.0  0.15400  0.84600  0.34600  1.0000
  Mg  Mg3       1.0  0.65400  0.65400  0.65400  1.0000
  Mg  Mg4       1.0  0.34600  0.15400  0.84600  1.0000
  Ni  Ni1       1.0  0.05570  0.05570  0.05570  1.0000
  Ni  Ni2       1.0  0.94400  0.55600  0.44400  1.0000
  Ni  Ni3       1.0  0.44400  0.94400  0.55600  1.0000
  Ni  Ni4       1.0  0.55600  0.44400  0.94400  1.0000
