data_image0
_chemical_formula_structural       Fe4Si2
_chemical_formula_sum              "Fe4 Si2"
_cell_length_a       3.91707
_cell_length_b       3.91737
_cell_length_c       4.82036
_cell_angle_alpha    90
_cell_angle_beta     89.9971
_cell_angle_gamma    120.002

_space_group_name_H-M_alt    "P 1"
_space_group_IT_number       1

loop_
  _space_group_symop_operation_xyz
  'x, y, z'

loop_
  _atom_site_type_symbol
  _atom_site_label
  _atom_site_symmetry_multiplicity
  _atom_site_fract_x
  _atom_site_fract_y
  _atom_site_fract_z
  _atom_site_occupancy
  Fe  Fe1       1.0  0.00000  0.00000  0.00000  1.0000
  Fe  Fe2       1.0  0.66700  0.33300  0.32400  1.0000
  Fe  Fe3       1.0  0.00000  0.00000  0.50000  1.0000
  Fe  Fe4       1.0  0.33300  0.66700  0.67600  1.0000
  Si  Si1       1.0  0.33300  0.66700  0.18000  1.0000
  Si  Si2       1.0  0.66700  0.33300  0.82000  1.0000
