data_image0
_chemical_formula_structural       Al2S4Zn
_chemical_formula_sum              "Al2 S4 Zn1"
_cell_length_a       3.67367
_cell_length_b       3.67367
_cell_length_c       12.1866
_cell_angle_alpha    81.331
_cell_angle_beta     98.669
_cell_angle_gamma    120

_space_group_name_H-M_alt    "P 1"
_space_group_IT_number       1

loop_
  _space_group_symop_operation_xyz
  'x, y, z'

loop_
  _atom_site_type_symbol
  _atom_site_label
  _atom_site_symmetry_multiplicity
  _atom_site_fract_x
  _atom_site_fract_y
  _atom_site_fract_z
  _atom_site_occupancy
  Al  Al1       1.0  0.00041  0.00000  0.00122  1.0000
  Al  Al2       1.0  0.23200  0.76800  0.69700  1.0000
  S   S1        1.0  0.69800  0.30200  0.09540  1.0000
  S   S2        1.0  0.12500  0.87500  0.37400  1.0000
  S   S3        1.0  0.87400  0.12600  0.62300  1.0000
  S   S4        1.0  0.29500  0.70500  0.88400  1.0000
  Zn  Zn1       1.0  0.77100  0.22900  0.31300  1.0000
