data_image0
_chemical_formula_structural       Ag4Se4Tl4
_chemical_formula_sum              "Ag4 Se4 Tl4"
_cell_length_a       7.84374
_cell_length_b       4.67223
_cell_length_c       8.06072
_cell_angle_alpha    90
_cell_angle_beta     90
_cell_angle_gamma    90

_space_group_name_H-M_alt    "P 1"
_space_group_IT_number       1

loop_
  _space_group_symop_operation_xyz
  'x, y, z'

loop_
  _atom_site_type_symbol
  _atom_site_label
  _atom_site_symmetry_multiplicity
  _atom_site_fract_x
  _atom_site_fract_y
  _atom_site_fract_z
  _atom_site_occupancy
  Ag  Ag1       1.0  0.67500  0.25000  0.08610  1.0000
  Ag  Ag2       1.0  0.17500  0.25000  0.41400  1.0000
  Ag  Ag3       1.0  0.82500  0.75000  0.58600  1.0000
  Ag  Ag4       1.0  0.32500  0.75000  0.91400  1.0000
  Se  Se1       1.0  0.30700  0.25000  0.10000  1.0000
  Se  Se2       1.0  0.80700  0.25000  0.40000  1.0000
  Se  Se3       1.0  0.19300  0.75000  0.60000  1.0000
  Se  Se4       1.0  0.69300  0.75000  0.90000  1.0000
  Tl  Tl1       1.0  0.00051  0.75000  0.18200  1.0000
  Tl  Tl2       1.0  0.50100  0.75000  0.31800  1.0000
  Tl  Tl3       1.0  0.49900  0.25000  0.68200  1.0000
  Tl  Tl4       1.0  0.99900  0.25000  0.81800  1.0000
