data_image0
_chemical_formula_structural       As2K4Zn
_chemical_formula_sum              "As2 K4 Zn1"
_cell_length_a       5.75479
_cell_length_b       5.75479
_cell_length_c       9.61506
_cell_angle_alpha    107.413
_cell_angle_beta     72.5869
_cell_angle_gamma    120

_space_group_name_H-M_alt    "P 1"
_space_group_IT_number       1

loop_
  _space_group_symop_operation_xyz
  'x, y, z'

loop_
  _atom_site_type_symbol
  _atom_site_label
  _atom_site_symmetry_multiplicity
  _atom_site_fract_x
  _atom_site_fract_y
  _atom_site_fract_z
  _atom_site_occupancy
  As  As1       1.0  0.91400  0.08580  0.25700  1.0000
  As  As2       1.0  0.08580  0.91400  0.74300  1.0000
  K   K1        1.0  0.61500  0.38500  0.15400  1.0000
  K   K2        1.0  0.20900  0.79100  0.37400  1.0000
  K   K3        1.0  0.79100  0.20900  0.62600  1.0000
  K   K4        1.0  0.38500  0.61500  0.84600  1.0000
  Zn  Zn1       1.0  0.00000  0.00000  0.00000  1.0000
