data_image0
_chemical_formula_structural       As2Cu4Sr
_chemical_formula_sum              "As2 Cu4 Sr1"
_cell_length_a       4.18914
_cell_length_b       4.18914
_cell_length_c       8.20287
_cell_angle_alpha    90
_cell_angle_beta     104.794
_cell_angle_gamma    120

_space_group_name_H-M_alt    "P 1"
_space_group_IT_number       1

loop_
  _space_group_symop_operation_xyz
  'x, y, z'

loop_
  _atom_site_type_symbol
  _atom_site_label
  _atom_site_symmetry_multiplicity
  _atom_site_fract_x
  _atom_site_fract_y
  _atom_site_fract_z
  _atom_site_occupancy
  As  As1       1.0  0.50400  0.75200  0.25600  1.0000
  As  As2       1.0  0.49600  0.24800  0.74400  1.0000
  Cu  Cu1       1.0  0.87800  0.43900  0.31600  1.0000
  Cu  Cu2       1.0  0.28700  0.14300  0.43000  1.0000
  Cu  Cu3       1.0  0.71300  0.85700  0.57000  1.0000
  Cu  Cu4       1.0  0.12200  0.56100  0.68400  1.0000
  Sr  Sr1       1.0  0.00000  0.00000  0.00000  1.0000
