data_image0
_chemical_formula_structural       Bi5Co5V4
_chemical_formula_sum              "Bi5 Co5 V4"
_cell_length_a       5.91866
_cell_length_b       7.21332
_cell_length_c       7.21332
_cell_angle_alpha    80.3103
_cell_angle_beta     114.221
_cell_angle_gamma    114.221

_space_group_name_H-M_alt    "P 1"
_space_group_IT_number       1

loop_
  _space_group_symop_operation_xyz
  'x, y, z'

loop_
  _atom_site_type_symbol
  _atom_site_label
  _atom_site_symmetry_multiplicity
  _atom_site_fract_x
  _atom_site_fract_y
  _atom_site_fract_z
  _atom_site_occupancy
  Bi  Bi1       1.0  0.50000  0.00000  0.00000  1.0000
  Bi  Bi2       1.0  0.89900  0.63700  0.19300  1.0000
  Bi  Bi3       1.0  0.29400  0.19300  0.36300  1.0000
  Bi  Bi4       1.0  0.73800  0.80700  0.63700  1.0000
  Bi  Bi5       1.0  0.06840  0.36300  0.80700  1.0000
  Co  Co1       1.0  0.93400  0.32600  0.11100  1.0000
  Co  Co2       1.0  0.39200  0.88900  0.32600  1.0000
  Co  Co3       1.0  0.75000  0.50000  0.50000  1.0000
  Co  Co4       1.0  0.17800  0.11100  0.67400  1.0000
  Co  Co5       1.0  0.49700  0.67400  0.88900  1.0000
  V   V1        1.0  0.39300  0.60500  0.20500  1.0000
  V   V2        1.0  0.81200  0.20500  0.39500  1.0000
  V   V3        1.0  0.21200  0.79500  0.60500  1.0000
  V   V4        1.0  0.58300  0.39500  0.79500  1.0000
