data_image0
_chemical_formula_structural       AlH24LiMg10
_chemical_formula_sum              "Al1 H24 Li1 Mg10"
_cell_length_a       8.80793
_cell_length_b       8.8894
_cell_length_c       4.3969
_cell_angle_alpha    90
_cell_angle_beta     89.6475
_cell_angle_gamma    90

_space_group_name_H-M_alt    "P 1"
_space_group_IT_number       1

loop_
  _space_group_symop_operation_xyz
  'x, y, z'

loop_
  _atom_site_type_symbol
  _atom_site_label
  _atom_site_symmetry_multiplicity
  _atom_site_fract_x
  _atom_site_fract_y
  _atom_site_fract_z
  _atom_site_occupancy
  Al  Al1       1.0  0.00000  0.83200  0.50000  1.0000
  H   H1        1.0  0.65500  0.83300  0.18700  1.0000
  H   H2        1.0  0.14900  0.15900  0.19300  1.0000
  H   H3        1.0  0.65400  0.16700  0.19600  1.0000
  H   H4        1.0  0.65400  0.50300  0.19800  1.0000
  H   H5        1.0  0.14700  0.50600  0.19800  1.0000
  H   H6        1.0  0.14400  0.83800  0.21900  1.0000
  H   H7        1.0  0.40000  0.33400  0.30100  1.0000
  H   H8        1.0  0.90200  0.33000  0.30500  1.0000
  H   H9        1.0  0.40100  0.67000  0.30500  1.0000
  H   H10       1.0  0.40200  0.99900  0.30800  1.0000
  H   H11       1.0  0.90800  0.69300  0.30900  1.0000
  H   H12       1.0  0.90800  0.98300  0.31300  1.0000
  H   H13       1.0  0.09210  0.98300  0.68700  1.0000
  H   H14       1.0  0.09230  0.69300  0.69100  1.0000
  H   H15       1.0  0.59800  0.99900  0.69200  1.0000
  H   H16       1.0  0.59900  0.67000  0.69500  1.0000
  H   H17       1.0  0.09780  0.33000  0.69500  1.0000
  H   H18       1.0  0.60000  0.33400  0.69900  1.0000
  H   H19       1.0  0.85600  0.83800  0.78100  1.0000
  H   H20       1.0  0.85300  0.50600  0.80200  1.0000
  H   H21       1.0  0.34600  0.50300  0.80200  1.0000
  H   H22       1.0  0.34600  0.16700  0.80400  1.0000
  H   H23       1.0  0.85100  0.15900  0.80700  1.0000
  H   H24       1.0  0.34500  0.83300  0.81300  1.0000
  Li  Li1       1.0  0.00000  0.49700  0.50000  1.0000
  Mg  Mg1       1.0  0.76000  0.33700  0.99600  1.0000
  Mg  Mg2       1.0  0.25300  0.00081  0.00000  1.0000
  Mg  Mg3       1.0  0.74700  0.00081  0.00007  1.0000
  Mg  Mg4       1.0  0.24000  0.33700  0.00351  1.0000
  Mg  Mg5       1.0  0.24500  0.66500  0.00479  1.0000
  Mg  Mg6       1.0  0.50000  0.16900  0.50000  1.0000
  Mg  Mg7       1.0  0.50000  0.50100  0.50000  1.0000
  Mg  Mg8       1.0  0.50000  0.83300  0.50000  1.0000
  Mg  Mg9       1.0  0.00000  0.17300  0.50000  1.0000
  Mg  Mg10      1.0  0.75500  0.66500  0.99500  1.0000
