data_image0
_chemical_formula_structural       Ge4Mg4N16Sr12
_chemical_formula_sum              "Ge4 Mg4 N16 Sr12"
_cell_length_a       5.94958
_cell_length_b       10.3346
_cell_length_c       9.59811
_cell_angle_alpha    90
_cell_angle_beta     90
_cell_angle_gamma    90

_space_group_name_H-M_alt    "P 1"
_space_group_IT_number       1

loop_
  _space_group_symop_operation_xyz
  'x, y, z'

loop_
  _atom_site_type_symbol
  _atom_site_label
  _atom_site_symmetry_multiplicity
  _atom_site_fract_x
  _atom_site_fract_y
  _atom_site_fract_z
  _atom_site_occupancy
  Ge  Ge1       1.0  0.25000  0.50000  0.23200  1.0000
  Ge  Ge2       1.0  0.25000  0.00000  0.26800  1.0000
  Ge  Ge3       1.0  0.75000  0.00000  0.73200  1.0000
  Ge  Ge4       1.0  0.75000  0.50000  0.76800  1.0000
  Mg  Mg1       1.0  0.15700  0.25000  0.25000  1.0000
  Mg  Mg2       1.0  0.34300  0.75000  0.25000  1.0000
  Mg  Mg3       1.0  0.65700  0.25000  0.75000  1.0000
  Mg  Mg4       1.0  0.84300  0.75000  0.75000  1.0000
  N   N1        1.0  0.38300  0.36300  0.12700  1.0000
  N   N2        1.0  0.11700  0.63700  0.12700  1.0000
  N   N3        1.0  0.01350  0.08420  0.16300  1.0000
  N   N4        1.0  0.48700  0.91600  0.16300  1.0000
  N   N5        1.0  0.01350  0.41600  0.33700  1.0000
  N   N6        1.0  0.48700  0.58400  0.33700  1.0000
  N   N7        1.0  0.38300  0.13700  0.37300  1.0000
  N   N8        1.0  0.11700  0.86300  0.37300  1.0000
  N   N9        1.0  0.88300  0.13700  0.62700  1.0000
  N   N10       1.0  0.61700  0.86300  0.62700  1.0000
  N   N11       1.0  0.51300  0.41600  0.66300  1.0000
  N   N12       1.0  0.98700  0.58400  0.66300  1.0000
  N   N13       1.0  0.51300  0.08420  0.83700  1.0000
  N   N14       1.0  0.98700  0.91600  0.83700  1.0000
  N   N15       1.0  0.88300  0.36300  0.87300  1.0000
  N   N16       1.0  0.61700  0.63700  0.87300  1.0000
  Sr  Sr1       1.0  0.61300  0.15400  0.09000  1.0000
  Sr  Sr2       1.0  0.88700  0.84600  0.09000  1.0000
  Sr  Sr3       1.0  0.75000  0.50000  0.09330  1.0000
  Sr  Sr4       1.0  0.75000  0.00000  0.40700  1.0000
  Sr  Sr5       1.0  0.61300  0.34600  0.41000  1.0000
  Sr  Sr6       1.0  0.88700  0.65400  0.41000  1.0000
  Sr  Sr7       1.0  0.11300  0.34600  0.59000  1.0000
  Sr  Sr8       1.0  0.38700  0.65400  0.59000  1.0000
  Sr  Sr9       1.0  0.25000  0.00000  0.59300  1.0000
  Sr  Sr10      1.0  0.25000  0.50000  0.90700  1.0000
  Sr  Sr11      1.0  0.11300  0.15400  0.91000  1.0000
  Sr  Sr12      1.0  0.38700  0.84600  0.91000  1.0000
