data_image0
_chemical_formula_structural       Mg4Mn2O16P4
_chemical_formula_sum              "Mg4 Mn2 O16 P4"
_cell_length_a       7.57621
_cell_length_b       8.33798
_cell_length_c       5.09555
_cell_angle_alpha    90
_cell_angle_beta     93.207
_cell_angle_gamma    90

_space_group_name_H-M_alt    "P 1"
_space_group_IT_number       1

loop_
  _space_group_symop_operation_xyz
  'x, y, z'

loop_
  _atom_site_type_symbol
  _atom_site_label
  _atom_site_symmetry_multiplicity
  _atom_site_fract_x
  _atom_site_fract_y
  _atom_site_fract_z
  _atom_site_occupancy
  Mg  Mg1       1.0  0.60600  0.13900  0.10000  1.0000
  Mg  Mg2       1.0  0.89400  0.63900  0.40000  1.0000
  Mg  Mg3       1.0  0.10600  0.36100  0.60000  1.0000
  Mg  Mg4       1.0  0.39400  0.86100  0.90000  1.0000
  Mn  Mn1       1.0  0.50000  0.50000  0.00000  1.0000
  Mn  Mn2       1.0  0.00000  0.00000  0.50000  1.0000
  O   O1        1.0  0.35300  0.07810  0.03520  1.0000
  O   O2        1.0  0.74300  0.63300  0.06280  1.0000
  O   O3        1.0  0.95300  0.84700  0.16500  1.0000
  O   O4        1.0  0.36600  0.70700  0.18200  1.0000
  O   O5        1.0  0.13400  0.20700  0.31800  1.0000
  O   O6        1.0  0.54700  0.34700  0.33500  1.0000
  O   O7        1.0  0.75700  0.13300  0.43700  1.0000
  O   O8        1.0  0.14700  0.57800  0.46500  1.0000
  O   O9        1.0  0.85300  0.42200  0.53500  1.0000
  O   O10       1.0  0.24300  0.86700  0.56300  1.0000
  O   O11       1.0  0.45300  0.65300  0.66500  1.0000
  O   O12       1.0  0.86600  0.79300  0.68200  1.0000
  O   O13       1.0  0.63400  0.29300  0.81800  1.0000
  O   O14       1.0  0.04700  0.15300  0.83500  1.0000
  O   O15       1.0  0.25700  0.36700  0.93700  1.0000
  O   O16       1.0  0.64700  0.92200  0.96500  1.0000
  P   P1        1.0  0.19800  0.19900  0.03730  1.0000
  P   P2        1.0  0.30200  0.69900  0.46300  1.0000
  P   P3        1.0  0.69800  0.30100  0.53700  1.0000
  P   P4        1.0  0.80200  0.80100  0.96300  1.0000
