data_image0
_chemical_formula_structural       Br2K4O
_chemical_formula_sum              "Br2 K4 O1"
_cell_length_a       5.16528
_cell_length_b       5.16528
_cell_length_c       9.06731
_cell_angle_alpha    106.549
_cell_angle_beta     106.549
_cell_angle_gamma    90

_space_group_name_H-M_alt    "P 1"
_space_group_IT_number       1

loop_
  _space_group_symop_operation_xyz
  'x, y, z'

loop_
  _atom_site_type_symbol
  _atom_site_label
  _atom_site_symmetry_multiplicity
  _atom_site_fract_x
  _atom_site_fract_y
  _atom_site_fract_z
  _atom_site_occupancy
  Br  Br1       1.0  0.64600  0.64600  0.29200  1.0000
  Br  Br2       1.0  0.35400  0.35400  0.70800  1.0000
  K   K1        1.0  0.50000  0.00000  0.00000  1.0000
  K   K2        1.0  0.00000  0.50000  0.00000  1.0000
  K   K3        1.0  0.15500  0.15500  0.31100  1.0000
  K   K4        1.0  0.84500  0.84500  0.68900  1.0000
  O   O1        1.0  0.00000  0.00000  0.00000  1.0000
