data_image0
_chemical_formula_structural       O20Si4Tm8
_chemical_formula_sum              "O20 Si4 Tm8"
_cell_length_a       8.94976
_cell_length_b       6.73132
_cell_length_c       6.58707
_cell_angle_alpha    90
_cell_angle_beta     104.978
_cell_angle_gamma    90

_space_group_name_H-M_alt    "P 1"
_space_group_IT_number       1

loop_
  _space_group_symop_operation_xyz
  'x, y, z'

loop_
  _atom_site_type_symbol
  _atom_site_label
  _atom_site_symmetry_multiplicity
  _atom_site_fract_x
  _atom_site_fract_y
  _atom_site_fract_z
  _atom_site_occupancy
  O   O1        1.0  0.38800  0.86200  0.00867  1.0000
  O   O2        1.0  0.89400  0.29200  0.01240  1.0000
  O   O3        1.0  0.38700  0.38300  0.06540  1.0000
  O   O4        1.0  0.21000  0.07000  0.17100  1.0000
  O   O5        1.0  0.87500  0.94400  0.21800  1.0000
  O   O6        1.0  0.12500  0.44400  0.28200  1.0000
  O   O7        1.0  0.79000  0.57000  0.32900  1.0000
  O   O8        1.0  0.61300  0.88300  0.43500  1.0000
  O   O9        1.0  0.10600  0.79200  0.48800  1.0000
  O   O10       1.0  0.61200  0.36200  0.49100  1.0000
  O   O11       1.0  0.38800  0.63800  0.50900  1.0000
  O   O12       1.0  0.89400  0.20800  0.51200  1.0000
  O   O13       1.0  0.38700  0.11700  0.56500  1.0000
  O   O14       1.0  0.21000  0.43000  0.67100  1.0000
  O   O15       1.0  0.87500  0.55600  0.71800  1.0000
  O   O16       1.0  0.12500  0.05550  0.78200  1.0000
  O   O17       1.0  0.79000  0.93000  0.82900  1.0000
  O   O18       1.0  0.61300  0.61700  0.93500  1.0000
  O   O19       1.0  0.10600  0.70800  0.98800  1.0000
  O   O20       1.0  0.61200  0.13800  0.99100  1.0000
  Si  Si1       1.0  0.79900  0.09210  0.02230  1.0000
  Si  Si2       1.0  0.20100  0.59200  0.47800  1.0000
  Si  Si3       1.0  0.79900  0.40800  0.52200  1.0000
  Si  Si4       1.0  0.20100  0.90800  0.97800  1.0000
  Tm  Tm1       1.0  0.87000  0.63900  0.04700  1.0000
  Tm  Tm2       1.0  0.52900  0.62500  0.23100  1.0000
  Tm  Tm3       1.0  0.47100  0.12500  0.26900  1.0000
  Tm  Tm4       1.0  0.13000  0.13900  0.45300  1.0000
  Tm  Tm5       1.0  0.87000  0.86100  0.54700  1.0000
  Tm  Tm6       1.0  0.52900  0.87500  0.73100  1.0000
  Tm  Tm7       1.0  0.47100  0.37500  0.76900  1.0000
  Tm  Tm8       1.0  0.13000  0.36100  0.95300  1.0000
