data_image0
_chemical_formula_structural       Al2HgS4
_chemical_formula_sum              "Al2 Hg1 S4"
_cell_length_a       5.60678
_cell_length_b       5.60678
_cell_length_c       6.50055
_cell_angle_alpha    115.547
_cell_angle_beta     115.547
_cell_angle_gamma    90

_space_group_name_H-M_alt    "P 1"
_space_group_IT_number       1

loop_
  _space_group_symop_operation_xyz
  'x, y, z'

loop_
  _atom_site_type_symbol
  _atom_site_label
  _atom_site_symmetry_multiplicity
  _atom_site_fract_x
  _atom_site_fract_y
  _atom_site_fract_z
  _atom_site_occupancy
  Al  Al1       1.0  0.50000  0.50000  0.00000  1.0000
  Al  Al2       1.0  0.25000  0.75000  0.50000  1.0000
  Hg  Hg1       1.0  0.00000  0.00000  0.00000  1.0000
  S   S1        1.0  0.40500  0.41600  0.27200  1.0000
  S   S2        1.0  0.86800  0.85700  0.27200  1.0000
  S   S3        1.0  0.58400  0.13200  0.72800  1.0000
  S   S4        1.0  0.14300  0.59500  0.72800  1.0000
