data_image0
_chemical_formula_structural       AsSe3Tl3
_chemical_formula_sum              "As1 Se3 Tl3"
_cell_length_a       6.245
_cell_length_b       6.245
_cell_length_c       6.245
_cell_angle_alpha    106.444
_cell_angle_beta     106.444
_cell_angle_gamma    106.444

_space_group_name_H-M_alt    "P 1"
_space_group_IT_number       1

loop_
  _space_group_symop_operation_xyz
  'x, y, z'

loop_
  _atom_site_type_symbol
  _atom_site_label
  _atom_site_symmetry_multiplicity
  _atom_site_fract_x
  _atom_site_fract_y
  _atom_site_fract_z
  _atom_site_occupancy
  As  As1       1.0  0.69200  0.69200  0.69200  1.0000
  Se  Se1       1.0  0.71600  0.71600  0.09400  1.0000
  Se  Se2       1.0  0.71600  0.09400  0.71600  1.0000
  Se  Se3       1.0  0.09400  0.71600  0.71600  1.0000
  Tl  Tl1       1.0  0.15900  0.55200  0.15900  1.0000
  Tl  Tl2       1.0  0.55200  0.15900  0.15900  1.0000
  Tl  Tl3       1.0  0.15900  0.15900  0.55200  1.0000
