data_image0
_chemical_formula_structural       Dy8O20Si4
_chemical_formula_sum              "Dy8 O20 Si4"
_cell_length_a       9.01883
_cell_length_b       6.8331
_cell_length_c       6.66576
_cell_angle_alpha    90
_cell_angle_beta     105.837
_cell_angle_gamma    90

_space_group_name_H-M_alt    "P 1"
_space_group_IT_number       1

loop_
  _space_group_symop_operation_xyz
  'x, y, z'

loop_
  _atom_site_type_symbol
  _atom_site_label
  _atom_site_symmetry_multiplicity
  _atom_site_fract_x
  _atom_site_fract_y
  _atom_site_fract_z
  _atom_site_occupancy
  Dy  Dy1       1.0  0.87500  0.63900  0.05920  1.0000
  Dy  Dy2       1.0  0.52800  0.62500  0.23300  1.0000
  Dy  Dy3       1.0  0.47200  0.12500  0.26700  1.0000
  Dy  Dy4       1.0  0.12500  0.13900  0.44100  1.0000
  Dy  Dy5       1.0  0.87500  0.86100  0.55900  1.0000
  Dy  Dy6       1.0  0.52800  0.87500  0.73300  1.0000
  Dy  Dy7       1.0  0.47200  0.37500  0.76700  1.0000
  Dy  Dy8       1.0  0.12500  0.36100  0.94100  1.0000
  O   O1        1.0  0.38700  0.86400  0.00687  1.0000
  O   O2        1.0  0.89400  0.28600  0.01930  1.0000
  O   O3        1.0  0.38500  0.38200  0.06030  1.0000
  O   O4        1.0  0.20900  0.07040  0.16200  1.0000
  O   O5        1.0  0.87600  0.95000  0.22600  1.0000
  O   O6        1.0  0.12400  0.45000  0.27400  1.0000
  O   O7        1.0  0.79100  0.57000  0.33800  1.0000
  O   O8        1.0  0.61500  0.88200  0.44000  1.0000
  O   O9        1.0  0.10600  0.78600  0.48100  1.0000
  O   O10       1.0  0.61300  0.36400  0.49300  1.0000
  O   O11       1.0  0.38700  0.63600  0.50700  1.0000
  O   O12       1.0  0.89400  0.21400  0.51900  1.0000
  O   O13       1.0  0.38500  0.11800  0.56000  1.0000
  O   O14       1.0  0.20900  0.43000  0.66200  1.0000
  O   O15       1.0  0.87600  0.55000  0.72600  1.0000
  O   O16       1.0  0.12400  0.05040  0.77400  1.0000
  O   O17       1.0  0.79100  0.93000  0.83800  1.0000
  O   O18       1.0  0.61500  0.61800  0.94000  1.0000
  O   O19       1.0  0.10600  0.71400  0.98100  1.0000
  O   O20       1.0  0.61300  0.13600  0.99300  1.0000
  Si  Si1       1.0  0.79900  0.09050  0.02690  1.0000
  Si  Si2       1.0  0.20100  0.59100  0.47300  1.0000
  Si  Si3       1.0  0.79900  0.40900  0.52700  1.0000
  Si  Si4       1.0  0.20100  0.90900  0.97300  1.0000
