data_image0
_chemical_formula_structural       O20Si4Tb8
_chemical_formula_sum              "O20 Si4 Tb8"
_cell_length_a       9.03967
_cell_length_b       6.86883
_cell_length_c       6.69156
_cell_angle_alpha    90
_cell_angle_beta     106.087
_cell_angle_gamma    90

_space_group_name_H-M_alt    "P 1"
_space_group_IT_number       1

loop_
  _space_group_symop_operation_xyz
  'x, y, z'

loop_
  _atom_site_type_symbol
  _atom_site_label
  _atom_site_symmetry_multiplicity
  _atom_site_fract_x
  _atom_site_fract_y
  _atom_site_fract_z
  _atom_site_occupancy
  O   O1        1.0  0.38600  0.86400  0.00615  1.0000
  O   O2        1.0  0.89400  0.28500  0.02200  1.0000
  O   O3        1.0  0.38500  0.38100  0.05850  1.0000
  O   O4        1.0  0.20800  0.07040  0.15900  1.0000
  O   O5        1.0  0.87600  0.95100  0.22900  1.0000
  O   O6        1.0  0.12400  0.45100  0.27100  1.0000
  O   O7        1.0  0.79200  0.57000  0.34100  1.0000
  O   O8        1.0  0.61500  0.88100  0.44100  1.0000
  O   O9        1.0  0.10600  0.78500  0.47800  1.0000
  O   O10       1.0  0.61400  0.36400  0.49400  1.0000
  O   O11       1.0  0.38600  0.63600  0.50600  1.0000
  O   O12       1.0  0.89400  0.21500  0.52200  1.0000
  O   O13       1.0  0.38500  0.11900  0.55900  1.0000
  O   O14       1.0  0.20800  0.43000  0.65900  1.0000
  O   O15       1.0  0.87600  0.54900  0.72900  1.0000
  O   O16       1.0  0.12400  0.04870  0.77100  1.0000
  O   O17       1.0  0.79200  0.93000  0.84100  1.0000
  O   O18       1.0  0.61500  0.61900  0.94100  1.0000
  O   O19       1.0  0.10600  0.71500  0.97800  1.0000
  O   O20       1.0  0.61400  0.13600  0.99400  1.0000
  Si  Si1       1.0  0.79900  0.09010  0.02870  1.0000
  Si  Si2       1.0  0.20100  0.59000  0.47100  1.0000
  Si  Si3       1.0  0.79900  0.41000  0.52900  1.0000
  Si  Si4       1.0  0.20100  0.91000  0.97100  1.0000
  Tb  Tb1       1.0  0.87700  0.64000  0.06310  1.0000
  Tb  Tb2       1.0  0.52700  0.62500  0.23300  1.0000
  Tb  Tb3       1.0  0.47300  0.12500  0.26700  1.0000
  Tb  Tb4       1.0  0.12300  0.14000  0.43700  1.0000
  Tb  Tb5       1.0  0.87700  0.86000  0.56300  1.0000
  Tb  Tb6       1.0  0.52700  0.87500  0.73300  1.0000
  Tb  Tb7       1.0  0.47300  0.37500  0.76700  1.0000
  Tb  Tb8       1.0  0.12300  0.36000  0.93700  1.0000
