data_image0
_chemical_formula_structural       Li8Sb8Sn8
_chemical_formula_sum              "Li8 Sb8 Sn8"
_cell_length_a       9.0884
_cell_length_b       9.08816
_cell_length_c       8.36265
_cell_angle_alpha    90
_cell_angle_beta     90
_cell_angle_gamma    120.001

_space_group_name_H-M_alt    "P 1"
_space_group_IT_number       1

loop_
  _space_group_symop_operation_xyz
  'x, y, z'

loop_
  _atom_site_type_symbol
  _atom_site_label
  _atom_site_symmetry_multiplicity
  _atom_site_fract_x
  _atom_site_fract_y
  _atom_site_fract_z
  _atom_site_occupancy
  Li  Li1       1.0  0.17400  0.34900  0.10400  1.0000
  Li  Li2       1.0  0.65100  0.82600  0.10400  1.0000
  Li  Li3       1.0  0.17400  0.82600  0.10400  1.0000
  Li  Li4       1.0  0.66700  0.33300  0.45200  1.0000
  Li  Li5       1.0  0.82600  0.65100  0.60400  1.0000
  Li  Li6       1.0  0.82600  0.17400  0.60400  1.0000
  Li  Li7       1.0  0.34900  0.17400  0.60400  1.0000
  Li  Li8       1.0  0.33300  0.66700  0.95200  1.0000
  Sb  Sb1       1.0  0.51800  0.03620  0.04290  1.0000
  Sb  Sb2       1.0  0.96400  0.48200  0.04290  1.0000
  Sb  Sb3       1.0  0.51800  0.48200  0.04290  1.0000
  Sb  Sb4       1.0  0.00000  0.00000  0.04730  1.0000
  Sb  Sb5       1.0  0.48200  0.51800  0.54300  1.0000
  Sb  Sb6       1.0  0.03620  0.51800  0.54300  1.0000
  Sb  Sb7       1.0  0.48200  0.96400  0.54300  1.0000
  Sb  Sb8       1.0  0.00000  0.00001  0.54700  1.0000
  Sn  Sn1       1.0  0.83400  0.66700  0.25600  1.0000
  Sn  Sn2       1.0  0.83400  0.16600  0.25600  1.0000
  Sn  Sn3       1.0  0.33300  0.16600  0.25600  1.0000
  Sn  Sn4       1.0  0.33300  0.66700  0.32200  1.0000
  Sn  Sn5       1.0  0.16600  0.33300  0.75600  1.0000
  Sn  Sn6       1.0  0.66700  0.83400  0.75600  1.0000
  Sn  Sn7       1.0  0.16600  0.83400  0.75600  1.0000
  Sn  Sn8       1.0  0.66700  0.33300  0.82200  1.0000
