data_image0
_chemical_formula_structural       Lu8O20Si4
_chemical_formula_sum              "Lu8 O20 Si4"
_cell_length_a       8.94117
_cell_length_b       6.64724
_cell_length_c       6.54472
_cell_angle_alpha    90
_cell_angle_beta     103.267
_cell_angle_gamma    90

_space_group_name_H-M_alt    "P 1"
_space_group_IT_number       1

loop_
  _space_group_symop_operation_xyz
  'x, y, z'

loop_
  _atom_site_type_symbol
  _atom_site_label
  _atom_site_symmetry_multiplicity
  _atom_site_fract_x
  _atom_site_fract_y
  _atom_site_fract_z
  _atom_site_occupancy
  Lu  Lu1       1.0  0.86100  0.64100  0.02720  1.0000
  Lu  Lu2       1.0  0.53100  0.62200  0.23100  1.0000
  Lu  Lu3       1.0  0.46900  0.12200  0.26900  1.0000
  Lu  Lu4       1.0  0.13900  0.14100  0.47300  1.0000
  Lu  Lu5       1.0  0.86100  0.85900  0.52700  1.0000
  Lu  Lu6       1.0  0.53100  0.87800  0.73100  1.0000
  Lu  Lu7       1.0  0.46900  0.37800  0.76900  1.0000
  Lu  Lu8       1.0  0.13900  0.35900  0.97300  1.0000
  O   O1        1.0  0.89800  0.29600  0.00898  1.0000
  O   O2        1.0  0.38800  0.85700  0.01370  1.0000
  O   O3        1.0  0.39000  0.38100  0.07140  1.0000
  O   O4        1.0  0.21200  0.06460  0.18600  1.0000
  O   O5        1.0  0.86600  0.93800  0.20200  1.0000
  O   O6        1.0  0.13400  0.43800  0.29800  1.0000
  O   O7        1.0  0.78800  0.56500  0.31400  1.0000
  O   O8        1.0  0.61000  0.88100  0.42900  1.0000
  O   O9        1.0  0.61200  0.35700  0.48600  1.0000
  O   O10       1.0  0.10200  0.79600  0.49100  1.0000
  O   O11       1.0  0.89800  0.20400  0.50900  1.0000
  O   O12       1.0  0.38800  0.64300  0.51400  1.0000
  O   O13       1.0  0.39000  0.11900  0.57100  1.0000
  O   O14       1.0  0.21200  0.43500  0.68600  1.0000
  O   O15       1.0  0.86600  0.56200  0.70200  1.0000
  O   O16       1.0  0.13400  0.06210  0.79800  1.0000
  O   O17       1.0  0.78800  0.93500  0.81400  1.0000
  O   O18       1.0  0.61000  0.61900  0.92900  1.0000
  O   O19       1.0  0.61200  0.14300  0.98600  1.0000
  O   O20       1.0  0.10200  0.70400  0.99100  1.0000
  Si  Si1       1.0  0.79900  0.09530  0.01290  1.0000
  Si  Si2       1.0  0.20100  0.59500  0.48700  1.0000
  Si  Si3       1.0  0.79900  0.40500  0.51300  1.0000
  Si  Si4       1.0  0.20100  0.90500  0.98700  1.0000
