data_image0
_chemical_formula_structural       Al3Si2Tb2
_chemical_formula_sum              "Al3 Si2 Tb2"
_cell_length_a       4.05894
_cell_length_b       5.50201
_cell_length_c       6.63447
_cell_angle_alpha    100.338
_cell_angle_beta     90
_cell_angle_gamma    111.645

_space_group_name_H-M_alt    "P 1"
_space_group_IT_number       1

loop_
  _space_group_symop_operation_xyz
  'x, y, z'

loop_
  _atom_site_type_symbol
  _atom_site_label
  _atom_site_symmetry_multiplicity
  _atom_site_fract_x
  _atom_site_fract_y
  _atom_site_fract_z
  _atom_site_occupancy
  Al  Al1       1.0  0.00000  0.00000  0.00000  1.0000
  Al  Al2       1.0  0.30600  0.61200  0.13400  1.0000
  Al  Al3       1.0  0.69400  0.38800  0.86600  1.0000
  Si  Si1       1.0  0.90700  0.81400  0.36000  1.0000
  Si  Si2       1.0  0.09290  0.18600  0.64000  1.0000
  Tb  Tb1       1.0  0.62000  0.23900  0.32200  1.0000
  Tb  Tb2       1.0  0.38000  0.76100  0.67800  1.0000
