data_image0
_chemical_formula_structural       HgNa4P2
_chemical_formula_sum              "Hg1 Na4 P2"
_cell_length_a       4.97791
_cell_length_b       4.97791
_cell_length_c       9.01138
_cell_angle_alpha    90
_cell_angle_beta     106.034
_cell_angle_gamma    120

_space_group_name_H-M_alt    "P 1"
_space_group_IT_number       1

loop_
  _space_group_symop_operation_xyz
  'x, y, z'

loop_
  _atom_site_type_symbol
  _atom_site_label
  _atom_site_symmetry_multiplicity
  _atom_site_fract_x
  _atom_site_fract_y
  _atom_site_fract_z
  _atom_site_occupancy
  Hg  Hg1       1.0  0.00000  0.00000  0.00000  1.0000
  Na  Na1       1.0  0.80400  0.40200  0.20600  1.0000
  Na  Na2       1.0  0.58500  0.79300  0.37800  1.0000
  Na  Na3       1.0  0.41500  0.20700  0.62200  1.0000
  Na  Na4       1.0  0.19600  0.59800  0.79400  1.0000
  P   P1        1.0  0.18800  0.09400  0.28200  1.0000
  P   P2        1.0  0.81200  0.90600  0.71800  1.0000
