data_image0
_chemical_formula_structural       Al2Ba3Sn2
_chemical_formula_sum              "Al2 Ba3 Sn2"
_cell_length_a       4.62351
_cell_length_b       5.25588
_cell_length_c       10.9475
_cell_angle_alpha    103.889
_cell_angle_beta     102.191
_cell_angle_gamma    90

_space_group_name_H-M_alt    "P 1"
_space_group_IT_number       1

loop_
  _space_group_symop_operation_xyz
  'x, y, z'

loop_
  _atom_site_type_symbol
  _atom_site_label
  _atom_site_symmetry_multiplicity
  _atom_site_fract_x
  _atom_site_fract_y
  _atom_site_fract_z
  _atom_site_occupancy
  Al  Al1       1.0  0.06210  0.56200  0.12400  1.0000
  Al  Al2       1.0  0.93800  0.43800  0.87600  1.0000
  Ba  Ba1       1.0  0.50000  0.00000  0.00000  1.0000
  Ba  Ba2       1.0  0.18300  0.18300  0.36600  1.0000
  Ba  Ba3       1.0  0.81700  0.81700  0.63400  1.0000
  Sn  Sn1       1.0  0.63700  0.63700  0.27400  1.0000
  Sn  Sn2       1.0  0.36300  0.36300  0.72600  1.0000
