data_image0
_chemical_formula_structural       Er2O7Si2
_chemical_formula_sum              "Er2 O7 Si2"
_cell_length_a       4.68911
_cell_length_b       5.6296
_cell_length_c       5.6296
_cell_angle_alpha    105.801
_cell_angle_beta     98.0262
_cell_angle_gamma    98.0262

_space_group_name_H-M_alt    "P 1"
_space_group_IT_number       1

loop_
  _space_group_symop_operation_xyz
  'x, y, z'

loop_
  _atom_site_type_symbol
  _atom_site_label
  _atom_site_symmetry_multiplicity
  _atom_site_fract_x
  _atom_site_fract_y
  _atom_site_fract_z
  _atom_site_occupancy
  Er  Er1       1.0  0.00000  0.69300  0.30700  1.0000
  Er  Er2       1.0  0.00000  0.30700  0.69300  1.0000
  O   O1        1.0  0.50000  0.00000  0.00000  1.0000
  O   O2        1.0  0.21800  0.38700  0.08560  1.0000
  O   O3        1.0  0.71700  0.38600  0.38600  1.0000
  O   O4        1.0  0.21800  0.08560  0.38700  1.0000
  O   O5        1.0  0.78200  0.91400  0.61300  1.0000
  O   O6        1.0  0.28300  0.61400  0.61400  1.0000
  O   O7        1.0  0.78200  0.61300  0.91400  1.0000
  Si  Si1       1.0  0.40800  0.21800  0.21800  1.0000
  Si  Si2       1.0  0.59200  0.78200  0.78200  1.0000
