data_image0
_chemical_formula_structural       Gd2O7Si2
_chemical_formula_sum              "Gd2 O7 Si2"
_cell_length_a       4.71563
_cell_length_b       5.70059
_cell_length_c       5.70059
_cell_angle_alpha    105.349
_cell_angle_beta     97.216
_cell_angle_gamma    97.216

_space_group_name_H-M_alt    "P 1"
_space_group_IT_number       1

loop_
  _space_group_symop_operation_xyz
  'x, y, z'

loop_
  _atom_site_type_symbol
  _atom_site_label
  _atom_site_symmetry_multiplicity
  _atom_site_fract_x
  _atom_site_fract_y
  _atom_site_fract_z
  _atom_site_occupancy
  Gd  Gd1       1.0  0.00000  0.69500  0.30500  1.0000
  Gd  Gd2       1.0  0.00000  0.30500  0.69500  1.0000
  O   O1        1.0  0.50000  0.00000  0.00000  1.0000
  O   O2        1.0  0.22300  0.38600  0.08780  1.0000
  O   O3        1.0  0.71500  0.38100  0.38100  1.0000
  O   O4        1.0  0.22300  0.08780  0.38600  1.0000
  O   O5        1.0  0.77700  0.91200  0.61400  1.0000
  O   O6        1.0  0.28500  0.61900  0.61900  1.0000
  O   O7        1.0  0.77700  0.61400  0.91200  1.0000
  Si  Si1       1.0  0.41300  0.21800  0.21800  1.0000
  Si  Si2       1.0  0.58700  0.78200  0.78200  1.0000
