data_image0
_chemical_formula_structural       Ho4O14Si4
_chemical_formula_sum              "Ho4 O14 Si4"
_cell_length_a       4.68953
_cell_length_b       5.53932
_cell_length_c       10.7776
_cell_angle_alpha    90
_cell_angle_beta     90
_cell_angle_gamma    96.0152

_space_group_name_H-M_alt    "P 1"
_space_group_IT_number       1

loop_
  _space_group_symop_operation_xyz
  'x, y, z'

loop_
  _atom_site_type_symbol
  _atom_site_label
  _atom_site_symmetry_multiplicity
  _atom_site_fract_x
  _atom_site_fract_y
  _atom_site_fract_z
  _atom_site_occupancy
  Ho  Ho1       1.0  0.88700  0.59300  0.15000  1.0000
  Ho  Ho2       1.0  0.88700  0.09310  0.35000  1.0000
  Ho  Ho3       1.0  0.11300  0.90700  0.65000  1.0000
  Ho  Ho4       1.0  0.11300  0.40700  0.85000  1.0000
  O   O1        1.0  0.50000  0.00000  0.00000  1.0000
  O   O2        1.0  0.20500  0.37000  0.05160  1.0000
  O   O3        1.0  0.12100  0.95800  0.18400  1.0000
  O   O4        1.0  0.61800  0.25400  0.20500  1.0000
  O   O5        1.0  0.61800  0.75400  0.29500  1.0000
  O   O6        1.0  0.12100  0.45800  0.31600  1.0000
  O   O7        1.0  0.20500  0.87000  0.44800  1.0000
  O   O8        1.0  0.50000  0.50000  0.50000  1.0000
  O   O9        1.0  0.79500  0.13000  0.55200  1.0000
  O   O10       1.0  0.87900  0.54200  0.68400  1.0000
  O   O11       1.0  0.38200  0.24600  0.70500  1.0000
  O   O12       1.0  0.38200  0.74600  0.79500  1.0000
  O   O13       1.0  0.87900  0.04180  0.81600  1.0000
  O   O14       1.0  0.79500  0.63000  0.94800  1.0000
  Si  Si1       1.0  0.35900  0.14500  0.11300  1.0000
  Si  Si2       1.0  0.35900  0.64500  0.38700  1.0000
  Si  Si3       1.0  0.64100  0.35500  0.61300  1.0000
  Si  Si4       1.0  0.64100  0.85500  0.88700  1.0000
