data_image0
_chemical_formula_structural       Ni3Pb2Se2
_chemical_formula_sum              "Ni3 Pb2 Se2"
_cell_length_a       5.82109
_cell_length_b       5.82109
_cell_length_c       5.82109
_cell_angle_alpha    58.4346
_cell_angle_beta     58.4346
_cell_angle_gamma    58.4346

_space_group_name_H-M_alt    "P 1"
_space_group_IT_number       1

loop_
  _space_group_symop_operation_xyz
  'x, y, z'

loop_
  _atom_site_type_symbol
  _atom_site_label
  _atom_site_symmetry_multiplicity
  _atom_site_fract_x
  _atom_site_fract_y
  _atom_site_fract_z
  _atom_site_occupancy
  Ni  Ni1       1.0  0.50000  0.50000  0.00000  1.0000
  Ni  Ni2       1.0  0.50000  0.00000  0.50000  1.0000
  Ni  Ni3       1.0  0.00000  0.50000  0.50000  1.0000
  Pb  Pb1       1.0  0.00000  0.00000  0.00000  1.0000
  Pb  Pb2       1.0  0.50000  0.50000  0.50000  1.0000
  Se  Se1       1.0  0.22100  0.22100  0.22100  1.0000
  Se  Se2       1.0  0.77900  0.77900  0.77900  1.0000
