data_image0
_chemical_formula_structural       O14Si4Tb4
_chemical_formula_sum              "O14 Si4 Tb4"
_cell_length_a       4.69117
_cell_length_b       5.57838
_cell_length_c       10.8739
_cell_angle_alpha    90
_cell_angle_beta     90
_cell_angle_gamma    95.8581

_space_group_name_H-M_alt    "P 1"
_space_group_IT_number       1

loop_
  _space_group_symop_operation_xyz
  'x, y, z'

loop_
  _atom_site_type_symbol
  _atom_site_label
  _atom_site_symmetry_multiplicity
  _atom_site_fract_x
  _atom_site_fract_y
  _atom_site_fract_z
  _atom_site_occupancy
  O   O1        1.0  0.50000  0.00000  0.00000  1.0000
  O   O2        1.0  0.20800  0.36900  0.05260  1.0000
  O   O3        1.0  0.12200  0.96000  0.18300  1.0000
  O   O4        1.0  0.61800  0.25200  0.20400  1.0000
  O   O5        1.0  0.61800  0.75200  0.29600  1.0000
  O   O6        1.0  0.12200  0.46000  0.31700  1.0000
  O   O7        1.0  0.20800  0.86900  0.44700  1.0000
  O   O8        1.0  0.50000  0.50000  0.50000  1.0000
  O   O9        1.0  0.79200  0.13100  0.55300  1.0000
  O   O10       1.0  0.87800  0.54000  0.68300  1.0000
  O   O11       1.0  0.38200  0.24800  0.70400  1.0000
  O   O12       1.0  0.38200  0.74800  0.79600  1.0000
  O   O13       1.0  0.87800  0.04040  0.81700  1.0000
  O   O14       1.0  0.79200  0.63100  0.94700  1.0000
  Si  Si1       1.0  0.36000  0.14400  0.11300  1.0000
  Si  Si2       1.0  0.36000  0.64400  0.38700  1.0000
  Si  Si3       1.0  0.64000  0.35600  0.61300  1.0000
  Si  Si4       1.0  0.64000  0.85600  0.88700  1.0000
  Tb  Tb1       1.0  0.88500  0.59500  0.14900  1.0000
  Tb  Tb2       1.0  0.88500  0.09490  0.35100  1.0000
  Tb  Tb3       1.0  0.11500  0.90500  0.64900  1.0000
  Tb  Tb4       1.0  0.11500  0.40500  0.85100  1.0000
