data_image0
_chemical_formula_structural       H28La4Mg8
_chemical_formula_sum              "H28 La4 Mg8"
_cell_length_a       6.26152
_cell_length_b       6.26152
_cell_length_c       9.402
_cell_angle_alpha    90
_cell_angle_beta     90
_cell_angle_gamma    90

_space_group_name_H-M_alt    "P 1"
_space_group_IT_number       1

loop_
  _space_group_symop_operation_xyz
  'x, y, z'

loop_
  _atom_site_type_symbol
  _atom_site_label
  _atom_site_symmetry_multiplicity
  _atom_site_fract_x
  _atom_site_fract_y
  _atom_site_fract_z
  _atom_site_occupancy
  H   H1        1.0  0.76200  0.76200  0.00000  1.0000
  H   H2        1.0  0.66300  0.19800  0.00351  1.0000
  H   H3        1.0  0.43200  0.93900  0.07320  1.0000
  H   H4        1.0  0.46800  0.54100  0.12000  1.0000
  H   H5        1.0  0.03230  0.04080  0.13000  1.0000
  H   H6        1.0  0.06780  0.43900  0.17700  1.0000
  H   H7        1.0  0.83700  0.69800  0.24600  1.0000
  H   H8        1.0  0.73800  0.26200  0.25000  1.0000
  H   H9        1.0  0.30200  0.16300  0.25400  1.0000
  H   H10       1.0  0.56100  0.93200  0.32300  1.0000
  H   H11       1.0  0.95900  0.96800  0.37000  1.0000
  H   H12       1.0  0.45900  0.53200  0.38000  1.0000
  H   H13       1.0  0.06140  0.56800  0.42700  1.0000
  H   H14       1.0  0.80200  0.33700  0.49600  1.0000
  H   H15       1.0  0.23800  0.23800  0.50000  1.0000
  H   H16       1.0  0.33700  0.80200  0.50400  1.0000
  H   H17       1.0  0.56800  0.06140  0.57300  1.0000
  H   H18       1.0  0.53200  0.45900  0.62000  1.0000
  H   H19       1.0  0.96800  0.95900  0.63000  1.0000
  H   H20       1.0  0.93200  0.56100  0.67700  1.0000
  H   H21       1.0  0.16300  0.30200  0.74600  1.0000
  H   H22       1.0  0.26200  0.73800  0.75000  1.0000
  H   H23       1.0  0.69800  0.83700  0.75400  1.0000
  H   H24       1.0  0.43900  0.06780  0.82300  1.0000
  H   H25       1.0  0.04080  0.03230  0.87000  1.0000
  H   H26       1.0  0.54100  0.46800  0.88000  1.0000
  H   H27       1.0  0.93900  0.43200  0.92700  1.0000
  H   H28       1.0  0.19800  0.66300  0.99600  1.0000
  La  La1       1.0  0.27200  0.27200  0.00000  1.0000
  La  La2       1.0  0.22800  0.77200  0.25000  1.0000
  La  La3       1.0  0.72800  0.72800  0.50000  1.0000
  La  La4       1.0  0.77200  0.22800  0.75000  1.0000
  Mg  Mg1       1.0  0.76300  0.47700  0.09970  1.0000
  Mg  Mg2       1.0  0.73700  0.97700  0.15000  1.0000
  Mg  Mg3       1.0  0.02250  0.26300  0.35000  1.0000
  Mg  Mg4       1.0  0.52300  0.23700  0.40000  1.0000
  Mg  Mg5       1.0  0.23700  0.52300  0.60000  1.0000
  Mg  Mg6       1.0  0.26300  0.02250  0.65000  1.0000
  Mg  Mg7       1.0  0.97700  0.73700  0.85000  1.0000
  Mg  Mg8       1.0  0.47700  0.76300  0.90000  1.0000
