data_image0
_chemical_formula_structural       La2O7Si2
_chemical_formula_sum              "La2 O7 Si2"
_cell_length_a       4.74735
_cell_length_b       5.90731
_cell_length_c       5.90731
_cell_angle_alpha    104.41
_cell_angle_beta     96.4236
_cell_angle_gamma    96.4236

_space_group_name_H-M_alt    "P 1"
_space_group_IT_number       1

loop_
  _space_group_symop_operation_xyz
  'x, y, z'

loop_
  _atom_site_type_symbol
  _atom_site_label
  _atom_site_symmetry_multiplicity
  _atom_site_fract_x
  _atom_site_fract_y
  _atom_site_fract_z
  _atom_site_occupancy
  La  La1       1.0  0.00000  0.70100  0.29900  1.0000
  La  La2       1.0  0.00000  0.29900  0.70100  1.0000
  O   O1        1.0  0.50000  0.00000  0.00000  1.0000
  O   O2        1.0  0.24000  0.38400  0.09370  1.0000
  O   O3        1.0  0.72400  0.36700  0.36700  1.0000
  O   O4        1.0  0.24000  0.09370  0.38400  1.0000
  O   O5        1.0  0.76000  0.90600  0.61600  1.0000
  O   O6        1.0  0.27600  0.63300  0.63300  1.0000
  O   O7        1.0  0.76000  0.61600  0.90600  1.0000
  Si  Si1       1.0  0.42500  0.21500  0.21500  1.0000
  Si  Si2       1.0  0.57500  0.78500  0.78500  1.0000
