data_image0
_chemical_formula_structural       O20Pr8Si4
_chemical_formula_sum              "O20 Pr8 Si4"
_cell_length_a       9.31436
_cell_length_b       7.18011
_cell_length_c       6.94835
_cell_angle_alpha    90
_cell_angle_beta     107.907
_cell_angle_gamma    90

_space_group_name_H-M_alt    "P 1"
_space_group_IT_number       1

loop_
  _space_group_symop_operation_xyz
  'x, y, z'

loop_
  _atom_site_type_symbol
  _atom_site_label
  _atom_site_symmetry_multiplicity
  _atom_site_fract_x
  _atom_site_fract_y
  _atom_site_fract_z
  _atom_site_occupancy
  O   O1        1.0  0.38300  0.86100  0.00620  1.0000
  O   O2        1.0  0.38100  0.37700  0.04400  1.0000
  O   O3        1.0  0.90500  0.26900  0.06620  1.0000
  O   O4        1.0  0.20100  0.06320  0.13300  1.0000
  O   O5        1.0  0.14000  0.46200  0.25000  1.0000
  O   O6        1.0  0.86000  0.96200  0.25000  1.0000
  O   O7        1.0  0.79900  0.56300  0.36700  1.0000
  O   O8        1.0  0.09480  0.76900  0.43400  1.0000
  O   O9        1.0  0.61900  0.87700  0.45600  1.0000
  O   O10       1.0  0.61700  0.36100  0.49400  1.0000
  O   O11       1.0  0.38300  0.63900  0.50600  1.0000
  O   O12       1.0  0.38100  0.12300  0.54400  1.0000
  O   O13       1.0  0.90500  0.23100  0.56600  1.0000
  O   O14       1.0  0.20100  0.43700  0.63300  1.0000
  O   O15       1.0  0.14000  0.03830  0.75000  1.0000
  O   O16       1.0  0.86000  0.53800  0.75000  1.0000
  O   O17       1.0  0.79900  0.93700  0.86700  1.0000
  O   O18       1.0  0.09480  0.73100  0.93400  1.0000
  O   O19       1.0  0.61900  0.62300  0.95600  1.0000
  O   O20       1.0  0.61700  0.13900  0.99400  1.0000
  Pr  Pr1       1.0  0.89000  0.64900  0.09270  1.0000
  Pr  Pr2       1.0  0.52500  0.62100  0.23700  1.0000
  Pr  Pr3       1.0  0.47500  0.12100  0.26300  1.0000
  Pr  Pr4       1.0  0.11000  0.14900  0.40700  1.0000
  Pr  Pr5       1.0  0.89000  0.85100  0.59300  1.0000
  Pr  Pr6       1.0  0.52500  0.87900  0.73700  1.0000
  Pr  Pr7       1.0  0.47500  0.37900  0.76300  1.0000
  Pr  Pr8       1.0  0.11000  0.35100  0.90700  1.0000
  Si  Si1       1.0  0.79700  0.08900  0.04590  1.0000
  Si  Si2       1.0  0.20300  0.58900  0.45400  1.0000
  Si  Si3       1.0  0.79700  0.41100  0.54600  1.0000
  Si  Si4       1.0  0.20300  0.91100  0.95400  1.0000
