data_image0
_chemical_formula_structural       Eu2O7Si2
_chemical_formula_sum              "Eu2 O7 Si2"
_cell_length_a       4.77787
_cell_length_b       5.78521
_cell_length_c       5.78521
_cell_angle_alpha    103.274
_cell_angle_beta     96.1456
_cell_angle_gamma    96.1456

_space_group_name_H-M_alt    "P 1"
_space_group_IT_number       1

loop_
  _space_group_symop_operation_xyz
  'x, y, z'

loop_
  _atom_site_type_symbol
  _atom_site_label
  _atom_site_symmetry_multiplicity
  _atom_site_fract_x
  _atom_site_fract_y
  _atom_site_fract_z
  _atom_site_occupancy
  Eu  Eu1       1.0  0.00000  0.70400  0.29600  1.0000
  Eu  Eu2       1.0  0.00000  0.29600  0.70400  1.0000
  O   O1        1.0  0.50000  0.00000  0.00000  1.0000
  O   O2        1.0  0.25000  0.39200  0.09940  1.0000
  O   O3        1.0  0.73400  0.36200  0.36200  1.0000
  O   O4        1.0  0.25000  0.09940  0.39200  1.0000
  O   O5        1.0  0.75000  0.90100  0.60800  1.0000
  O   O6        1.0  0.26600  0.63800  0.63800  1.0000
  O   O7        1.0  0.75000  0.60800  0.90100  1.0000
  Si  Si1       1.0  0.43500  0.21800  0.21800  1.0000
  Si  Si2       1.0  0.56500  0.78200  0.78200  1.0000
