data_image0
_chemical_formula_structural       O7Pm2Si2
_chemical_formula_sum              "O7 Pm2 Si2"
_cell_length_a       4.73945
_cell_length_b       5.80165
_cell_length_c       5.80165
_cell_angle_alpha    105.134
_cell_angle_beta     96.7664
_cell_angle_gamma    96.7664

_space_group_name_H-M_alt    "P 1"
_space_group_IT_number       1

loop_
  _space_group_symop_operation_xyz
  'x, y, z'

loop_
  _atom_site_type_symbol
  _atom_site_label
  _atom_site_symmetry_multiplicity
  _atom_site_fract_x
  _atom_site_fract_y
  _atom_site_fract_z
  _atom_site_occupancy
  O   O1        1.0  0.50000  0.00000  0.00000  1.0000
  O   O2        1.0  0.22900  0.38400  0.09120  1.0000
  O   O3        1.0  0.71500  0.37500  0.37500  1.0000
  O   O4        1.0  0.22900  0.09120  0.38400  1.0000
  O   O5        1.0  0.77100  0.90900  0.61600  1.0000
  O   O6        1.0  0.28500  0.62500  0.62500  1.0000
  O   O7        1.0  0.77100  0.61600  0.90900  1.0000
  Pm  Pm1       1.0  0.00000  0.69700  0.30300  1.0000
  Pm  Pm2       1.0  0.00000  0.30300  0.69700  1.0000
  Si  Si1       1.0  0.41700  0.21700  0.21700  1.0000
  Si  Si2       1.0  0.58300  0.78300  0.78300  1.0000
