data_image0
_chemical_formula_structural       O7Si2Sm2
_chemical_formula_sum              "O7 Si2 Sm2"
_cell_length_a       4.73504
_cell_length_b       5.77531
_cell_length_c       5.77531
_cell_angle_alpha    105.14
_cell_angle_beta     96.8204
_cell_angle_gamma    96.8204

_space_group_name_H-M_alt    "P 1"
_space_group_IT_number       1

loop_
  _space_group_symop_operation_xyz
  'x, y, z'

loop_
  _atom_site_type_symbol
  _atom_site_label
  _atom_site_symmetry_multiplicity
  _atom_site_fract_x
  _atom_site_fract_y
  _atom_site_fract_z
  _atom_site_occupancy
  O   O1        1.0  0.50000  0.00000  0.00000  1.0000
  O   O2        1.0  0.22800  0.38500  0.09040  1.0000
  O   O3        1.0  0.71500  0.37700  0.37700  1.0000
  O   O4        1.0  0.22800  0.09040  0.38500  1.0000
  O   O5        1.0  0.77200  0.91000  0.61500  1.0000
  O   O6        1.0  0.28500  0.62300  0.62300  1.0000
  O   O7        1.0  0.77200  0.61500  0.91000  1.0000
  Si  Si1       1.0  0.41600  0.21700  0.21700  1.0000
  Si  Si2       1.0  0.58400  0.78300  0.78300  1.0000
  Sm  Sm1       1.0  0.00000  0.69700  0.30300  1.0000
  Sm  Sm2       1.0  0.00000  0.30300  0.69700  1.0000
