data_image0
_chemical_formula_structural       B3C2Y2
_chemical_formula_sum              "B3 C2 Y2"
_cell_length_a       3.39148
_cell_length_b       3.65188
_cell_length_c       7.06743
_cell_angle_alpha    90
_cell_angle_beta     76.1172
_cell_angle_gamma    90

_space_group_name_H-M_alt    "P 1"
_space_group_IT_number       1

loop_
  _space_group_symop_operation_xyz
  'x, y, z'

loop_
  _atom_site_type_symbol
  _atom_site_label
  _atom_site_symmetry_multiplicity
  _atom_site_fract_x
  _atom_site_fract_y
  _atom_site_fract_z
  _atom_site_occupancy
  B   B1        1.0  0.00000  0.00000  0.00000  1.0000
  B   B2        1.0  0.78300  0.00000  0.43500  1.0000
  B   B3        1.0  0.21700  0.00000  0.56500  1.0000
  C   C1        1.0  0.89500  0.00000  0.21000  1.0000
  C   C2        1.0  0.10500  0.00000  0.79000  1.0000
  Y   Y1        1.0  0.36400  0.50000  0.27200  1.0000
  Y   Y2        1.0  0.63600  0.50000  0.72800  1.0000
