data_image0
_chemical_formula_structural       Ga2Th4
_chemical_formula_sum              "Ga2 Th4"
_cell_length_a       5.8646
_cell_length_b       6.07166
_cell_length_c       6.07166
_cell_angle_alpha    103.488
_cell_angle_beta     61.1218
_cell_angle_gamma    118.878

_space_group_name_H-M_alt    "P 1"
_space_group_IT_number       1

loop_
  _space_group_symop_operation_xyz
  'x, y, z'

loop_
  _atom_site_type_symbol
  _atom_site_label
  _atom_site_symmetry_multiplicity
  _atom_site_fract_x
  _atom_site_fract_y
  _atom_site_fract_z
  _atom_site_occupancy
  Ga  Ga1       1.0  0.25000  0.00000  0.00000  1.0000
  Ga  Ga2       1.0  0.75000  0.00000  0.00000  1.0000
  Th  Th1       1.0  0.15900  0.50000  0.18300  1.0000
  Th  Th2       1.0  0.65900  0.81700  0.50000  1.0000
  Th  Th3       1.0  0.34100  0.18300  0.50000  1.0000
  Th  Th4       1.0  0.84100  0.50000  0.81700  1.0000
