data_image0
_chemical_formula_structural       Ga2N2O2Sn2
_chemical_formula_sum              "Ga2 N2 O2 Sn2"
_cell_length_a       3.24449
_cell_length_b       5.21642
_cell_length_c       7.26508
_cell_angle_alpha    90
_cell_angle_beta     90
_cell_angle_gamma    90

_space_group_name_H-M_alt    "P 1"
_space_group_IT_number       1

loop_
  _space_group_symop_operation_xyz
  'x, y, z'

loop_
  _atom_site_type_symbol
  _atom_site_label
  _atom_site_symmetry_multiplicity
  _atom_site_fract_x
  _atom_site_fract_y
  _atom_site_fract_z
  _atom_site_occupancy
  Ga  Ga1       1.0  0.00000  0.51100  0.39800  1.0000
  Ga  Ga2       1.0  1.00000  0.01130  0.60200  1.0000
  N   N1        1.0  1.00000  0.87400  0.35400  1.0000
  N   N2        1.0  1.00000  0.37400  0.64600  1.0000
  O   O1        1.0  0.50000  0.37300  0.29900  1.0000
  O   O2        1.0  0.50000  0.87300  0.70100  1.0000
  Sn  Sn1       1.0  0.50000  0.99500  0.16900  1.0000
  Sn  Sn2       1.0  0.50000  0.49500  0.83100  1.0000
