data_image0
_chemical_formula_structural       Cu4Ti3
_chemical_formula_sum              "Cu4 Ti3"
_cell_length_a       3.12471
_cell_length_b       3.12471
_cell_length_c       10.157
_cell_angle_alpha    98.8484
_cell_angle_beta     98.8484
_cell_angle_gamma    90

_space_group_name_H-M_alt    "P 1"
_space_group_IT_number       1

loop_
  _space_group_symop_operation_xyz
  'x, y, z'

loop_
  _atom_site_type_symbol
  _atom_site_label
  _atom_site_symmetry_multiplicity
  _atom_site_fract_x
  _atom_site_fract_y
  _atom_site_fract_z
  _atom_site_occupancy
  Cu  Cu1       1.0  0.57000  0.57000  0.14000  1.0000
  Cu  Cu2       1.0  0.13500  0.13500  0.26900  1.0000
  Cu  Cu3       1.0  0.86500  0.86500  0.73100  1.0000
  Cu  Cu4       1.0  0.43000  0.43000  0.86000  1.0000
  Ti  Ti1       1.0  0.00000  0.00000  0.00000  1.0000
  Ti  Ti2       1.0  0.70800  0.70800  0.41600  1.0000
  Ti  Ti3       1.0  0.29200  0.29200  0.58400  1.0000
