data_image0
_chemical_formula_structural       Rb2Te5
_chemical_formula_sum              "Rb2 Te5"
_cell_length_a       5.91508
_cell_length_b       7.49999
_cell_length_c       7.49999
_cell_angle_alpha    102.689
_cell_angle_beta     111.744
_cell_angle_gamma    68.2561

_space_group_name_H-M_alt    "P 1"
_space_group_IT_number       1

loop_
  _space_group_symop_operation_xyz
  'x, y, z'

loop_
  _atom_site_type_symbol
  _atom_site_label
  _atom_site_symmetry_multiplicity
  _atom_site_fract_x
  _atom_site_fract_y
  _atom_site_fract_z
  _atom_site_occupancy
  Rb  Rb1       1.0  0.64300  0.68400  0.31600  1.0000
  Rb  Rb2       1.0  0.35700  0.31600  0.68400  1.0000
  Te  Te1       1.0  0.00000  0.00000  0.00000  1.0000
  Te  Te2       1.0  0.23400  0.33000  0.14400  1.0000
  Te  Te3       1.0  0.76600  0.14400  0.33000  1.0000
  Te  Te4       1.0  0.23400  0.85600  0.67000  1.0000
  Te  Te5       1.0  0.76600  0.67000  0.85600  1.0000
