data_image0
_chemical_formula_structural       Ge2N2Nb2O2
_chemical_formula_sum              "Ge2 N2 Nb2 O2"
_cell_length_a       3.3193
_cell_length_b       3.3193
_cell_length_c       8.48979
_cell_angle_alpha    89.9996
_cell_angle_beta     89.9996
_cell_angle_gamma    89.9994

_space_group_name_H-M_alt    "P 1"
_space_group_IT_number       1

loop_
  _space_group_symop_operation_xyz
  'x, y, z'

loop_
  _atom_site_type_symbol
  _atom_site_label
  _atom_site_symmetry_multiplicity
  _atom_site_fract_x
  _atom_site_fract_y
  _atom_site_fract_z
  _atom_site_occupancy
  Ge  Ge1       1.0  0.75000  0.25000  0.50000  1.0000
  Ge  Ge2       1.0  0.25000  0.75000  0.50000  1.0000
  N   N1        1.0  0.75000  0.75000  0.24400  1.0000
  N   N2        1.0  0.25000  0.25000  0.75600  1.0000
  Nb  Nb1       1.0  0.25000  0.25000  0.15900  1.0000
  Nb  Nb2       1.0  0.75000  0.75000  0.84100  1.0000
  O   O1        1.0  0.75000  0.25000  0.00000  1.0000
  O   O2        1.0  0.25000  0.75000  0.00000  1.0000
