data_image0
_chemical_formula_structural       In3Te4
_chemical_formula_sum              "In3 Te4"
_cell_length_a       4.32046
_cell_length_b       4.32046
_cell_length_c       13.9626
_cell_angle_alpha    98.9003
_cell_angle_beta     81.0997
_cell_angle_gamma    120

_space_group_name_H-M_alt    "P 1"
_space_group_IT_number       1

loop_
  _space_group_symop_operation_xyz
  'x, y, z'

loop_
  _atom_site_type_symbol
  _atom_site_label
  _atom_site_symmetry_multiplicity
  _atom_site_fract_x
  _atom_site_fract_y
  _atom_site_fract_z
  _atom_site_occupancy
  In  In1       1.0  0.00000  0.00000  0.00000  1.0000
  In  In2       1.0  0.57400  0.42600  0.27900  1.0000
  In  In3       1.0  0.42600  0.57400  0.72100  1.0000
  Te  Te1       1.0  0.29100  0.70900  0.12800  1.0000
  Te  Te2       1.0  0.87100  0.12900  0.38700  1.0000
  Te  Te3       1.0  0.12900  0.87100  0.61300  1.0000
  Te  Te4       1.0  0.70900  0.29100  0.87200  1.0000
