data_image0
_chemical_formula_structural       K4P2Zn
_chemical_formula_sum              "K4 P2 Zn1"
_cell_length_a       5.66234
_cell_length_b       5.66234
_cell_length_c       9.27236
_cell_angle_alpha    72.2217
_cell_angle_beta     107.778
_cell_angle_gamma    120

_space_group_name_H-M_alt    "P 1"
_space_group_IT_number       1

loop_
  _space_group_symop_operation_xyz
  'x, y, z'

loop_
  _atom_site_type_symbol
  _atom_site_label
  _atom_site_symmetry_multiplicity
  _atom_site_fract_x
  _atom_site_fract_y
  _atom_site_fract_z
  _atom_site_occupancy
  K   K1        1.0  0.38700  0.61300  0.16000  1.0000
  K   K2        1.0  0.79100  0.20900  0.37400  1.0000
  K   K3        1.0  0.20900  0.79100  0.62600  1.0000
  K   K4        1.0  0.61300  0.38700  0.84000  1.0000
  P   P1        1.0  0.08520  0.91500  0.25600  1.0000
  P   P2        1.0  0.91500  0.08520  0.74400  1.0000
  Zn  Zn1       1.0  0.00000  0.00000  0.00000  1.0000
