data_image0
_chemical_formula_structural       Ba4H20Mg6
_chemical_formula_sum              "Ba4 H20 Mg6"
_cell_length_a       5.78616
_cell_length_b       7.76018
_cell_length_c       9.32844
_cell_angle_alpha    110.776
_cell_angle_beta     108.067
_cell_angle_gamma    90

_space_group_name_H-M_alt    "P 1"
_space_group_IT_number       1

loop_
  _space_group_symop_operation_xyz
  'x, y, z'

loop_
  _atom_site_type_symbol
  _atom_site_label
  _atom_site_symmetry_multiplicity
  _atom_site_fract_x
  _atom_site_fract_y
  _atom_site_fract_z
  _atom_site_occupancy
  Ba  Ba1       1.0  0.61500  0.72300  0.22900  1.0000
  Ba  Ba2       1.0  0.71500  0.30500  0.43100  1.0000
  Ba  Ba3       1.0  0.28500  0.69500  0.56900  1.0000
  Ba  Ba4       1.0  0.38500  0.27700  0.77100  1.0000
  H   H1        1.0  0.22100  0.50000  0.00000  1.0000
  H   H2        1.0  0.77900  0.50000  0.00000  1.0000
  H   H3        1.0  0.02230  0.17600  0.04450  1.0000
  H   H4        1.0  0.52500  0.18600  0.04910  1.0000
  H   H5        1.0  0.37400  0.01690  0.22000  1.0000
  H   H6        1.0  0.84600  0.01690  0.22000  1.0000
  H   H7        1.0  0.13400  0.74300  0.26800  1.0000
  H   H8        1.0  0.38800  0.48500  0.30200  1.0000
  H   H9        1.0  0.91300  0.48500  0.30200  1.0000
  H   H10       1.0  0.23200  0.27700  0.46400  1.0000
  H   H11       1.0  0.00000  0.00000  0.50000  1.0000
  H   H12       1.0  0.50000  0.00000  0.50000  1.0000
  H   H13       1.0  0.76800  0.72300  0.53600  1.0000
  H   H14       1.0  0.08660  0.51500  0.69800  1.0000
  H   H15       1.0  0.61200  0.51500  0.69800  1.0000
  H   H16       1.0  0.86600  0.25700  0.73200  1.0000
  H   H17       1.0  0.15400  0.98300  0.78000  1.0000
  H   H18       1.0  0.62600  0.98300  0.78000  1.0000
  H   H19       1.0  0.47500  0.81400  0.95100  1.0000
  H   H20       1.0  0.97800  0.82400  0.95500  1.0000
  Mg  Mg1       1.0  0.25500  0.00000  0.00000  1.0000
  Mg  Mg2       1.0  0.74500  0.00000  0.00000  1.0000
  Mg  Mg3       1.0  0.07320  0.44400  0.14600  1.0000
  Mg  Mg4       1.0  0.17300  0.01250  0.34500  1.0000
  Mg  Mg5       1.0  0.82700  0.98800  0.65500  1.0000
  Mg  Mg6       1.0  0.92700  0.55600  0.85400  1.0000
