data_image0
_chemical_formula_structural       H26Li2Mg8Os4
_chemical_formula_sum              "H26 Li2 Mg8 Os4"
_cell_length_a       4.65618
_cell_length_b       4.6562
_cell_length_c       18.2223
_cell_angle_alpha    90
_cell_angle_beta     90
_cell_angle_gamma    120

_space_group_name_H-M_alt    "P 1"
_space_group_IT_number       1

loop_
  _space_group_symop_operation_xyz
  'x, y, z'

loop_
  _atom_site_type_symbol
  _atom_site_label
  _atom_site_symmetry_multiplicity
  _atom_site_fract_x
  _atom_site_fract_y
  _atom_site_fract_z
  _atom_site_occupancy
  H   H1        1.0  0.16200  0.32400  0.05050  1.0000
  H   H2        1.0  0.16200  0.83800  0.05050  1.0000
  H   H3        1.0  0.67500  0.83800  0.05050  1.0000
  H   H4        1.0  0.50200  0.00332  0.16100  1.0000
  H   H5        1.0  0.99700  0.49800  0.16100  1.0000
  H   H6        1.0  0.50200  0.49800  0.16100  1.0000
  H   H7        1.0  0.00000  0.00000  0.25000  1.0000
  H   H8        1.0  0.99700  0.49800  0.33900  1.0000
  H   H9        1.0  0.50200  0.49800  0.33900  1.0000
  H   H10       1.0  0.50200  0.00332  0.33900  1.0000
  H   H11       1.0  0.16200  0.83800  0.45000  1.0000
  H   H12       1.0  0.67500  0.83800  0.45000  1.0000
  H   H13       1.0  0.16200  0.32400  0.45000  1.0000
  H   H14       1.0  0.83800  0.67600  0.55000  1.0000
  H   H15       1.0  0.32500  0.16200  0.55000  1.0000
  H   H16       1.0  0.83800  0.16200  0.55000  1.0000
  H   H17       1.0  0.49800  0.99700  0.66100  1.0000
  H   H18       1.0  0.00338  0.50200  0.66100  1.0000
  H   H19       1.0  0.49800  0.50200  0.66100  1.0000
  H   H20       1.0  0.00000  0.00000  0.75000  1.0000
  H   H21       1.0  0.00338  0.50200  0.83900  1.0000
  H   H22       1.0  0.49800  0.50200  0.83900  1.0000
  H   H23       1.0  0.49800  0.99700  0.83900  1.0000
  H   H24       1.0  0.32500  0.16200  0.95000  1.0000
  H   H25       1.0  0.83800  0.16200  0.95000  1.0000
  H   H26       1.0  0.83800  0.67600  0.95000  1.0000
  Li  Li1       1.0  0.33300  0.66700  0.25000  1.0000
  Li  Li2       1.0  0.66700  0.33300  0.75000  1.0000
  Mg  Mg1       1.0  0.66700  0.33300  0.05240  1.0000
  Mg  Mg2       1.0  0.00000  0.00000  0.14900  1.0000
  Mg  Mg3       1.0  0.00000  0.00000  0.35100  1.0000
  Mg  Mg4       1.0  0.66700  0.33300  0.44800  1.0000
  Mg  Mg5       1.0  0.33300  0.66700  0.55200  1.0000
  Mg  Mg6       1.0  0.00000  0.00001  0.64900  1.0000
  Mg  Mg7       1.0  0.00000  0.00001  0.85100  1.0000
  Mg  Mg8       1.0  0.33300  0.66700  0.94800  1.0000
  Os  Os1       1.0  0.33300  0.66700  0.10500  1.0000
  Os  Os2       1.0  0.33300  0.66700  0.39500  1.0000
  Os  Os3       1.0  0.66700  0.33300  0.60500  1.0000
  Os  Os4       1.0  0.66700  0.33300  0.89500  1.0000
