data_image0
_chemical_formula_structural       H4K2Pd
_chemical_formula_sum              "H4 K2 Pd1"
_cell_length_a       5.55994
_cell_length_b       5.55994
_cell_length_c       5.55994
_cell_angle_alpha    94.7097
_cell_angle_beta     117.319
_cell_angle_gamma    117.319

_space_group_name_H-M_alt    "P 1"
_space_group_IT_number       1

loop_
  _space_group_symop_operation_xyz
  'x, y, z'

loop_
  _atom_site_type_symbol
  _atom_site_label
  _atom_site_symmetry_multiplicity
  _atom_site_fract_x
  _atom_site_fract_y
  _atom_site_fract_z
  _atom_site_occupancy
  H   H1        1.0  0.40600  0.20300  0.20300  1.0000
  H   H2        1.0  0.00000  0.79700  0.20300  1.0000
  H   H3        1.0  1.00000  0.20300  0.79700  1.0000
  H   H4        1.0  0.59400  0.79700  0.79700  1.0000
  K   K1        1.0  0.50000  0.75000  0.25000  1.0000
  K   K2        1.0  0.50000  0.25000  0.75000  1.0000
  Pd  Pd1       1.0  0.00000  0.00000  0.00000  1.0000
