data_image0
_chemical_formula_structural       B48C2Mg4
_chemical_formula_sum              "B48 C2 Mg4"
_cell_length_a       8.963
_cell_length_b       8.963
_cell_length_c       5.08758
_cell_angle_alpha    90
_cell_angle_beta     90
_cell_angle_gamma    90

_space_group_name_H-M_alt    "P 1"
_space_group_IT_number       1

loop_
  _space_group_symop_operation_xyz
  'x, y, z'

loop_
  _atom_site_type_symbol
  _atom_site_label
  _atom_site_symmetry_multiplicity
  _atom_site_fract_x
  _atom_site_fract_y
  _atom_site_fract_z
  _atom_site_occupancy
  B   B1        1.0  0.59800  0.19400  0.08300  1.0000
  B   B2        1.0  0.40200  0.80600  0.08300  1.0000
  B   B3        1.0  0.92200  0.24100  0.08470  1.0000
  B   B4        1.0  0.07770  0.75900  0.08470  1.0000
  B   B5        1.0  0.26500  0.24900  0.08500  1.0000
  B   B6        1.0  0.73500  0.75100  0.08500  1.0000
  B   B7        1.0  0.76900  0.09280  0.08760  1.0000
  B   B8        1.0  0.23100  0.90700  0.08760  1.0000
  B   B9        1.0  0.82500  0.42100  0.09860  1.0000
  B   B10       1.0  0.17500  0.57900  0.09860  1.0000
  B   B11       1.0  0.62800  0.38400  0.12400  1.0000
  B   B12       1.0  0.37200  0.61600  0.12400  1.0000
  B   B13       1.0  0.88400  0.12800  0.37600  1.0000
  B   B14       1.0  0.11600  0.87200  0.37600  1.0000
  B   B15       1.0  0.92100  0.32500  0.40100  1.0000
  B   B16       1.0  0.07940  0.67500  0.40100  1.0000
  B   B17       1.0  0.59300  0.26900  0.41200  1.0000
  B   B18       1.0  0.40700  0.73100  0.41200  1.0000
  B   B19       1.0  0.25100  0.23500  0.41500  1.0000
  B   B20       1.0  0.74900  0.76500  0.41500  1.0000
  B   B21       1.0  0.74100  0.42200  0.41500  1.0000
  B   B22       1.0  0.25900  0.57800  0.41500  1.0000
  B   B23       1.0  0.69400  0.09840  0.41700  1.0000
  B   B24       1.0  0.30600  0.90200  0.41700  1.0000
  B   B25       1.0  0.09840  0.30600  0.58300  1.0000
  B   B26       1.0  0.90200  0.69400  0.58300  1.0000
  B   B27       1.0  0.42200  0.25900  0.58500  1.0000
  B   B28       1.0  0.57800  0.74100  0.58500  1.0000
  B   B29       1.0  0.76500  0.25100  0.58500  1.0000
  B   B30       1.0  0.23500  0.74900  0.58500  1.0000
  B   B31       1.0  0.26900  0.40700  0.58800  1.0000
  B   B32       1.0  0.73100  0.59300  0.58800  1.0000
  B   B33       1.0  0.32500  0.07940  0.59900  1.0000
  B   B34       1.0  0.67500  0.92100  0.59900  1.0000
  B   B35       1.0  0.12800  0.11600  0.62400  1.0000
  B   B36       1.0  0.87200  0.88400  0.62400  1.0000
  B   B37       1.0  0.38400  0.37200  0.87600  1.0000
  B   B38       1.0  0.61600  0.62800  0.87600  1.0000
  B   B39       1.0  0.42100  0.17500  0.90100  1.0000
  B   B40       1.0  0.57900  0.82500  0.90100  1.0000
  B   B41       1.0  0.09280  0.23100  0.91200  1.0000
  B   B42       1.0  0.90700  0.76900  0.91200  1.0000
  B   B43       1.0  0.75100  0.26500  0.91500  1.0000
  B   B44       1.0  0.24900  0.73500  0.91500  1.0000
  B   B45       1.0  0.24100  0.07770  0.91500  1.0000
  B   B46       1.0  0.75900  0.92200  0.91500  1.0000
  B   B47       1.0  0.19400  0.40200  0.91700  1.0000
  B   B48       1.0  0.80600  0.59800  0.91700  1.0000
  C   C1        1.0  0.50000  0.50000  0.00000  1.0000
  C   C2        1.0  0.00000  0.00000  0.50000  1.0000
  Mg  Mg1       1.0  0.00000  0.00000  0.00000  1.0000
  Mg  Mg2       1.0  0.50000  0.00000  0.25000  1.0000
  Mg  Mg3       1.0  0.50000  0.50000  0.50000  1.0000
  Mg  Mg4       1.0  0.00000  0.50000  0.75000  1.0000
