data_image0
_chemical_formula_structural       Al2Ca3Si2
_chemical_formula_sum              "Al2 Ca3 Si2"
_cell_length_a       4.08289
_cell_length_b       4.53283
_cell_length_c       9.75056
_cell_angle_alpha    103.441
_cell_angle_beta     102.085
_cell_angle_gamma    90

_space_group_name_H-M_alt    "P 1"
_space_group_IT_number       1

loop_
  _space_group_symop_operation_xyz
  'x, y, z'

loop_
  _atom_site_type_symbol
  _atom_site_label
  _atom_site_symmetry_multiplicity
  _atom_site_fract_x
  _atom_site_fract_y
  _atom_site_fract_z
  _atom_site_occupancy
  Al  Al1       1.0  0.06860  0.56900  0.13700  1.0000
  Al  Al2       1.0  0.93100  0.43100  0.86300  1.0000
  Ca  Ca1       1.0  0.50000  0.00000  0.00000  1.0000
  Ca  Ca2       1.0  0.18600  0.18600  0.37200  1.0000
  Ca  Ca3       1.0  0.81400  0.81400  0.62800  1.0000
  Si  Si1       1.0  0.64400  0.64400  0.28900  1.0000
  Si  Si2       1.0  0.35600  0.35600  0.71100  1.0000
