data_image0
_chemical_formula_structural       Ce4H4O16Si4
_chemical_formula_sum              "Ce4 H4 O16 Si4"
_cell_length_a       7.15636
_cell_length_b       6.90637
_cell_length_c       6.98279
_cell_angle_alpha    90
_cell_angle_beta     103.68
_cell_angle_gamma    90

_space_group_name_H-M_alt    "P 1"
_space_group_IT_number       1

loop_
  _space_group_symop_operation_xyz
  'x, y, z'

loop_
  _atom_site_type_symbol
  _atom_site_label
  _atom_site_symmetry_multiplicity
  _atom_site_fract_x
  _atom_site_fract_y
  _atom_site_fract_z
  _atom_site_occupancy
  Ce  Ce1       1.0  0.14700  0.64400  0.18000  1.0000
  Ce  Ce2       1.0  0.85300  0.14400  0.32000  1.0000
  Ce  Ce3       1.0  0.14700  0.85600  0.68000  1.0000
  Ce  Ce4       1.0  0.85300  0.35600  0.82000  1.0000
  H   H1        1.0  0.49500  0.79200  0.12100  1.0000
  H   H2        1.0  0.50500  0.29200  0.37900  1.0000
  H   H3        1.0  0.49500  0.70800  0.62100  1.0000
  H   H4        1.0  0.50500  0.20800  0.87900  1.0000
  O   O1        1.0  0.27800  0.95000  0.01290  1.0000
  O   O2        1.0  0.11100  0.27200  0.13400  1.0000
  O   O3        1.0  0.80700  0.46400  0.14600  1.0000
  O   O4        1.0  0.51300  0.68600  0.22000  1.0000
  O   O5        1.0  0.48700  0.18600  0.28000  1.0000
  O   O6        1.0  0.19300  0.96400  0.35400  1.0000
  O   O7        1.0  0.88900  0.77200  0.36600  1.0000
  O   O8        1.0  0.72200  0.45000  0.48700  1.0000
  O   O9        1.0  0.27800  0.55000  0.51300  1.0000
  O   O10       1.0  0.11100  0.22800  0.63400  1.0000
  O   O11       1.0  0.80700  0.03610  0.64600  1.0000
  O   O12       1.0  0.51300  0.81400  0.72000  1.0000
  O   O13       1.0  0.48700  0.31400  0.78000  1.0000
  O   O14       1.0  0.19300  0.53600  0.85400  1.0000
  O   O15       1.0  0.88900  0.72800  0.86600  1.0000
  O   O16       1.0  0.72200  0.04990  0.98700  1.0000
  Si  Si1       1.0  0.26600  0.09690  0.19200  1.0000
  Si  Si2       1.0  0.73400  0.59700  0.30800  1.0000
  Si  Si3       1.0  0.26600  0.40300  0.69200  1.0000
  Si  Si4       1.0  0.73400  0.90300  0.80800  1.0000
