data_image0
_chemical_formula_structural       B2C2U2
_chemical_formula_sum              "B2 C2 U2"
_cell_length_a       3.27528
_cell_length_b       3.62465
_cell_length_c       6.2354
_cell_angle_alpha    73.1031
_cell_angle_beta     90
_cell_angle_gamma    90

_space_group_name_H-M_alt    "P 1"
_space_group_IT_number       1

loop_
  _space_group_symop_operation_xyz
  'x, y, z'

loop_
  _atom_site_type_symbol
  _atom_site_label
  _atom_site_symmetry_multiplicity
  _atom_site_fract_x
  _atom_site_fract_y
  _atom_site_fract_z
  _atom_site_occupancy
  B   B1        1.0  0.75000  0.46600  0.06850  1.0000
  B   B2        1.0  0.25000  0.53400  0.93100  1.0000
  C   C1        1.0  0.75000  0.33300  0.33300  1.0000
  C   C2        1.0  0.25000  0.66700  0.66700  1.0000
  U   U1        1.0  0.25000  0.86200  0.27600  1.0000
  U   U2        1.0  0.75000  0.13800  0.72400  1.0000
