data_image0
_chemical_formula_structural       Fe2In2N2O2
_chemical_formula_sum              "Fe2 In2 N2 O2"
_cell_length_a       3.449
_cell_length_b       5.53069
_cell_length_c       5.9665
_cell_angle_alpha    90
_cell_angle_beta     90
_cell_angle_gamma    90

_space_group_name_H-M_alt    "P 1"
_space_group_IT_number       1

loop_
  _space_group_symop_operation_xyz
  'x, y, z'

loop_
  _atom_site_type_symbol
  _atom_site_label
  _atom_site_symmetry_multiplicity
  _atom_site_fract_x
  _atom_site_fract_y
  _atom_site_fract_z
  _atom_site_occupancy
  Fe  Fe1       1.0  0.50000  0.98700  0.16800  1.0000
  Fe  Fe2       1.0  0.50000  0.48700  0.83200  1.0000
  In  In1       1.0  0.00000  0.50500  0.34400  1.0000
  In  In2       1.0  0.00000  0.00472  0.65600  1.0000
  N   N1        1.0  0.00000  0.88900  0.31500  1.0000
  N   N2        1.0  0.00000  0.38900  0.68500  1.0000
  O   O1        1.0  0.50000  0.37300  0.16600  1.0000
  O   O2        1.0  0.50000  0.87300  0.83400  1.0000
