data_image0
_chemical_formula_structural       As2Cu4K
_chemical_formula_sum              "As2 Cu4 K1"
_cell_length_a       4.12317
_cell_length_b       4.12317
_cell_length_c       8.92511
_cell_angle_alpha    76.6448
_cell_angle_beta     103.355
_cell_angle_gamma    120

_space_group_name_H-M_alt    "P 1"
_space_group_IT_number       1

loop_
  _space_group_symop_operation_xyz
  'x, y, z'

loop_
  _atom_site_type_symbol
  _atom_site_label
  _atom_site_symmetry_multiplicity
  _atom_site_fract_x
  _atom_site_fract_y
  _atom_site_fract_z
  _atom_site_occupancy
  As  As1       1.0  0.75800  0.24200  0.27400  1.0000
  As  As2       1.0  0.24200  0.75800  0.72600  1.0000
  Cu  Cu1       1.0  0.44500  0.55500  0.33500  1.0000
  Cu  Cu2       1.0  0.14500  0.85500  0.43500  1.0000
  Cu  Cu3       1.0  0.85500  0.14500  0.56500  1.0000
  Cu  Cu4       1.0  0.55500  0.44500  0.66500  1.0000
  K   K1        1.0  0.00000  0.00000  0.00000  1.0000
