data_image0
_chemical_formula_structural       Pb2Pd3Se2
_chemical_formula_sum              "Pb2 Pd3 Se2"
_cell_length_a       5.99003
_cell_length_b       5.99003
_cell_length_c       6.00068
_cell_angle_alpha    119.941
_cell_angle_beta     119.941
_cell_angle_gamma    60

_space_group_name_H-M_alt    "P 1"
_space_group_IT_number       1

loop_
  _space_group_symop_operation_xyz
  'x, y, z'

loop_
  _atom_site_type_symbol
  _atom_site_label
  _atom_site_symmetry_multiplicity
  _atom_site_fract_x
  _atom_site_fract_y
  _atom_site_fract_z
  _atom_site_occupancy
  Pb  Pb1       1.0  0.00000  0.00000  0.00000  1.0000
  Pb  Pb2       1.0  0.50000  0.50000  0.50000  1.0000
  Pd  Pd1       1.0  0.50000  0.00000  0.00000  1.0000
  Pd  Pd2       1.0  0.00000  0.50000  0.00000  1.0000
  Pd  Pd3       1.0  0.50000  0.50000  0.00000  1.0000
  Se  Se1       1.0  0.78800  0.78800  0.36400  1.0000
  Se  Se2       1.0  0.21200  0.21200  0.63600  1.0000
