data_image0
_chemical_formula_structural       LiPS4Zn
_chemical_formula_sum              "Li1 P1 S4 Zn1"
_cell_length_a       5.76862
_cell_length_b       5.76862
_cell_length_c       6.05611
_cell_angle_alpha    118.442
_cell_angle_beta     118.442
_cell_angle_gamma    90

_space_group_name_H-M_alt    "P 1"
_space_group_IT_number       1

loop_
  _space_group_symop_operation_xyz
  'x, y, z'

loop_
  _atom_site_type_symbol
  _atom_site_label
  _atom_site_symmetry_multiplicity
  _atom_site_fract_x
  _atom_site_fract_y
  _atom_site_fract_z
  _atom_site_occupancy
  Li  Li1       1.0  0.50000  0.50000  0.00000  1.0000
  P   P1        1.0  0.25000  0.75000  0.50000  1.0000
  S   S1        1.0  0.92100  0.41100  0.26900  1.0000
  S   S2        1.0  0.34800  0.85800  0.26900  1.0000
  S   S3        1.0  0.14200  0.07870  0.73100  1.0000
  S   S4        1.0  0.58900  0.65200  0.73100  1.0000
  Zn  Zn1       1.0  0.00000  0.00000  0.00000  1.0000
