data_image0
_chemical_formula_structural       Al2MgSe4
_chemical_formula_sum              "Al2 Mg1 Se4"
_cell_length_a       3.91494
_cell_length_b       3.91494
_cell_length_c       13.2615
_cell_angle_alpha    81.5118
_cell_angle_beta     98.4882
_cell_angle_gamma    120

_space_group_name_H-M_alt    "P 1"
_space_group_IT_number       1

loop_
  _space_group_symop_operation_xyz
  'x, y, z'

loop_
  _atom_site_type_symbol
  _atom_site_label
  _atom_site_symmetry_multiplicity
  _atom_site_fract_x
  _atom_site_fract_y
  _atom_site_fract_z
  _atom_site_occupancy
  Al  Al1       1.0  0.06990  0.93000  0.21000  1.0000
  Al  Al2       1.0  0.59500  0.40500  0.78500  1.0000
  Mg  Mg1       1.0  0.83200  0.16800  0.49700  1.0000
  Se  Se1       1.0  0.70900  0.29100  0.12800  1.0000
  Se  Se2       1.0  0.12900  0.87100  0.38700  1.0000
  Se  Se3       1.0  0.53600  0.46400  0.60800  1.0000
  Se  Se4       1.0  0.95600  0.04440  0.86700  1.0000
