data_image0
_chemical_formula_structural       F4K2Zn
_chemical_formula_sum              "F4 K2 Zn1"
_cell_length_a       4.00719
_cell_length_b       4.00719
_cell_length_c       7.0568
_cell_angle_alpha    106.495
_cell_angle_beta     106.495
_cell_angle_gamma    90

_space_group_name_H-M_alt    "P 1"
_space_group_IT_number       1

loop_
  _space_group_symop_operation_xyz
  'x, y, z'

loop_
  _atom_site_type_symbol
  _atom_site_label
  _atom_site_symmetry_multiplicity
  _atom_site_fract_x
  _atom_site_fract_y
  _atom_site_fract_z
  _atom_site_occupancy
  F   F1        1.0  0.50000  0.00000  0.00000  1.0000
  F   F2        1.0  0.00000  0.50000  0.00000  1.0000
  F   F3        1.0  0.15800  0.15800  0.31700  1.0000
  F   F4        1.0  0.84200  0.84200  0.68300  1.0000
  K   K1        1.0  0.64700  0.64700  0.29400  1.0000
  K   K2        1.0  0.35300  0.35300  0.70600  1.0000
  Zn  Zn1       1.0  0.00000  0.00000  0.00000  1.0000
