data_image0
_chemical_formula_structural       Ag2Fe2O2S2
_chemical_formula_sum              "Ag2 Fe2 O2 S2"
_cell_length_a       3.736
_cell_length_b       3.73969
_cell_length_c       11.2878
_cell_angle_alpha    90
_cell_angle_beta     90
_cell_angle_gamma    119.967

_space_group_name_H-M_alt    "P 1"
_space_group_IT_number       1

loop_
  _space_group_symop_operation_xyz
  'x, y, z'

loop_
  _atom_site_type_symbol
  _atom_site_label
  _atom_site_symmetry_multiplicity
  _atom_site_fract_x
  _atom_site_fract_y
  _atom_site_fract_z
  _atom_site_occupancy
  Ag  Ag1       1.0  0.33300  0.66500  0.25300  1.0000
  Ag  Ag2       1.0  0.66700  0.33500  0.75300  1.0000
  Fe  Fe1       1.0  0.00246  0.00493  0.50000  1.0000
  Fe  Fe2       1.0  0.99800  0.99500  0.00000  1.0000
  O   O1        1.0  0.00000  0.00000  0.34300  1.0000
  O   O2        1.0  0.00000  0.00000  0.84300  1.0000
  S   S1        1.0  0.66400  0.32900  0.09150  1.0000
  S   S2        1.0  0.33600  0.67100  0.59100  1.0000
