data_image0
_chemical_formula_structural       B4Ti3
_chemical_formula_sum              "B4 Ti3"
_cell_length_a       3.03656
_cell_length_b       3.25565
_cell_length_c       7.22016
_cell_angle_alpha    103.03
_cell_angle_beta     102.139
_cell_angle_gamma    90

_space_group_name_H-M_alt    "P 1"
_space_group_IT_number       1

loop_
  _space_group_symop_operation_xyz
  'x, y, z'

loop_
  _atom_site_type_symbol
  _atom_site_label
  _atom_site_symmetry_multiplicity
  _atom_site_fract_x
  _atom_site_fract_y
  _atom_site_fract_z
  _atom_site_occupancy
  B   B1        1.0  0.06440  0.56400  0.12900  1.0000
  B   B2        1.0  0.63200  0.63200  0.26300  1.0000
  B   B3        1.0  0.36800  0.36800  0.73700  1.0000
  B   B4        1.0  0.93600  0.43600  0.87100  1.0000
  Ti  Ti1       1.0  0.50000  0.00000  0.00000  1.0000
  Ti  Ti2       1.0  0.18600  0.18600  0.37200  1.0000
  Ti  Ti3       1.0  0.81400  0.81400  0.62800  1.0000
