data_image0
_chemical_formula_structural       B4V3
_chemical_formula_sum              "B4 V3"
_cell_length_a       2.97282
_cell_length_b       3.03198
_cell_length_c       6.93103
_cell_angle_alpha    102.634
_cell_angle_beta     102.384
_cell_angle_gamma    90

_space_group_name_H-M_alt    "P 1"
_space_group_IT_number       1

loop_
  _space_group_symop_operation_xyz
  'x, y, z'

loop_
  _atom_site_type_symbol
  _atom_site_label
  _atom_site_symmetry_multiplicity
  _atom_site_fract_x
  _atom_site_fract_y
  _atom_site_fract_z
  _atom_site_occupancy
  B   B1        1.0  0.06560  0.56600  0.13100  1.0000
  B   B2        1.0  0.63600  0.63600  0.27300  1.0000
  B   B3        1.0  0.36400  0.36400  0.72700  1.0000
  B   B4        1.0  0.93400  0.43400  0.86900  1.0000
  V   V1        1.0  0.50000  0.00000  0.00000  1.0000
  V   V2        1.0  0.18800  0.18800  0.37600  1.0000
  V   V3        1.0  0.81200  0.81200  0.62400  1.0000
