data_image0
_chemical_formula_structural       Eu2H2O8P2
_chemical_formula_sum              "Eu2 H2 O8 P2"
_cell_length_a       5.62668
_cell_length_b       5.82438
_cell_length_c       4.79692
_cell_angle_alpha    90
_cell_angle_beta     101.885
_cell_angle_gamma    90

_space_group_name_H-M_alt    "P 1"
_space_group_IT_number       1

loop_
  _space_group_symop_operation_xyz
  'x, y, z'

loop_
  _atom_site_type_symbol
  _atom_site_label
  _atom_site_symmetry_multiplicity
  _atom_site_fract_x
  _atom_site_fract_y
  _atom_site_fract_z
  _atom_site_occupancy
  Eu  Eu1       1.0  0.25100  0.25000  0.01830  1.0000
  Eu  Eu2       1.0  0.74900  0.75000  0.98200  1.0000
  H   H1        1.0  0.00000  0.00000  0.50000  1.0000
  H   H2        1.0  0.00000  0.50000  0.50000  1.0000
  O   O1        1.0  0.68100  0.25000  0.23500  1.0000
  O   O2        1.0  0.11000  0.54100  0.31500  1.0000
  O   O3        1.0  0.11000  0.95900  0.31500  1.0000
  O   O4        1.0  0.51400  0.75000  0.33100  1.0000
  O   O5        1.0  0.48600  0.25000  0.66900  1.0000
  O   O6        1.0  0.89000  0.04070  0.68500  1.0000
  O   O7        1.0  0.89000  0.45900  0.68500  1.0000
  O   O8        1.0  0.31900  0.75000  0.76500  1.0000
  P   P1        1.0  0.28200  0.75000  0.44100  1.0000
  P   P2        1.0  0.71800  0.25000  0.55900  1.0000
