data_image0
_chemical_formula_structural       BaGe2Li2Mg2
_chemical_formula_sum              "Ba1 Ge2 Li2 Mg2"
_cell_length_a       4.60996
_cell_length_b       4.60996
_cell_length_c       9.12972
_cell_angle_alpha    90
_cell_angle_beta     104.624
_cell_angle_gamma    120

_space_group_name_H-M_alt    "P 1"
_space_group_IT_number       1

loop_
  _space_group_symop_operation_xyz
  'x, y, z'

loop_
  _atom_site_type_symbol
  _atom_site_label
  _atom_site_symmetry_multiplicity
  _atom_site_fract_x
  _atom_site_fract_y
  _atom_site_fract_z
  _atom_site_occupancy
  Ba  Ba1       1.0  0.00000  0.00000  0.00000  1.0000
  Ge  Ge1       1.0  0.51400  0.75700  0.27100  1.0000
  Ge  Ge2       1.0  0.48600  0.24300  0.72900  1.0000
  Li  Li1       1.0  0.85900  0.43000  0.28900  1.0000
  Li  Li2       1.0  0.14100  0.57000  0.71100  1.0000
  Mg  Mg1       1.0  0.27100  0.13600  0.40700  1.0000
  Mg  Mg2       1.0  0.72900  0.86400  0.59300  1.0000
