data_image0
_chemical_formula_structural       F4MgRb2
_chemical_formula_sum              "F4 Mg1 Rb2"
_cell_length_a       4.00093
_cell_length_b       4.00093
_cell_length_c       7.35009
_cell_angle_alpha    105.793
_cell_angle_beta     105.793
_cell_angle_gamma    90

_space_group_name_H-M_alt    "P 1"
_space_group_IT_number       1

loop_
  _space_group_symop_operation_xyz
  'x, y, z'

loop_
  _atom_site_type_symbol
  _atom_site_label
  _atom_site_symmetry_multiplicity
  _atom_site_fract_x
  _atom_site_fract_y
  _atom_site_fract_z
  _atom_site_occupancy
  F   F1        1.0  0.50000  0.00000  0.00000  1.0000
  F   F2        1.0  0.00000  0.50000  0.00000  1.0000
  F   F3        1.0  0.14700  0.14700  0.29400  1.0000
  F   F4        1.0  0.85300  0.85300  0.70600  1.0000
  Mg  Mg1       1.0  0.00000  0.00000  0.00000  1.0000
  Rb  Rb1       1.0  0.65100  0.65100  0.30200  1.0000
  Rb  Rb2       1.0  0.34900  0.34900  0.69800  1.0000
