data_image0
_chemical_formula_structural       Cr2H4K2MgO10
_chemical_formula_sum              "Cr2 H4 K2 Mg1 O10"
_cell_length_a       5.6128
_cell_length_b       6.35138
_cell_length_c       7.41882
_cell_angle_alpha    110.359
_cell_angle_beta     95.4741
_cell_angle_gamma    109.711

_space_group_name_H-M_alt    "P 1"
_space_group_IT_number       1

loop_
  _space_group_symop_operation_xyz
  'x, y, z'

loop_
  _atom_site_type_symbol
  _atom_site_label
  _atom_site_symmetry_multiplicity
  _atom_site_fract_x
  _atom_site_fract_y
  _atom_site_fract_z
  _atom_site_occupancy
  Cr  Cr1       1.0  0.67000  0.34100  0.23700  1.0000
  Cr  Cr2       1.0  0.33000  0.65900  0.76300  1.0000
  H   H1        1.0  0.91800  0.85600  0.30100  1.0000
  H   H2        1.0  0.10700  0.14100  0.39400  1.0000
  H   H3        1.0  0.89300  0.85900  0.60600  1.0000
  H   H4        1.0  0.08190  0.14400  0.69900  1.0000
  K   K1        1.0  0.33800  0.70400  0.24300  1.0000
  K   K2        1.0  0.66200  0.29600  0.75700  1.0000
  Mg  Mg1       1.0  0.00000  0.00000  0.00000  1.0000
  O   O1        1.0  0.38700  0.25500  0.07960  1.0000
  O   O2        1.0  0.88800  0.29400  0.10500  1.0000
  O   O3        1.0  0.04260  0.98700  0.27100  1.0000
  O   O4        1.0  0.63500  0.18700  0.37400  1.0000
  O   O5        1.0  0.77400  0.64100  0.37700  1.0000
  O   O6        1.0  0.22600  0.35900  0.62300  1.0000
  O   O7        1.0  0.36500  0.81300  0.62600  1.0000
  O   O8        1.0  0.95700  0.01260  0.72900  1.0000
  O   O9        1.0  0.11200  0.70600  0.89500  1.0000
  O   O10       1.0  0.61300  0.74500  0.92000  1.0000
