data_image0
_chemical_formula_structural       H3Ti4
_chemical_formula_sum              "H3 Ti4"
_cell_length_a       4.18429
_cell_length_b       4.18429
_cell_length_c       4.39666
_cell_angle_alpha    90
_cell_angle_beta     90
_cell_angle_gamma    90

_space_group_name_H-M_alt    "P 1"
_space_group_IT_number       1

loop_
  _space_group_symop_operation_xyz
  'x, y, z'

loop_
  _atom_site_type_symbol
  _atom_site_label
  _atom_site_symmetry_multiplicity
  _atom_site_fract_x
  _atom_site_fract_y
  _atom_site_fract_z
  _atom_site_occupancy
  H   H1        1.0  0.00000  0.00000  0.00000  1.0000
  H   H2        1.0  0.50000  0.50000  0.00000  1.0000
  H   H3        1.0  0.00000  0.00000  0.50000  1.0000
  Ti  Ti1       1.0  0.25600  0.25600  0.26300  1.0000
  Ti  Ti2       1.0  0.74400  0.74400  0.26300  1.0000
  Ti  Ti3       1.0  0.74400  0.25600  0.73700  1.0000
  Ti  Ti4       1.0  0.25600  0.74400  0.73700  1.0000
