data_image0
_chemical_formula_structural       Cu4O4Ru4S4
_chemical_formula_sum              "Cu4 O4 Ru4 S4"
_cell_length_a       5.97046
_cell_length_b       6.74129
_cell_length_c       5.48672
_cell_angle_alpha    90
_cell_angle_beta     88.1346
_cell_angle_gamma    90

_space_group_name_H-M_alt    "P 1"
_space_group_IT_number       1

loop_
  _space_group_symop_operation_xyz
  'x, y, z'

loop_
  _atom_site_type_symbol
  _atom_site_label
  _atom_site_symmetry_multiplicity
  _atom_site_fract_x
  _atom_site_fract_y
  _atom_site_fract_z
  _atom_site_occupancy
  Cu  Cu1       1.0  0.93800  0.27100  0.00126  1.0000
  Cu  Cu2       1.0  0.06190  0.77100  0.49900  1.0000
  Cu  Cu3       1.0  0.93800  0.22900  0.50100  1.0000
  Cu  Cu4       1.0  0.06190  0.72900  0.99900  1.0000
  O   O1        1.0  0.64700  0.35800  0.06840  1.0000
  O   O2        1.0  0.35300  0.85800  0.43200  1.0000
  O   O3        1.0  0.64700  0.14200  0.56800  1.0000
  O   O4        1.0  0.35300  0.64200  0.93200  1.0000
  Ru  Ru1       1.0  0.49900  0.09690  0.22800  1.0000
  Ru  Ru2       1.0  0.50100  0.59700  0.27200  1.0000
  Ru  Ru3       1.0  0.49900  0.40300  0.72800  1.0000
  Ru  Ru4       1.0  0.50100  0.90300  0.77200  1.0000
  S   S1        1.0  0.73400  0.84200  0.08550  1.0000
  S   S2        1.0  0.26600  0.34200  0.41400  1.0000
  S   S3        1.0  0.73400  0.65800  0.58600  1.0000
  S   S4        1.0  0.26600  0.15800  0.91400  1.0000
