data_image0
_chemical_formula_structural       As2Np2Se2
_chemical_formula_sum              "As2 Np2 Se2"
_cell_length_a       3.97173
_cell_length_b       3.97173
_cell_length_c       8.39733
_cell_angle_alpha    90
_cell_angle_beta     90
_cell_angle_gamma    90

_space_group_name_H-M_alt    "P 1"
_space_group_IT_number       1

loop_
  _space_group_symop_operation_xyz
  'x, y, z'

loop_
  _atom_site_type_symbol
  _atom_site_label
  _atom_site_symmetry_multiplicity
  _atom_site_fract_x
  _atom_site_fract_y
  _atom_site_fract_z
  _atom_site_occupancy
  As  As1       1.0  0.00000  0.00000  0.00000  1.0000
  As  As2       1.0  0.50000  0.50000  0.00000  1.0000
  Np  Np1       1.0  0.00000  0.50000  0.27600  1.0000
  Np  Np2       1.0  0.50000  0.00000  0.72400  1.0000
  Se  Se1       1.0  0.50000  0.00000  0.36400  1.0000
  Se  Se2       1.0  0.00000  0.50000  0.63600  1.0000
