data_image0
_chemical_formula_structural       O2Rb2Ru2S2
_chemical_formula_sum              "O2 Rb2 Ru2 S2"
_cell_length_a       4.26066
_cell_length_b       4.26066
_cell_length_c       9.57544
_cell_angle_alpha    90
_cell_angle_beta     90
_cell_angle_gamma    90

_space_group_name_H-M_alt    "P 1"
_space_group_IT_number       1

loop_
  _space_group_symop_operation_xyz
  'x, y, z'

loop_
  _atom_site_type_symbol
  _atom_site_label
  _atom_site_symmetry_multiplicity
  _atom_site_fract_x
  _atom_site_fract_y
  _atom_site_fract_z
  _atom_site_occupancy
  O   O1        1.0  0.75000  0.25000  0.00000  1.0000
  O   O2        1.0  0.25000  0.75000  0.00000  1.0000
  Rb  Rb1       1.0  0.75000  0.25000  0.50000  1.0000
  Rb  Rb2       1.0  0.25000  0.75000  0.50000  1.0000
  Ru  Ru1       1.0  0.75000  0.75000  0.03900  1.0000
  Ru  Ru2       1.0  0.25000  0.25000  0.96100  1.0000
  S   S1        1.0  0.75000  0.75000  0.27100  1.0000
  S   S2        1.0  0.25000  0.25000  0.72900  1.0000
