data_image0
_chemical_formula_structural       Cu2LiP2Sm
_chemical_formula_sum              "Cu2 Li1 P2 Sm1"
_cell_length_a       4.00622
_cell_length_b       4.00622
_cell_length_c       6.63095
_cell_angle_alpha    90
_cell_angle_beta     90.0004
_cell_angle_gamma    120

_space_group_name_H-M_alt    "P 1"
_space_group_IT_number       1

loop_
  _space_group_symop_operation_xyz
  'x, y, z'

loop_
  _atom_site_type_symbol
  _atom_site_label
  _atom_site_symmetry_multiplicity
  _atom_site_fract_x
  _atom_site_fract_y
  _atom_site_fract_z
  _atom_site_occupancy
  Cu  Cu1       1.0  0.66700  0.33300  0.34100  1.0000
  Cu  Cu2       1.0  0.33300  0.66700  0.65900  1.0000
  Li  Li1       1.0  0.00000  0.00000  0.50000  1.0000
  P   P1        1.0  0.33300  0.66700  0.26900  1.0000
  P   P2        1.0  0.66700  0.33300  0.73100  1.0000
  Sm  Sm1       1.0  0.00000  0.00000  0.00000  1.0000
