data_image0
_chemical_formula_structural       BeK4P2
_chemical_formula_sum              "Be1 K4 P2"
_cell_length_a       5.58349
_cell_length_b       5.58349
_cell_length_c       9.0026
_cell_angle_alpha    90
_cell_angle_beta     108.066
_cell_angle_gamma    120

_space_group_name_H-M_alt    "P 1"
_space_group_IT_number       1

loop_
  _space_group_symop_operation_xyz
  'x, y, z'

loop_
  _atom_site_type_symbol
  _atom_site_label
  _atom_site_symmetry_multiplicity
  _atom_site_fract_x
  _atom_site_fract_y
  _atom_site_fract_z
  _atom_site_occupancy
  Be  Be1       1.0  0.00000  0.00000  0.00000  1.0000
  K   K1        1.0  0.75300  0.37700  0.13000  1.0000
  K   K2        1.0  0.58300  0.79100  0.37400  1.0000
  K   K3        1.0  0.41700  0.20900  0.62600  1.0000
  K   K4        1.0  0.24700  0.62300  0.87000  1.0000
  P   P1        1.0  0.15800  0.07910  0.23700  1.0000
  P   P2        1.0  0.84200  0.92100  0.76300  1.0000
