data_image0
_chemical_formula_structural       Al3Dy2Si2
_chemical_formula_sum              "Al3 Dy2 Si2"
_cell_length_a       4.0473
_cell_length_b       5.47967
_cell_length_c       6.61211
_cell_angle_alpha    100.213
_cell_angle_beta     90
_cell_angle_gamma    111.673

_space_group_name_H-M_alt    "P 1"
_space_group_IT_number       1

loop_
  _space_group_symop_operation_xyz
  'x, y, z'

loop_
  _atom_site_type_symbol
  _atom_site_label
  _atom_site_symmetry_multiplicity
  _atom_site_fract_x
  _atom_site_fract_y
  _atom_site_fract_z
  _atom_site_occupancy
  Al  Al1       1.0  0.00000  0.00000  0.00000  1.0000
  Al  Al2       1.0  0.30600  0.61100  0.13400  1.0000
  Al  Al3       1.0  0.69400  0.38900  0.86600  1.0000
  Dy  Dy1       1.0  0.61900  0.23900  0.32200  1.0000
  Dy  Dy2       1.0  0.38100  0.76100  0.67800  1.0000
  Si  Si1       1.0  0.90700  0.81300  0.36000  1.0000
  Si  Si2       1.0  0.09340  0.18700  0.64000  1.0000
