data_image0
_chemical_formula_structural       Ca2Cl2CuO2
_chemical_formula_sum              "Ca2 Cl2 Cu1 O2"
_cell_length_a       3.853
_cell_length_b       3.853
_cell_length_c       7.96995
_cell_angle_alpha    103.988
_cell_angle_beta     103.988
_cell_angle_gamma    90

_space_group_name_H-M_alt    "P 1"
_space_group_IT_number       1

loop_
  _space_group_symop_operation_xyz
  'x, y, z'

loop_
  _atom_site_type_symbol
  _atom_site_label
  _atom_site_symmetry_multiplicity
  _atom_site_fract_x
  _atom_site_fract_y
  _atom_site_fract_z
  _atom_site_occupancy
  Ca  Ca1       1.0  0.60400  0.60400  0.20900  1.0000
  Ca  Ca2       1.0  0.39600  0.39600  0.79100  1.0000
  Cl  Cl1       1.0  0.18300  0.18300  0.36500  1.0000
  Cl  Cl2       1.0  0.81700  0.81700  0.63500  1.0000
  Cu  Cu1       1.0  0.00000  0.00000  0.00000  1.0000
  O   O1        1.0  0.50000  0.00000  0.00000  1.0000
  O   O2        1.0  0.00000  0.50000  0.00000  1.0000
