data_image0
_chemical_formula_structural       B4CDy2
_chemical_formula_sum              "B4 C1 Dy2"
_cell_length_a       3.27591
_cell_length_b       5.26717
_cell_length_c       5.26717
_cell_angle_alpha    91.7074
_cell_angle_beta     108.118
_cell_angle_gamma    108.118

_space_group_name_H-M_alt    "P 1"
_space_group_IT_number       1

loop_
  _space_group_symop_operation_xyz
  'x, y, z'

loop_
  _atom_site_type_symbol
  _atom_site_label
  _atom_site_symmetry_multiplicity
  _atom_site_fract_x
  _atom_site_fract_y
  _atom_site_fract_z
  _atom_site_occupancy
  B   B1        1.0  0.72800  0.22800  0.22800  1.0000
  B   B2        1.0  0.36500  0.36500  0.36500  1.0000
  B   B3        1.0  0.63500  0.63500  0.63500  1.0000
  B   B4        1.0  0.27200  0.77200  0.77200  1.0000
  C   C1        1.0  0.50000  0.00000  0.00000  1.0000
  Dy  Dy1       1.0  0.00000  0.76600  0.23400  1.0000
  Dy  Dy2       1.0  0.00000  0.23400  0.76600  1.0000
