data_image0
_chemical_formula_structural       As2Ca4O
_chemical_formula_sum              "As2 Ca4 O1"
_cell_length_a       4.54796
_cell_length_b       4.54796
_cell_length_c       8.35563
_cell_angle_alpha    105.792
_cell_angle_beta     105.792
_cell_angle_gamma    90

_space_group_name_H-M_alt    "P 1"
_space_group_IT_number       1

loop_
  _space_group_symop_operation_xyz
  'x, y, z'

loop_
  _atom_site_type_symbol
  _atom_site_label
  _atom_site_symmetry_multiplicity
  _atom_site_fract_x
  _atom_site_fract_y
  _atom_site_fract_z
  _atom_site_occupancy
  As  As1       1.0  0.13700  0.13700  0.27400  1.0000
  As  As2       1.0  0.86300  0.86300  0.72600  1.0000
  Ca  Ca1       1.0  0.50000  0.00000  0.00000  1.0000
  Ca  Ca2       1.0  0.00000  0.50000  0.00000  1.0000
  Ca  Ca3       1.0  0.67100  0.67100  0.34200  1.0000
  Ca  Ca4       1.0  0.32900  0.32900  0.65800  1.0000
  O   O1        1.0  0.50000  0.50000  0.00000  1.0000
