data_image0
_chemical_formula_structural       Th4Zn2
_chemical_formula_sum              "Th4 Zn2"
_cell_length_a       5.57132
_cell_length_b       6.06309
_cell_length_c       6.06309
_cell_angle_alpha    102.186
_cell_angle_beta     62.6487
_cell_angle_gamma    117.351

_space_group_name_H-M_alt    "P 1"
_space_group_IT_number       1

loop_
  _space_group_symop_operation_xyz
  'x, y, z'

loop_
  _atom_site_type_symbol
  _atom_site_label
  _atom_site_symmetry_multiplicity
  _atom_site_fract_x
  _atom_site_fract_y
  _atom_site_fract_z
  _atom_site_occupancy
  Th  Th1       1.0  0.15800  0.50000  0.18400  1.0000
  Th  Th2       1.0  0.34200  0.18400  0.50000  1.0000
  Th  Th3       1.0  0.65800  0.81600  0.50000  1.0000
  Th  Th4       1.0  0.84200  0.50000  0.81600  1.0000
  Zn  Zn1       1.0  0.25000  0.00000  0.00000  1.0000
  Zn  Zn2       1.0  0.75000  0.00000  0.00000  1.0000
