data_image0
_chemical_formula_structural       Au4In4Sr4
_chemical_formula_sum              "Au4 In4 Sr4"
_cell_length_a       7.77241
_cell_length_b       4.8292
_cell_length_c       8.51355
_cell_angle_alpha    90
_cell_angle_beta     90
_cell_angle_gamma    90

_space_group_name_H-M_alt    "P 1"
_space_group_IT_number       1

loop_
  _space_group_symop_operation_xyz
  'x, y, z'

loop_
  _atom_site_type_symbol
  _atom_site_label
  _atom_site_symmetry_multiplicity
  _atom_site_fract_x
  _atom_site_fract_y
  _atom_site_fract_z
  _atom_site_occupancy
  Au  Au1       1.0  0.78400  0.25000  0.11300  1.0000
  Au  Au2       1.0  0.28400  0.25000  0.38700  1.0000
  Au  Au3       1.0  0.71600  0.75000  0.61300  1.0000
  Au  Au4       1.0  0.21600  0.75000  0.88700  1.0000
  In  In1       1.0  0.15800  0.25000  0.06760  1.0000
  In  In2       1.0  0.65800  0.25000  0.43200  1.0000
  In  In3       1.0  0.34200  0.75000  0.56800  1.0000
  In  In4       1.0  0.84200  0.75000  0.93200  1.0000
  Sr  Sr1       1.0  0.47800  0.75000  0.18500  1.0000
  Sr  Sr2       1.0  0.97800  0.75000  0.31500  1.0000
  Sr  Sr3       1.0  0.02150  0.25000  0.68500  1.0000
  Sr  Sr4       1.0  0.52200  0.25000  0.81500  1.0000
