data_image0
_chemical_formula_structural       B4Mn3
_chemical_formula_sum              "B4 Mn3"
_cell_length_a       2.95348
_cell_length_b       2.97138
_cell_length_c       6.71994
_cell_angle_alpha    102.773
_cell_angle_beta     102.695
_cell_angle_gamma    90

_space_group_name_H-M_alt    "P 1"
_space_group_IT_number       1

loop_
  _space_group_symop_operation_xyz
  'x, y, z'

loop_
  _atom_site_type_symbol
  _atom_site_label
  _atom_site_symmetry_multiplicity
  _atom_site_fract_x
  _atom_site_fract_y
  _atom_site_fract_z
  _atom_site_occupancy
  B   B1        1.0  0.06720  0.56700  0.13400  1.0000
  B   B2        1.0  0.64200  0.64200  0.28500  1.0000
  B   B3        1.0  0.35800  0.35800  0.71500  1.0000
  B   B4        1.0  0.93300  0.43300  0.86600  1.0000
  Mn  Mn1       1.0  0.50000  0.00000  0.00000  1.0000
  Mn  Mn2       1.0  0.18700  0.18700  0.37300  1.0000
  Mn  Mn3       1.0  0.81300  0.81300  0.62700  1.0000
