data_image0
_chemical_formula_structural       O20Pm8Si4
_chemical_formula_sum              "O20 Pm8 Si4"
_cell_length_a       6.78537
_cell_length_b       8.06736
_cell_length_c       9.77088
_cell_angle_alpha    90.7942
_cell_angle_beta     110.318
_cell_angle_gamma    114.869

_space_group_name_H-M_alt    "P 1"
_space_group_IT_number       1

loop_
  _space_group_symop_operation_xyz
  'x, y, z'

loop_
  _atom_site_type_symbol
  _atom_site_label
  _atom_site_symmetry_multiplicity
  _atom_site_fract_x
  _atom_site_fract_y
  _atom_site_fract_z
  _atom_site_occupancy
  O   O1        1.0  0.19100  0.43100  0.04630  1.0000
  O   O2        1.0  0.71600  0.14000  0.09940  1.0000
  O   O3        1.0  0.04680  0.97900  0.16200  1.0000
  O   O4        1.0  0.59100  0.75500  0.16500  1.0000
  O   O5        1.0  0.60100  0.42300  0.19100  1.0000
  O   O6        1.0  0.48600  0.07650  0.30900  1.0000
  O   O7        1.0  0.17100  0.74500  0.33500  1.0000
  O   O8        1.0  0.40600  0.52100  0.33800  1.0000
  O   O9        1.0  0.97600  0.36000  0.40100  1.0000
  O   O10       1.0  0.21300  0.06860  0.45400  1.0000
  O   O11       1.0  0.78700  0.93100  0.54600  1.0000
  O   O12       1.0  0.02360  0.64000  0.59900  1.0000
  O   O13       1.0  0.59400  0.47900  0.66200  1.0000
  O   O14       1.0  0.82900  0.25500  0.66500  1.0000
  O   O15       1.0  0.51400  0.92300  0.69100  1.0000
  O   O16       1.0  0.39900  0.57700  0.80900  1.0000
  O   O17       1.0  0.40900  0.24500  0.83500  1.0000
  O   O18       1.0  0.95300  0.02070  0.83800  1.0000
  O   O19       1.0  0.28400  0.86000  0.90100  1.0000
  O   O20       1.0  0.80900  0.56900  0.95400  1.0000
  Pm  Pm1       1.0  0.32800  0.11500  0.04080  1.0000
  Pm  Pm2       1.0  0.95200  0.45400  0.17100  1.0000
  Pm  Pm3       1.0  0.82700  0.04620  0.32900  1.0000
  Pm  Pm4       1.0  0.67300  0.38500  0.45900  1.0000
  Pm  Pm5       1.0  0.32700  0.61500  0.54100  1.0000
  Pm  Pm6       1.0  0.17300  0.95400  0.67100  1.0000
  Pm  Pm7       1.0  0.04830  0.54600  0.82900  1.0000
  Pm  Pm8       1.0  0.67200  0.88500  0.95900  1.0000
  Si  Si1       1.0  0.45300  0.54300  0.18300  1.0000
  Si  Si2       1.0  0.22600  0.95700  0.31700  1.0000
  Si  Si3       1.0  0.77400  0.04340  0.68300  1.0000
  Si  Si4       1.0  0.54700  0.45700  0.81700  1.0000
