data_image0
_chemical_formula_structural       Ce8O20Si4
_chemical_formula_sum              "Ce8 O20 Si4"
_cell_length_a       6.92771
_cell_length_b       8.1437
_cell_length_c       10.0594
_cell_angle_alpha    90.3875
_cell_angle_beta     110.142
_cell_angle_gamma    115.172

_space_group_name_H-M_alt    "P 1"
_space_group_IT_number       1

loop_
  _space_group_symop_operation_xyz
  'x, y, z'

loop_
  _atom_site_type_symbol
  _atom_site_label
  _atom_site_symmetry_multiplicity
  _atom_site_fract_x
  _atom_site_fract_y
  _atom_site_fract_z
  _atom_site_occupancy
  Ce  Ce1       1.0  0.32600  0.11400  0.04090  1.0000
  Ce  Ce2       1.0  0.95200  0.46100  0.17200  1.0000
  Ce  Ce3       1.0  0.82000  0.03910  0.32800  1.0000
  Ce  Ce4       1.0  0.67100  0.38600  0.45900  1.0000
  Ce  Ce5       1.0  0.32900  0.61400  0.54100  1.0000
  Ce  Ce6       1.0  0.18000  0.96100  0.67200  1.0000
  Ce  Ce7       1.0  0.04770  0.53900  0.82800  1.0000
  Ce  Ce8       1.0  0.67400  0.88600  0.95900  1.0000
  O   O1        1.0  0.19100  0.42200  0.04780  1.0000
  O   O2        1.0  0.71300  0.14000  0.10200  1.0000
  O   O3        1.0  0.57300  0.74900  0.15800  1.0000
  O   O4        1.0  0.04380  0.97800  0.16800  1.0000
  O   O5        1.0  0.59800  0.42600  0.19300  1.0000
  O   O6        1.0  0.47900  0.07360  0.30700  1.0000
  O   O7        1.0  0.39700  0.52200  0.33200  1.0000
  O   O8        1.0  0.16600  0.75100  0.34200  1.0000
  O   O9        1.0  0.97100  0.36000  0.39800  1.0000
  O   O10       1.0  0.22200  0.07820  0.45200  1.0000
  O   O11       1.0  0.77800  0.92200  0.54800  1.0000
  O   O12       1.0  0.02930  0.64000  0.60200  1.0000
  O   O13       1.0  0.83400  0.24900  0.65800  1.0000
  O   O14       1.0  0.60300  0.47800  0.66800  1.0000
  O   O15       1.0  0.52100  0.92600  0.69300  1.0000
  O   O16       1.0  0.40200  0.57400  0.80700  1.0000
  O   O17       1.0  0.95600  0.02170  0.83200  1.0000
  O   O18       1.0  0.42700  0.25100  0.84200  1.0000
  O   O19       1.0  0.28700  0.86000  0.89800  1.0000
  O   O20       1.0  0.80900  0.57800  0.95200  1.0000
  Si  Si1       1.0  0.44500  0.53900  0.18100  1.0000
  Si  Si2       1.0  0.22600  0.96100  0.31900  1.0000
  Si  Si3       1.0  0.77400  0.03870  0.68100  1.0000
  Si  Si4       1.0  0.55500  0.46100  0.81900  1.0000
