data_image0
_chemical_formula_structural       Ce2F4Se
_chemical_formula_sum              "Ce2 F4 Se1"
_cell_length_a       4.13465
_cell_length_b       4.13465
_cell_length_c       7.98425
_cell_angle_alpha    105.006
_cell_angle_beta     74.9937
_cell_angle_gamma    120

_space_group_name_H-M_alt    "P 1"
_space_group_IT_number       1

loop_
  _space_group_symop_operation_xyz
  'x, y, z'

loop_
  _atom_site_type_symbol
  _atom_site_label
  _atom_site_symmetry_multiplicity
  _atom_site_fract_x
  _atom_site_fract_y
  _atom_site_fract_z
  _atom_site_occupancy
  Ce  Ce1       1.0  0.24400  0.75600  0.26900  1.0000
  Ce  Ce2       1.0  0.75600  0.24400  0.73100  1.0000
  F   F1        1.0  0.57000  0.43000  0.29100  1.0000
  F   F2        1.0  0.86200  0.13800  0.41500  1.0000
  F   F3        1.0  0.13800  0.86200  0.58500  1.0000
  F   F4        1.0  0.43000  0.57000  0.70900  1.0000
  Se  Se1       1.0  0.00000  0.00000  0.00000  1.0000
