data_image0
_chemical_formula_structural       O20Si4Sm8
_chemical_formula_sum              "O20 Si4 Sm8"
_cell_length_a       6.75456
_cell_length_b       8.0433
_cell_length_c       9.72717
_cell_angle_alpha    90.7518
_cell_angle_beta     110.316
_cell_angle_gamma    114.827

_space_group_name_H-M_alt    "P 1"
_space_group_IT_number       1

loop_
  _space_group_symop_operation_xyz
  'x, y, z'

loop_
  _atom_site_type_symbol
  _atom_site_label
  _atom_site_symmetry_multiplicity
  _atom_site_fract_x
  _atom_site_fract_y
  _atom_site_fract_z
  _atom_site_occupancy
  O   O1        1.0  0.19000  0.43500  0.04670  1.0000
  O   O2        1.0  0.71600  0.14000  0.09960  1.0000
  O   O3        1.0  0.04700  0.98000  0.16000  1.0000
  O   O4        1.0  0.59400  0.75700  0.16600  1.0000
  O   O5        1.0  0.60000  0.42200  0.19000  1.0000
  O   O6        1.0  0.48700  0.07760  0.31000  1.0000
  O   O7        1.0  0.17100  0.74300  0.33400  1.0000
  O   O8        1.0  0.40700  0.52000  0.34000  1.0000
  O   O9        1.0  0.97700  0.36000  0.40000  1.0000
  O   O10       1.0  0.20900  0.06540  0.45300  1.0000
  O   O11       1.0  0.79100  0.93500  0.54700  1.0000
  O   O12       1.0  0.02340  0.64000  0.60000  1.0000
  O   O13       1.0  0.59300  0.48000  0.66000  1.0000
  O   O14       1.0  0.82900  0.25700  0.66600  1.0000
  O   O15       1.0  0.51300  0.92200  0.69000  1.0000
  O   O16       1.0  0.40000  0.57800  0.81000  1.0000
  O   O17       1.0  0.40600  0.24300  0.83400  1.0000
  O   O18       1.0  0.95300  0.02040  0.84000  1.0000
  O   O19       1.0  0.28400  0.86000  0.90000  1.0000
  O   O20       1.0  0.81000  0.56500  0.95300  1.0000
  Si  Si1       1.0  0.45400  0.54400  0.18400  1.0000
  Si  Si2       1.0  0.22600  0.95600  0.31600  1.0000
  Si  Si3       1.0  0.77400  0.04420  0.68400  1.0000
  Si  Si4       1.0  0.54600  0.45600  0.81600  1.0000
  Sm  Sm1       1.0  0.32900  0.11400  0.04000  1.0000
  Sm  Sm2       1.0  0.95000  0.45300  0.17100  1.0000
  Sm  Sm3       1.0  0.82600  0.04680  0.32900  1.0000
  Sm  Sm4       1.0  0.67500  0.38600  0.46000  1.0000
  Sm  Sm5       1.0  0.32500  0.61400  0.54000  1.0000
  Sm  Sm6       1.0  0.17400  0.95300  0.67100  1.0000
  Sm  Sm7       1.0  0.04970  0.54700  0.82900  1.0000
  Sm  Sm8       1.0  0.67100  0.88600  0.96000  1.0000
