data_image0
_chemical_formula_structural       Eu8O20Si4
_chemical_formula_sum              "Eu8 O20 Si4"
_cell_length_a       6.66426
_cell_length_b       8.325
_cell_length_c       9.62532
_cell_angle_alpha    88.7742
_cell_angle_beta     110.254
_cell_angle_gamma    113.594

_space_group_name_H-M_alt    "P 1"
_space_group_IT_number       1

loop_
  _space_group_symop_operation_xyz
  'x, y, z'

loop_
  _atom_site_type_symbol
  _atom_site_label
  _atom_site_symmetry_multiplicity
  _atom_site_fract_x
  _atom_site_fract_y
  _atom_site_fract_z
  _atom_site_occupancy
  Eu  Eu1       1.0  0.29700  0.16800  0.04640  1.0000
  Eu  Eu2       1.0  0.96600  0.50600  0.18400  1.0000
  Eu  Eu3       1.0  0.77600  0.99400  0.31600  1.0000
  Eu  Eu4       1.0  0.58200  0.33200  0.45400  1.0000
  Eu  Eu5       1.0  0.41800  0.66800  0.54600  1.0000
  Eu  Eu6       1.0  0.22400  0.00632  0.68400  1.0000
  Eu  Eu7       1.0  0.03360  0.49400  0.81600  1.0000
  Eu  Eu8       1.0  0.70300  0.83200  0.95400  1.0000
  O   O1        1.0  0.60200  0.06540  0.03680  1.0000
  O   O2        1.0  0.17800  0.41300  0.04900  1.0000
  O   O3        1.0  0.55000  0.73300  0.15500  1.0000
  O   O4        1.0  0.01950  0.99100  0.16700  1.0000
  O   O5        1.0  0.60600  0.42800  0.20800  1.0000
  O   O6        1.0  0.46900  0.07200  0.29200  1.0000
  O   O7        1.0  0.36200  0.50900  0.33300  1.0000
  O   O8        1.0  0.16200  0.76700  0.34500  1.0000
  O   O9        1.0  0.21700  0.08750  0.45100  1.0000
  O   O10       1.0  0.00000  0.43500  0.46300  1.0000
  O   O11       1.0  0.00000  0.56500  0.53700  1.0000
  O   O12       1.0  0.78300  0.91300  0.54900  1.0000
  O   O13       1.0  0.83800  0.23300  0.65500  1.0000
  O   O14       1.0  0.63800  0.49100  0.66700  1.0000
  O   O15       1.0  0.53100  0.92800  0.70800  1.0000
  O   O16       1.0  0.39400  0.57200  0.79200  1.0000
  O   O17       1.0  0.98000  0.00883  0.83300  1.0000
  O   O18       1.0  0.45000  0.26700  0.84500  1.0000
  O   O19       1.0  0.82200  0.58700  0.95100  1.0000
  O   O20       1.0  0.39800  0.93500  0.96300  1.0000
  Si  Si1       1.0  0.43400  0.53100  0.18500  1.0000
  Si  Si2       1.0  0.21900  0.96900  0.31500  1.0000
  Si  Si3       1.0  0.78100  0.03080  0.68500  1.0000
  Si  Si4       1.0  0.56600  0.46900  0.81500  1.0000
