data_image0
_chemical_formula_structural       Ag2Co2O2S2
_chemical_formula_sum              "Ag2 Co2 O2 S2"
_cell_length_a       3.21977
_cell_length_b       3.21934
_cell_length_c       12.7762
_cell_angle_alpha    90
_cell_angle_beta     90
_cell_angle_gamma    120.004

_space_group_name_H-M_alt    "P 1"
_space_group_IT_number       1

loop_
  _space_group_symop_operation_xyz
  'x, y, z'

loop_
  _atom_site_type_symbol
  _atom_site_label
  _atom_site_symmetry_multiplicity
  _atom_site_fract_x
  _atom_site_fract_y
  _atom_site_fract_z
  _atom_site_occupancy
  Ag  Ag1       1.0  0.00000  0.00000  0.48500  1.0000
  Ag  Ag2       1.0  0.00020  0.00040  0.98500  1.0000
  Co  Co1       1.0  0.33300  0.66700  0.25400  1.0000
  Co  Co2       1.0  0.66700  0.33300  0.75400  1.0000
  O   O1        1.0  0.00000  0.00000  0.31600  1.0000
  O   O2        1.0  0.00000  0.00000  0.81600  1.0000
  S   S1        1.0  0.66600  0.33300  0.13300  1.0000
  S   S2        1.0  0.33400  0.66700  0.63300  1.0000
