data_image0
_chemical_formula_structural       Cs2Fe2O2S2
_chemical_formula_sum              "Cs2 Fe2 O2 S2"
_cell_length_a       3.84462
_cell_length_b       7.97873
_cell_length_c       6.56536
_cell_angle_alpha    90
_cell_angle_beta     90
_cell_angle_gamma    90

_space_group_name_H-M_alt    "P 1"
_space_group_IT_number       1

loop_
  _space_group_symop_operation_xyz
  'x, y, z'

loop_
  _atom_site_type_symbol
  _atom_site_label
  _atom_site_symmetry_multiplicity
  _atom_site_fract_x
  _atom_site_fract_y
  _atom_site_fract_z
  _atom_site_occupancy
  Cs  Cs1       1.0  0.00000  0.27300  0.06820  1.0000
  Cs  Cs2       1.0  0.00000  0.72700  0.56800  1.0000
  Fe  Fe1       1.0  0.50000  0.88200  0.05700  1.0000
  Fe  Fe2       1.0  0.50000  0.11800  0.55700  1.0000
  O   O1        1.0  0.50000  0.01390  0.29700  1.0000
  O   O2        1.0  0.50000  0.98600  0.79700  1.0000
  S   S1        1.0  0.00000  0.71000  0.06890  1.0000
  S   S2        1.0  0.00000  0.29000  0.56900  1.0000
