data_image0
_chemical_formula_structural       Cs2Ga2O2S2
_chemical_formula_sum              "Cs2 Ga2 O2 S2"
_cell_length_a       4.39206
_cell_length_b       4.39206
_cell_length_c       10.1428
_cell_angle_alpha    90
_cell_angle_beta     90
_cell_angle_gamma    90

_space_group_name_H-M_alt    "P 1"
_space_group_IT_number       1

loop_
  _space_group_symop_operation_xyz
  'x, y, z'

loop_
  _atom_site_type_symbol
  _atom_site_label
  _atom_site_symmetry_multiplicity
  _atom_site_fract_x
  _atom_site_fract_y
  _atom_site_fract_z
  _atom_site_occupancy
  Cs  Cs1       1.0  0.75000  0.25000  0.50000  1.0000
  Cs  Cs2       1.0  0.25000  0.75000  0.50000  1.0000
  Ga  Ga1       1.0  0.75000  0.75000  0.05920  1.0000
  Ga  Ga2       1.0  0.25000  0.25000  0.94100  1.0000
  O   O1        1.0  0.75000  0.25000  0.00000  1.0000
  O   O2        1.0  0.25000  0.75000  0.00000  1.0000
  S   S1        1.0  0.75000  0.75000  0.27600  1.0000
  S   S2        1.0  0.25000  0.25000  0.72400  1.0000
