data_image0
_chemical_formula_structural       Nd2O7Si2
_chemical_formula_sum              "Nd2 O7 Si2"
_cell_length_a       4.75273
_cell_length_b       5.82717
_cell_length_c       5.82717
_cell_angle_alpha    104.846
_cell_angle_beta     96.5504
_cell_angle_gamma    96.5504

_space_group_name_H-M_alt    "P 1"
_space_group_IT_number       1

loop_
  _space_group_symop_operation_xyz
  'x, y, z'

loop_
  _atom_site_type_symbol
  _atom_site_label
  _atom_site_symmetry_multiplicity
  _atom_site_fract_x
  _atom_site_fract_y
  _atom_site_fract_z
  _atom_site_occupancy
  Nd  Nd1       1.0  0.00000  0.69900  0.30100  1.0000
  Nd  Nd2       1.0  0.00000  0.30100  0.69900  1.0000
  O   O1        1.0  0.50000  0.00000  0.00000  1.0000
  O   O2        1.0  0.23300  0.38500  0.09260  1.0000
  O   O3        1.0  0.71700  0.37300  0.37300  1.0000
  O   O4        1.0  0.23300  0.09260  0.38500  1.0000
  O   O5        1.0  0.76700  0.90700  0.61500  1.0000
  O   O6        1.0  0.28300  0.62700  0.62700  1.0000
  O   O7        1.0  0.76700  0.61500  0.90700  1.0000
  Si  Si1       1.0  0.42000  0.21700  0.21700  1.0000
  Si  Si2       1.0  0.58000  0.78300  0.78300  1.0000
