data_image0
_chemical_formula_structural       Dy2H2O8Si2
_chemical_formula_sum              "Dy2 H2 O8 Si2"
_cell_length_a       4.83721
_cell_length_b       6.6552
_cell_length_c       4.45997
_cell_angle_alpha    90
_cell_angle_beta     97.007
_cell_angle_gamma    90

_space_group_name_H-M_alt    "P 1"
_space_group_IT_number       1

loop_
  _space_group_symop_operation_xyz
  'x, y, z'

loop_
  _atom_site_type_symbol
  _atom_site_label
  _atom_site_symmetry_multiplicity
  _atom_site_fract_x
  _atom_site_fract_y
  _atom_site_fract_z
  _atom_site_occupancy
  Dy  Dy1       1.0  0.19700  0.25000  0.07220  1.0000
  Dy  Dy2       1.0  0.80300  0.75000  0.92800  1.0000
  H   H1        1.0  0.00000  0.00000  0.50000  1.0000
  H   H2        1.0  0.00000  0.50000  0.50000  1.0000
  O   O1        1.0  0.68800  0.25000  0.20400  1.0000
  O   O2        1.0  0.11700  0.55700  0.28700  1.0000
  O   O3        1.0  0.11700  0.94300  0.28700  1.0000
  O   O4        1.0  0.62800  0.75000  0.36600  1.0000
  O   O5        1.0  0.37200  0.25000  0.63400  1.0000
  O   O6        1.0  0.88300  0.05710  0.71300  1.0000
  O   O7        1.0  0.88300  0.44300  0.71300  1.0000
  O   O8        1.0  0.31200  0.75000  0.79600  1.0000
  Si  Si1       1.0  0.31000  0.75000  0.43200  1.0000
  Si  Si2       1.0  0.69000  0.25000  0.56800  1.0000
