data_image0
_chemical_formula_structural       B2C3Tb2
_chemical_formula_sum              "B2 C3 Tb2"
_cell_length_a       3.3879
_cell_length_b       3.69362
_cell_length_c       6.85408
_cell_angle_alpha    90
_cell_angle_beta     75.6914
_cell_angle_gamma    90

_space_group_name_H-M_alt    "P 1"
_space_group_IT_number       1

loop_
  _space_group_symop_operation_xyz
  'x, y, z'

loop_
  _atom_site_type_symbol
  _atom_site_label
  _atom_site_symmetry_multiplicity
  _atom_site_fract_x
  _atom_site_fract_y
  _atom_site_fract_z
  _atom_site_occupancy
  B   B1        1.0  0.28300  0.50000  0.43400  1.0000
  B   B2        1.0  0.71700  0.50000  0.56600  1.0000
  C   C1        1.0  0.50000  0.50000  0.00000  1.0000
  C   C2        1.0  0.39900  0.50000  0.20100  1.0000
  C   C3        1.0  0.60100  0.50000  0.79900  1.0000
  Tb  Tb1       1.0  0.86300  0.00000  0.27400  1.0000
  Tb  Tb2       1.0  0.13700  0.00000  0.72600  1.0000
