data_image0
_chemical_formula_structural       Cs4Nd4O4S4
_chemical_formula_sum              "Cs4 Nd4 O4 S4"
_cell_length_a       8.1987
_cell_length_b       7.67701
_cell_length_c       6.91953
_cell_angle_alpha    90
_cell_angle_beta     102.753
_cell_angle_gamma    90

_space_group_name_H-M_alt    "P 1"
_space_group_IT_number       1

loop_
  _space_group_symop_operation_xyz
  'x, y, z'

loop_
  _atom_site_type_symbol
  _atom_site_label
  _atom_site_symmetry_multiplicity
  _atom_site_fract_x
  _atom_site_fract_y
  _atom_site_fract_z
  _atom_site_occupancy
  Cs  Cs1       1.0  0.92000  0.26600  0.00575  1.0000
  Cs  Cs2       1.0  0.08000  0.76600  0.49400  1.0000
  Cs  Cs3       1.0  0.92000  0.23400  0.50600  1.0000
  Cs  Cs4       1.0  0.08000  0.73400  0.99400  1.0000
  Nd  Nd1       1.0  0.52500  0.62800  0.22800  1.0000
  Nd  Nd2       1.0  0.47500  0.12800  0.27200  1.0000
  Nd  Nd3       1.0  0.52500  0.87200  0.72800  1.0000
  Nd  Nd4       1.0  0.47500  0.37200  0.77200  1.0000
  O   O1        1.0  0.59600  0.35400  0.11800  1.0000
  O   O2        1.0  0.40400  0.85400  0.38200  1.0000
  O   O3        1.0  0.59600  0.14600  0.61800  1.0000
  O   O4        1.0  0.40400  0.64600  0.88200  1.0000
  S   S1        1.0  0.73300  0.90900  0.14100  1.0000
  S   S2        1.0  0.26700  0.40900  0.35900  1.0000
  S   S3        1.0  0.73300  0.59100  0.64100  1.0000
  S   S4        1.0  0.26700  0.09120  0.85900  1.0000
