data_image0
_chemical_formula_structural       Nd2O2S2Tl2
_chemical_formula_sum              "Nd2 O2 S2 Tl2"
_cell_length_a       4.57065
_cell_length_b       8.01526
_cell_length_c       6.55254
_cell_angle_alpha    90
_cell_angle_beta     90
_cell_angle_gamma    90

_space_group_name_H-M_alt    "P 1"
_space_group_IT_number       1

loop_
  _space_group_symop_operation_xyz
  'x, y, z'

loop_
  _atom_site_type_symbol
  _atom_site_label
  _atom_site_symmetry_multiplicity
  _atom_site_fract_x
  _atom_site_fract_y
  _atom_site_fract_z
  _atom_site_occupancy
  Nd  Nd1       1.0  0.50000  0.85900  0.03930  1.0000
  Nd  Nd2       1.0  0.50000  0.14100  0.53900  1.0000
  O   O1        1.0  0.50000  0.09450  0.20900  1.0000
  O   O2        1.0  0.50000  0.90500  0.70900  1.0000
  S   S1        1.0  0.00000  0.68700  0.13700  1.0000
  S   S2        1.0  0.00000  0.31300  0.63700  1.0000
  Tl  Tl1       1.0  0.00000  0.30500  0.10600  1.0000
  Tl  Tl2       1.0  0.00000  0.69500  0.60600  1.0000
