data_image0
_chemical_formula_structural       Na4O4Se4Ti4
_chemical_formula_sum              "Na4 O4 Se4 Ti4"
_cell_length_a       7.01282
_cell_length_b       6.60154
_cell_length_c       5.76434
_cell_angle_alpha    90
_cell_angle_beta     104.625
_cell_angle_gamma    90

_space_group_name_H-M_alt    "P 1"
_space_group_IT_number       1

loop_
  _space_group_symop_operation_xyz
  'x, y, z'

loop_
  _atom_site_type_symbol
  _atom_site_label
  _atom_site_symmetry_multiplicity
  _atom_site_fract_x
  _atom_site_fract_y
  _atom_site_fract_z
  _atom_site_occupancy
  Na  Na1       1.0  0.10900  0.75000  0.02500  1.0000
  Na  Na2       1.0  0.89100  0.25000  0.47500  1.0000
  Na  Na3       1.0  0.10900  0.75000  0.52500  1.0000
  Na  Na4       1.0  0.89100  0.25000  0.97500  1.0000
  O   O1        1.0  0.61600  0.34900  0.12700  1.0000
  O   O2        1.0  0.38400  0.84900  0.37300  1.0000
  O   O3        1.0  0.61600  0.15100  0.62700  1.0000
  O   O4        1.0  0.38400  0.65100  0.87300  1.0000
  Se  Se1       1.0  0.76700  0.89600  0.16500  1.0000
  Se  Se2       1.0  0.23300  0.39600  0.33500  1.0000
  Se  Se3       1.0  0.76700  0.60400  0.66500  1.0000
  Se  Se4       1.0  0.23300  0.10400  0.83500  1.0000
  Ti  Ti1       1.0  0.52100  0.61200  0.23400  1.0000
  Ti  Ti2       1.0  0.47900  0.11200  0.26600  1.0000
  Ti  Ti3       1.0  0.52100  0.88800  0.73400  1.0000
  Ti  Ti4       1.0  0.47900  0.38800  0.76600  1.0000
