data_image0
_chemical_formula_structural       Ag4O4Se4Ti4
_chemical_formula_sum              "Ag4 O4 Se4 Ti4"
_cell_length_a       7.12104
_cell_length_b       6.45689
_cell_length_c       5.68224
_cell_angle_alpha    90
_cell_angle_beta     100.483
_cell_angle_gamma    90

_space_group_name_H-M_alt    "P 1"
_space_group_IT_number       1

loop_
  _space_group_symop_operation_xyz
  'x, y, z'

loop_
  _atom_site_type_symbol
  _atom_site_label
  _atom_site_symmetry_multiplicity
  _atom_site_fract_x
  _atom_site_fract_y
  _atom_site_fract_z
  _atom_site_occupancy
  Ag  Ag1       1.0  0.07190  0.70600  0.00467  1.0000
  Ag  Ag2       1.0  0.92800  0.20600  0.49500  1.0000
  Ag  Ag3       1.0  0.07190  0.79400  0.50500  1.0000
  Ag  Ag4       1.0  0.92800  0.29400  0.99500  1.0000
  O   O1        1.0  0.60600  0.36100  0.11900  1.0000
  O   O2        1.0  0.39400  0.86100  0.38100  1.0000
  O   O3        1.0  0.60600  0.13900  0.61900  1.0000
  O   O4        1.0  0.39400  0.63900  0.88100  1.0000
  Se  Se1       1.0  0.76500  0.90600  0.13400  1.0000
  Se  Se2       1.0  0.23500  0.40600  0.36600  1.0000
  Se  Se3       1.0  0.76500  0.59400  0.63400  1.0000
  Se  Se4       1.0  0.23500  0.09380  0.86600  1.0000
  Ti  Ti1       1.0  0.51100  0.63000  0.23300  1.0000
  Ti  Ti2       1.0  0.48900  0.13000  0.26700  1.0000
  Ti  Ti3       1.0  0.51100  0.87000  0.73300  1.0000
  Ti  Ti4       1.0  0.48900  0.37000  0.76700  1.0000
