data_image0
_chemical_formula_structural       O4Rb4Se4Ti4
_chemical_formula_sum              "O4 Rb4 Se4 Ti4"
_cell_length_a       8.81314
_cell_length_b       6.65348
_cell_length_c       5.84932
_cell_angle_alpha    90
_cell_angle_beta     101.188
_cell_angle_gamma    90

_space_group_name_H-M_alt    "P 1"
_space_group_IT_number       1

loop_
  _space_group_symop_operation_xyz
  'x, y, z'

loop_
  _atom_site_type_symbol
  _atom_site_label
  _atom_site_symmetry_multiplicity
  _atom_site_fract_x
  _atom_site_fract_y
  _atom_site_fract_z
  _atom_site_occupancy
  O   O1        1.0  0.57400  0.35000  0.11300  1.0000
  O   O2        1.0  0.42600  0.85000  0.38700  1.0000
  O   O3        1.0  0.57400  0.15000  0.61300  1.0000
  O   O4        1.0  0.42600  0.65000  0.88700  1.0000
  Rb  Rb1       1.0  0.87100  0.43300  0.18700  1.0000
  Rb  Rb2       1.0  0.12900  0.93300  0.31300  1.0000
  Rb  Rb3       1.0  0.87100  0.06690  0.68700  1.0000
  Rb  Rb4       1.0  0.12900  0.56700  0.81300  1.0000
  Se  Se1       1.0  0.71900  0.91100  0.13600  1.0000
  Se  Se2       1.0  0.28100  0.41100  0.36400  1.0000
  Se  Se3       1.0  0.71900  0.58900  0.63600  1.0000
  Se  Se4       1.0  0.28100  0.08850  0.86400  1.0000
  Ti  Ti1       1.0  0.50500  0.62000  0.22800  1.0000
  Ti  Ti2       1.0  0.49500  0.12000  0.27200  1.0000
  Ti  Ti3       1.0  0.50500  0.88000  0.72800  1.0000
  Ti  Ti4       1.0  0.49500  0.38000  0.77200  1.0000
