data_image0
_chemical_formula_structural       Cr4Cu4O4Se4
_chemical_formula_sum              "Cr4 Cu4 O4 Se4"
_cell_length_a       6.157
_cell_length_b       6.57631
_cell_length_c       5.81033
_cell_angle_alpha    90
_cell_angle_beta     96.5335
_cell_angle_gamma    90

_space_group_name_H-M_alt    "P 1"
_space_group_IT_number       1

loop_
  _space_group_symop_operation_xyz
  'x, y, z'

loop_
  _atom_site_type_symbol
  _atom_site_label
  _atom_site_symmetry_multiplicity
  _atom_site_fract_x
  _atom_site_fract_y
  _atom_site_fract_z
  _atom_site_occupancy
  Cr  Cr1       1.0  0.51400  0.62600  0.22300  1.0000
  Cr  Cr2       1.0  0.48600  0.12600  0.27700  1.0000
  Cr  Cr3       1.0  0.51400  0.87400  0.72300  1.0000
  Cr  Cr4       1.0  0.48600  0.37400  0.77700  1.0000
  Cu  Cu1       1.0  0.93400  0.26000  0.11600  1.0000
  Cu  Cu2       1.0  0.06570  0.76000  0.38400  1.0000
  Cu  Cu3       1.0  0.93400  0.24000  0.61600  1.0000
  Cu  Cu4       1.0  0.06570  0.74000  0.88400  1.0000
  O   O1        1.0  0.62900  0.36100  0.10800  1.0000
  O   O2        1.0  0.37100  0.86100  0.39200  1.0000
  O   O3        1.0  0.62900  0.13900  0.60800  1.0000
  O   O4        1.0  0.37100  0.63900  0.89200  1.0000
  Se  Se1       1.0  0.78100  0.89700  0.10800  1.0000
  Se  Se2       1.0  0.21900  0.39700  0.39200  1.0000
  Se  Se3       1.0  0.78100  0.60300  0.60800  1.0000
  Se  Se4       1.0  0.21900  0.10300  0.89200  1.0000
