data_image0
_chemical_formula_structural       K4O4Se4Ti4
_chemical_formula_sum              "K4 O4 Se4 Ti4"
_cell_length_a       7.96831
_cell_length_b       6.58661
_cell_length_c       5.79024
_cell_angle_alpha    90
_cell_angle_beta     94.1302
_cell_angle_gamma    90

_space_group_name_H-M_alt    "P 1"
_space_group_IT_number       1

loop_
  _space_group_symop_operation_xyz
  'x, y, z'

loop_
  _atom_site_type_symbol
  _atom_site_label
  _atom_site_symmetry_multiplicity
  _atom_site_fract_x
  _atom_site_fract_y
  _atom_site_fract_z
  _atom_site_occupancy
  K   K1        1.0  0.88100  0.36200  0.13300  1.0000
  K   K2        1.0  0.11900  0.86200  0.36700  1.0000
  K   K3        1.0  0.88100  0.13800  0.63300  1.0000
  K   K4        1.0  0.11900  0.63800  0.86700  1.0000
  O   O1        1.0  0.57500  0.34900  0.10100  1.0000
  O   O2        1.0  0.42500  0.84900  0.39900  1.0000
  O   O3        1.0  0.57500  0.15100  0.60100  1.0000
  O   O4        1.0  0.42500  0.65100  0.89900  1.0000
  Se  Se1       1.0  0.73700  0.90900  0.09920  1.0000
  Se  Se2       1.0  0.26300  0.40900  0.40100  1.0000
  Se  Se3       1.0  0.73700  0.59100  0.59900  1.0000
  Se  Se4       1.0  0.26300  0.09100  0.90100  1.0000
  Ti  Ti1       1.0  0.51800  0.62300  0.23100  1.0000
  Ti  Ti2       1.0  0.48200  0.12300  0.26900  1.0000
  Ti  Ti3       1.0  0.51800  0.87700  0.73100  1.0000
  Ti  Ti4       1.0  0.48200  0.37700  0.76900  1.0000
