data_image0
_chemical_formula_structural       Lu2O2S2Tl2
_chemical_formula_sum              "Lu2 O2 S2 Tl2"
_cell_length_a       4.24246
_cell_length_b       8.00133
_cell_length_c       6.39194
_cell_angle_alpha    90
_cell_angle_beta     90
_cell_angle_gamma    90

_space_group_name_H-M_alt    "P 1"
_space_group_IT_number       1

loop_
  _space_group_symop_operation_xyz
  'x, y, z'

loop_
  _atom_site_type_symbol
  _atom_site_label
  _atom_site_symmetry_multiplicity
  _atom_site_fract_x
  _atom_site_fract_y
  _atom_site_fract_z
  _atom_site_occupancy
  Lu  Lu1       1.0  0.50000  0.87200  0.04030  1.0000
  Lu  Lu2       1.0  0.50000  0.12800  0.54000  1.0000
  O   O1        1.0  0.50000  0.08100  0.22500  1.0000
  O   O2        1.0  0.50000  0.91900  0.72500  1.0000
  S   S1        1.0  0.00000  0.70000  0.11500  1.0000
  S   S2        1.0  0.00000  0.30000  0.61500  1.0000
  Tl  Tl1       1.0  0.00000  0.30600  0.11100  1.0000
  Tl  Tl2       1.0  0.00000  0.69400  0.61100  1.0000
