data_image0
_chemical_formula_structural       Ag4Cr4O4Se4
_chemical_formula_sum              "Ag4 Cr4 O4 Se4"
_cell_length_a       6.70685
_cell_length_b       6.5763
_cell_length_c       5.86542
_cell_angle_alpha    90
_cell_angle_beta     95.279
_cell_angle_gamma    90

_space_group_name_H-M_alt    "P 1"
_space_group_IT_number       1

loop_
  _space_group_symop_operation_xyz
  'x, y, z'

loop_
  _atom_site_type_symbol
  _atom_site_label
  _atom_site_symmetry_multiplicity
  _atom_site_fract_x
  _atom_site_fract_y
  _atom_site_fract_z
  _atom_site_occupancy
  Ag  Ag1       1.0  0.94400  0.29900  0.09490  1.0000
  Ag  Ag2       1.0  0.05650  0.79900  0.40500  1.0000
  Ag  Ag3       1.0  0.94400  0.20100  0.59500  1.0000
  Ag  Ag4       1.0  0.05650  0.70100  0.90500  1.0000
  Cr  Cr1       1.0  0.51000  0.62800  0.22000  1.0000
  Cr  Cr2       1.0  0.49000  0.12800  0.28000  1.0000
  Cr  Cr3       1.0  0.51000  0.87200  0.72000  1.0000
  Cr  Cr4       1.0  0.49000  0.37200  0.78000  1.0000
  O   O1        1.0  0.61400  0.36300  0.10700  1.0000
  O   O2        1.0  0.38600  0.86300  0.39300  1.0000
  O   O3        1.0  0.61400  0.13700  0.60700  1.0000
  O   O4        1.0  0.38600  0.63700  0.89300  1.0000
  Se  Se1       1.0  0.75300  0.90100  0.09890  1.0000
  Se  Se2       1.0  0.24700  0.40100  0.40100  1.0000
  Se  Se3       1.0  0.75300  0.59900  0.59900  1.0000
  Se  Se4       1.0  0.24700  0.09920  0.90100  1.0000
