data_image0
_chemical_formula_structural       Hg4Nb4O4Se4
_chemical_formula_sum              "Hg4 Nb4 O4 Se4"
_cell_length_a       7.70573
_cell_length_b       6.6529
_cell_length_c       5.75022
_cell_angle_alpha    90
_cell_angle_beta     92.558
_cell_angle_gamma    90

_space_group_name_H-M_alt    "P 1"
_space_group_IT_number       1

loop_
  _space_group_symop_operation_xyz
  'x, y, z'

loop_
  _atom_site_type_symbol
  _atom_site_label
  _atom_site_symmetry_multiplicity
  _atom_site_fract_x
  _atom_site_fract_y
  _atom_site_fract_z
  _atom_site_occupancy
  Hg  Hg1       1.0  0.93200  0.30200  0.02540  1.0000
  Hg  Hg2       1.0  0.06760  0.80200  0.47500  1.0000
  Hg  Hg3       1.0  0.93200  0.19800  0.52500  1.0000
  Hg  Hg4       1.0  0.06760  0.69800  0.97500  1.0000
  Nb  Nb1       1.0  0.48900  0.12700  0.22600  1.0000
  Nb  Nb2       1.0  0.51100  0.62700  0.27400  1.0000
  Nb  Nb3       1.0  0.48900  0.37300  0.72600  1.0000
  Nb  Nb4       1.0  0.51100  0.87300  0.77400  1.0000
  O   O1        1.0  0.60600  0.37000  0.09610  1.0000
  O   O2        1.0  0.39400  0.87000  0.40400  1.0000
  O   O3        1.0  0.60600  0.13000  0.59600  1.0000
  O   O4        1.0  0.39400  0.63000  0.90400  1.0000
  Se  Se1       1.0  0.73900  0.90000  0.10100  1.0000
  Se  Se2       1.0  0.26100  0.40000  0.39900  1.0000
  Se  Se3       1.0  0.73900  0.60000  0.60100  1.0000
  Se  Se4       1.0  0.26100  0.10000  0.89900  1.0000
