data_image0
_chemical_formula_structural       Ag4Mn4O4Se4
_chemical_formula_sum              "Ag4 Mn4 O4 Se4"
_cell_length_a       6.19926
_cell_length_b       3.37552
_cell_length_c       12.9964
_cell_angle_alpha    90
_cell_angle_beta     90
_cell_angle_gamma    90

_space_group_name_H-M_alt    "P 1"
_space_group_IT_number       1

loop_
  _space_group_symop_operation_xyz
  'x, y, z'

loop_
  _atom_site_type_symbol
  _atom_site_label
  _atom_site_symmetry_multiplicity
  _atom_site_fract_x
  _atom_site_fract_y
  _atom_site_fract_z
  _atom_site_occupancy
  Ag  Ag1       1.0  0.55100  0.25000  0.24600  1.0000
  Ag  Ag2       1.0  0.05080  0.25000  0.25400  1.0000
  Ag  Ag3       1.0  0.94900  0.75000  0.74600  1.0000
  Ag  Ag4       1.0  0.44900  0.75000  0.75400  1.0000
  Mn  Mn1       1.0  0.23900  0.75000  0.04870  1.0000
  Mn  Mn2       1.0  0.73900  0.75000  0.45100  1.0000
  Mn  Mn3       1.0  0.26100  0.25000  0.54900  1.0000
  Mn  Mn4       1.0  0.76100  0.25000  0.95100  1.0000
  O   O1        1.0  0.29500  0.25000  0.12900  1.0000
  O   O2        1.0  0.79500  0.25000  0.37100  1.0000
  O   O3        1.0  0.20500  0.75000  0.62900  1.0000
  O   O4        1.0  0.70500  0.75000  0.87100  1.0000
  Se  Se1       1.0  0.79900  0.75000  0.10200  1.0000
  Se  Se2       1.0  0.29900  0.75000  0.39800  1.0000
  Se  Se3       1.0  0.70100  0.25000  0.60200  1.0000
  Se  Se4       1.0  0.20100  0.25000  0.89800  1.0000
