data_image0
_chemical_formula_structural       CdK4P2
_chemical_formula_sum              "Cd1 K4 P2"
_cell_length_a       5.67975
_cell_length_b       5.67961
_cell_length_c       9.63544
_cell_angle_alpha    107.113
_cell_angle_beta     90
_cell_angle_gamma    120.001

_space_group_name_H-M_alt    "P 1"
_space_group_IT_number       1

loop_
  _space_group_symop_operation_xyz
  'x, y, z'

loop_
  _atom_site_type_symbol
  _atom_site_label
  _atom_site_symmetry_multiplicity
  _atom_site_fract_x
  _atom_site_fract_y
  _atom_site_fract_z
  _atom_site_occupancy
  Cd  Cd1       1.0  1.00000  1.00000  0.50000  1.0000
  K   K1        1.0  0.20800  0.41600  0.12400  1.0000
  K   K2        1.0  0.60700  0.21500  0.32300  1.0000
  K   K3        1.0  0.39300  0.78500  0.67700  1.0000
  K   K4        1.0  0.79200  0.58400  0.87600  1.0000
  P   P1        1.0  0.91100  0.82200  0.23300  1.0000
  P   P2        1.0  0.08920  0.17800  0.76700  1.0000
