data_image0
_chemical_formula_structural       Li4Nb4O4Se4
_chemical_formula_sum              "Li4 Nb4 O4 Se4"
_cell_length_a       6.45702
_cell_length_b       5.93633
_cell_length_c       5.92647
_cell_angle_alpha    90
_cell_angle_beta     98.8404
_cell_angle_gamma    90

_space_group_name_H-M_alt    "P 1"
_space_group_IT_number       1

loop_
  _space_group_symop_operation_xyz
  'x, y, z'

loop_
  _atom_site_type_symbol
  _atom_site_label
  _atom_site_symmetry_multiplicity
  _atom_site_fract_x
  _atom_site_fract_y
  _atom_site_fract_z
  _atom_site_occupancy
  Li  Li1       1.0  0.11600  0.69600  0.00026  1.0000
  Li  Li2       1.0  0.88400  0.19600  0.50000  1.0000
  Li  Li3       1.0  0.11600  0.80400  0.50000  1.0000
  Li  Li4       1.0  0.88400  0.30400  1.00000  1.0000
  Nb  Nb1       1.0  0.44400  0.03450  0.20700  1.0000
  Nb  Nb2       1.0  0.55600  0.53400  0.29300  1.0000
  Nb  Nb3       1.0  0.44400  0.46600  0.70700  1.0000
  Nb  Nb4       1.0  0.55600  0.96600  0.79300  1.0000
  O   O1        1.0  0.59800  0.28800  0.00698  1.0000
  O   O2        1.0  0.40200  0.78800  0.49300  1.0000
  O   O3        1.0  0.59800  0.21200  0.50700  1.0000
  O   O4        1.0  0.40200  0.71200  0.99300  1.0000
  Se  Se1       1.0  0.82000  0.87000  0.17400  1.0000
  Se  Se2       1.0  0.18000  0.37000  0.32600  1.0000
  Se  Se3       1.0  0.82000  0.63000  0.67400  1.0000
  Se  Se4       1.0  0.18000  0.13000  0.82600  1.0000
