data_image0
_chemical_formula_structural       Cu4Ir4O4Se4
_chemical_formula_sum              "Cu4 Ir4 O4 Se4"
_cell_length_a       5.91503
_cell_length_b       6.74781
_cell_length_c       6.18424
_cell_angle_alpha    90
_cell_angle_beta     91.0833
_cell_angle_gamma    90

_space_group_name_H-M_alt    "P 1"
_space_group_IT_number       1

loop_
  _space_group_symop_operation_xyz
  'x, y, z'

loop_
  _atom_site_type_symbol
  _atom_site_label
  _atom_site_symmetry_multiplicity
  _atom_site_fract_x
  _atom_site_fract_y
  _atom_site_fract_z
  _atom_site_occupancy
  Cu  Cu1       1.0  0.93600  0.29800  0.01680  1.0000
  Cu  Cu2       1.0  0.06390  0.79800  0.48300  1.0000
  Cu  Cu3       1.0  0.93600  0.20200  0.51700  1.0000
  Cu  Cu4       1.0  0.06390  0.70200  0.98300  1.0000
  Ir  Ir1       1.0  0.50100  0.62700  0.23500  1.0000
  Ir  Ir2       1.0  0.49900  0.12700  0.26500  1.0000
  Ir  Ir3       1.0  0.50100  0.87300  0.73500  1.0000
  Ir  Ir4       1.0  0.49900  0.37300  0.76500  1.0000
  O   O1        1.0  0.64400  0.37600  0.09960  1.0000
  O   O2        1.0  0.35600  0.87600  0.40000  1.0000
  O   O3        1.0  0.64400  0.12400  0.60000  1.0000
  O   O4        1.0  0.35600  0.62400  0.90000  1.0000
  Se  Se1       1.0  0.73500  0.86900  0.06170  1.0000
  Se  Se2       1.0  0.26500  0.36900  0.43800  1.0000
  Se  Se3       1.0  0.73500  0.63100  0.56200  1.0000
  Se  Se4       1.0  0.26500  0.13100  0.93800  1.0000
