data_image0
_chemical_formula_structural       Au4Fe4O4Se4
_chemical_formula_sum              "Au4 Fe4 O4 Se4"
_cell_length_a       6.62473
_cell_length_b       6.41378
_cell_length_c       6.23286
_cell_angle_alpha    90
_cell_angle_beta     91.3603
_cell_angle_gamma    90

_space_group_name_H-M_alt    "P 1"
_space_group_IT_number       1

loop_
  _space_group_symop_operation_xyz
  'x, y, z'

loop_
  _atom_site_type_symbol
  _atom_site_label
  _atom_site_symmetry_multiplicity
  _atom_site_fract_x
  _atom_site_fract_y
  _atom_site_fract_z
  _atom_site_occupancy
  Au  Au1       1.0  0.92000  0.29300  0.02890  1.0000
  Au  Au2       1.0  0.08000  0.79300  0.47100  1.0000
  Au  Au3       1.0  0.92000  0.20700  0.52900  1.0000
  Au  Au4       1.0  0.08000  0.70700  0.97100  1.0000
  Fe  Fe1       1.0  0.51600  0.63400  0.21100  1.0000
  Fe  Fe2       1.0  0.48400  0.13400  0.28900  1.0000
  Fe  Fe3       1.0  0.51600  0.86600  0.71100  1.0000
  Fe  Fe4       1.0  0.48400  0.36600  0.78900  1.0000
  O   O1        1.0  0.61000  0.35800  0.10600  1.0000
  O   O2        1.0  0.39000  0.85800  0.39400  1.0000
  O   O3        1.0  0.61000  0.14200  0.60600  1.0000
  O   O4        1.0  0.39000  0.64200  0.89400  1.0000
  Se  Se1       1.0  0.77000  0.90100  0.05130  1.0000
  Se  Se2       1.0  0.23000  0.40100  0.44900  1.0000
  Se  Se3       1.0  0.77000  0.59900  0.55100  1.0000
  Se  Se4       1.0  0.23000  0.09900  0.94900  1.0000
