data_image0
_chemical_formula_structural       Ir4Na4O4Se4
_chemical_formula_sum              "Ir4 Na4 O4 Se4"
_cell_length_a       6.36143
_cell_length_b       6.93952
_cell_length_c       6.1369
_cell_angle_alpha    90
_cell_angle_beta     105.69
_cell_angle_gamma    90

_space_group_name_H-M_alt    "P 1"
_space_group_IT_number       1

loop_
  _space_group_symop_operation_xyz
  'x, y, z'

loop_
  _atom_site_type_symbol
  _atom_site_label
  _atom_site_symmetry_multiplicity
  _atom_site_fract_x
  _atom_site_fract_y
  _atom_site_fract_z
  _atom_site_occupancy
  Ir  Ir1       1.0  0.52100  0.62100  0.24100  1.0000
  Ir  Ir2       1.0  0.47900  0.12100  0.25900  1.0000
  Ir  Ir3       1.0  0.52100  0.87900  0.74100  1.0000
  Ir  Ir4       1.0  0.47900  0.37900  0.75900  1.0000
  Na  Na1       1.0  0.10200  0.76400  0.01660  1.0000
  Na  Na2       1.0  0.89800  0.26400  0.48300  1.0000
  Na  Na3       1.0  0.10200  0.73600  0.51700  1.0000
  Na  Na4       1.0  0.89800  0.23600  0.98300  1.0000
  O   O1        1.0  0.63200  0.36200  0.12900  1.0000
  O   O2        1.0  0.36800  0.86200  0.37100  1.0000
  O   O3        1.0  0.63200  0.13800  0.62900  1.0000
  O   O4        1.0  0.36800  0.63800  0.87100  1.0000
  Se  Se1       1.0  0.72800  0.89100  0.14300  1.0000
  Se  Se2       1.0  0.27200  0.39100  0.35700  1.0000
  Se  Se3       1.0  0.72800  0.60900  0.64300  1.0000
  Se  Se4       1.0  0.27200  0.10900  0.85700  1.0000
