data_image0
_chemical_formula_structural       Ca19H54Mg8
_chemical_formula_sum              "Ca19 H54 Mg8"
_cell_length_a       10.3832
_cell_length_b       10.3832
_cell_length_c       10.3832
_cell_angle_alpha    109.471
_cell_angle_beta     109.471
_cell_angle_gamma    109.471

_space_group_name_H-M_alt    "P 1"
_space_group_IT_number       1

loop_
  _space_group_symop_operation_xyz
  'x, y, z'

loop_
  _atom_site_type_symbol
  _atom_site_label
  _atom_site_symmetry_multiplicity
  _atom_site_fract_x
  _atom_site_fract_y
  _atom_site_fract_z
  _atom_site_occupancy
  Ca  Ca1       1.0  0.00000  0.00000  0.00000  1.0000
  Ca  Ca2       1.0  0.33100  0.33100  0.00000  1.0000
  Ca  Ca3       1.0  0.66900  0.66900  0.00000  1.0000
  Ca  Ca4       1.0  0.34600  0.68800  0.03320  1.0000
  Ca  Ca5       1.0  0.65800  0.34600  0.31200  1.0000
  Ca  Ca6       1.0  0.96700  0.65400  0.31200  1.0000
  Ca  Ca7       1.0  0.33100  0.00000  0.33100  1.0000
  Ca  Ca8       1.0  0.00000  0.33100  0.33100  1.0000
  Ca  Ca9       1.0  0.65400  0.68800  0.34200  1.0000
  Ca  Ca10      1.0  0.68800  0.03320  0.34600  1.0000
  Ca  Ca11      1.0  0.31200  0.65800  0.34600  1.0000
  Ca  Ca12      1.0  0.68800  0.34200  0.65400  1.0000
  Ca  Ca13      1.0  0.31200  0.96700  0.65400  1.0000
  Ca  Ca14      1.0  0.34600  0.31200  0.65800  1.0000
  Ca  Ca15      1.0  0.66900  0.00000  0.66900  1.0000
  Ca  Ca16      1.0  0.00000  0.66900  0.66900  1.0000
  Ca  Ca17      1.0  0.03320  0.34600  0.68800  1.0000
  Ca  Ca18      1.0  0.34200  0.65400  0.68800  1.0000
  Ca  Ca19      1.0  0.65400  0.31200  0.96700  1.0000
  H   H1        1.0  0.48100  0.19900  0.05510  1.0000
  H   H2        1.0  0.85600  0.57400  0.05510  1.0000
  H   H3        1.0  0.88900  0.17200  0.06090  1.0000
  H   H4        1.0  0.17200  0.28200  0.11100  1.0000
  H   H5        1.0  0.82800  0.93900  0.11100  1.0000
  H   H6        1.0  0.61500  0.50000  0.11500  1.0000
  H   H7        1.0  0.19900  0.71900  0.14400  1.0000
  H   H8        1.0  0.42600  0.94500  0.14400  1.0000
  H   H9        1.0  0.06090  0.88900  0.17200  1.0000
  H   H10       1.0  0.28200  0.11100  0.17200  1.0000
  H   H11       1.0  0.39700  0.57800  0.18100  1.0000
  H   H12       1.0  0.60300  0.78400  0.18100  1.0000
  H   H13       1.0  0.71900  0.14400  0.19900  1.0000
  H   H14       1.0  0.05510  0.48100  0.19900  1.0000
  H   H15       1.0  0.81900  0.39700  0.21600  1.0000
  H   H16       1.0  0.48100  0.42600  0.28100  1.0000
  H   H17       1.0  0.85600  0.80100  0.28100  1.0000
  H   H18       1.0  0.11100  0.17200  0.28200  1.0000
  H   H19       1.0  0.50000  0.88500  0.38500  1.0000
  H   H20       1.0  0.57800  0.18100  0.39700  1.0000
  H   H21       1.0  0.21600  0.81900  0.39700  1.0000
  H   H22       1.0  0.81900  0.60300  0.42200  1.0000
  H   H23       1.0  0.94500  0.14400  0.42600  1.0000
  H   H24       1.0  0.28100  0.48100  0.42600  1.0000
  H   H25       1.0  0.19900  0.05510  0.48100  1.0000
  H   H26       1.0  0.42600  0.28100  0.48100  1.0000
  H   H27       1.0  0.88500  0.38500  0.50000  1.0000
  H   H28       1.0  0.11500  0.61500  0.50000  1.0000
  H   H29       1.0  0.57400  0.71900  0.51900  1.0000
  H   H30       1.0  0.80100  0.94500  0.51900  1.0000
  H   H31       1.0  0.71900  0.51900  0.57400  1.0000
  H   H32       1.0  0.05510  0.85600  0.57400  1.0000
  H   H33       1.0  0.18100  0.39700  0.57800  1.0000
  H   H34       1.0  0.42200  0.81900  0.60300  1.0000
  H   H35       1.0  0.78400  0.18100  0.60300  1.0000
  H   H36       1.0  0.50000  0.11500  0.61500  1.0000
  H   H37       1.0  0.88900  0.82800  0.71800  1.0000
  H   H38       1.0  0.14400  0.19900  0.71900  1.0000
  H   H39       1.0  0.51900  0.57400  0.71900  1.0000
  H   H40       1.0  0.18100  0.60300  0.78400  1.0000
  H   H41       1.0  0.94500  0.51900  0.80100  1.0000
  H   H42       1.0  0.28100  0.85600  0.80100  1.0000
  H   H43       1.0  0.39700  0.21600  0.81900  1.0000
  H   H44       1.0  0.60300  0.42200  0.81900  1.0000
  H   H45       1.0  0.93900  0.11100  0.82800  1.0000
  H   H46       1.0  0.71800  0.88900  0.82800  1.0000
  H   H47       1.0  0.57400  0.05510  0.85600  1.0000
  H   H48       1.0  0.80100  0.28100  0.85600  1.0000
  H   H49       1.0  0.38500  0.50000  0.88500  1.0000
  H   H50       1.0  0.17200  0.06090  0.88900  1.0000
  H   H51       1.0  0.82800  0.71800  0.88900  1.0000
  H   H52       1.0  0.11100  0.82800  0.93900  1.0000
  H   H53       1.0  0.14400  0.42600  0.94500  1.0000
  H   H54       1.0  0.51900  0.80100  0.94500  1.0000
  Mg  Mg1       1.0  0.68300  0.00000  0.00000  1.0000
  Mg  Mg2       1.0  0.31700  0.00000  0.00000  1.0000
  Mg  Mg3       1.0  0.00000  0.31700  0.00000  1.0000
  Mg  Mg4       1.0  0.00000  0.68300  0.00000  1.0000
  Mg  Mg5       1.0  0.00000  0.00000  0.31700  1.0000
  Mg  Mg6       1.0  0.31700  0.31700  0.31700  1.0000
  Mg  Mg7       1.0  0.00000  0.00000  0.68300  1.0000
  Mg  Mg8       1.0  0.68300  0.68300  0.68300  1.0000
