data_image0
_chemical_formula_structural       K4O4Os4Se4
_chemical_formula_sum              "K4 O4 Os4 Se4"
_cell_length_a       7.35839
_cell_length_b       6.29965
_cell_length_c       6.55973
_cell_angle_alpha    90
_cell_angle_beta     107.942
_cell_angle_gamma    90

_space_group_name_H-M_alt    "P 1"
_space_group_IT_number       1

loop_
  _space_group_symop_operation_xyz
  'x, y, z'

loop_
  _atom_site_type_symbol
  _atom_site_label
  _atom_site_symmetry_multiplicity
  _atom_site_fract_x
  _atom_site_fract_y
  _atom_site_fract_z
  _atom_site_occupancy
  K   K1        1.0  0.09780  0.75100  0.03870  1.0000
  K   K2        1.0  0.90200  0.25100  0.46100  1.0000
  K   K3        1.0  0.09780  0.74900  0.53900  1.0000
  K   K4        1.0  0.90200  0.24900  0.96100  1.0000
  O   O1        1.0  0.62500  0.36600  0.11000  1.0000
  O   O2        1.0  0.37500  0.86600  0.39000  1.0000
  O   O3        1.0  0.62500  0.13400  0.61000  1.0000
  O   O4        1.0  0.37500  0.63400  0.89000  1.0000
  Os  Os1       1.0  0.52400  0.61400  0.23900  1.0000
  Os  Os2       1.0  0.47600  0.11400  0.26100  1.0000
  Os  Os3       1.0  0.52400  0.88600  0.73900  1.0000
  Os  Os4       1.0  0.47600  0.38600  0.76100  1.0000
  Se  Se1       1.0  0.70800  0.88500  0.12700  1.0000
  Se  Se2       1.0  0.29200  0.38500  0.37300  1.0000
  Se  Se3       1.0  0.70800  0.61500  0.62700  1.0000
  Se  Se4       1.0  0.29200  0.11500  0.87300  1.0000
