data_image0
_chemical_formula_structural       ErGa4V2
_chemical_formula_sum              "Er1 Ga4 V2"
_cell_length_a       5.21284
_cell_length_b       5.34357
_cell_length_c       5.34357
_cell_angle_alpha    103.764
_cell_angle_beta     60.806
_cell_angle_gamma    119.194

_space_group_name_H-M_alt    "P 1"
_space_group_IT_number       1

loop_
  _space_group_symop_operation_xyz
  'x, y, z'

loop_
  _atom_site_type_symbol
  _atom_site_label
  _atom_site_symmetry_multiplicity
  _atom_site_fract_x
  _atom_site_fract_y
  _atom_site_fract_z
  _atom_site_occupancy
  Er  Er1       1.0  0.00000  0.00000  0.00000  1.0000
  Ga  Ga1       1.0  0.69700  0.39500  0.00000  1.0000
  Ga  Ga2       1.0  0.30300  0.60500  0.00000  1.0000
  Ga  Ga3       1.0  0.30300  0.00000  0.39500  1.0000
  Ga  Ga4       1.0  0.69700  0.00000  0.60500  1.0000
  V   V1        1.0  0.25000  0.50000  0.50000  1.0000
  V   V2        1.0  0.75000  0.50000  0.50000  1.0000
