data_image0
_chemical_formula_structural       O4Rb4Ru4Se4
_chemical_formula_sum              "O4 Rb4 Ru4 Se4"
_cell_length_a       6.47012
_cell_length_b       8.2409
_cell_length_c       6.7267
_cell_angle_alpha    90
_cell_angle_beta     93.6769
_cell_angle_gamma    90

_space_group_name_H-M_alt    "P 1"
_space_group_IT_number       1

loop_
  _space_group_symop_operation_xyz
  'x, y, z'

loop_
  _atom_site_type_symbol
  _atom_site_label
  _atom_site_symmetry_multiplicity
  _atom_site_fract_x
  _atom_site_fract_y
  _atom_site_fract_z
  _atom_site_occupancy
  O   O1        1.0  0.50000  0.66500  0.04070  1.0000
  O   O2        1.0  0.50000  0.16500  0.45900  1.0000
  O   O3        1.0  0.50000  0.83500  0.54100  1.0000
  O   O4        1.0  0.50000  0.33500  0.95900  1.0000
  Rb  Rb1       1.0  0.06980  0.70000  0.00435  1.0000
  Rb  Rb2       1.0  0.93000  0.20000  0.49600  1.0000
  Rb  Rb3       1.0  0.06980  0.80000  0.50400  1.0000
  Rb  Rb4       1.0  0.93000  0.30000  0.99600  1.0000
  Ru  Ru1       1.0  0.46100  0.19100  0.17900  1.0000
  Ru  Ru2       1.0  0.53900  0.69100  0.32100  1.0000
  Ru  Ru3       1.0  0.46100  0.30900  0.67900  1.0000
  Ru  Ru4       1.0  0.53900  0.80900  0.82100  1.0000
  Se  Se1       1.0  0.70100  0.95100  0.13700  1.0000
  Se  Se2       1.0  0.29900  0.45100  0.36300  1.0000
  Se  Se3       1.0  0.70100  0.54900  0.63700  1.0000
  Se  Se4       1.0  0.29900  0.04850  0.86300  1.0000
