data_image0
_chemical_formula_structural       Eu4Ge4H8O16
_chemical_formula_sum              "Eu4 Ge4 H8 O16"
_cell_length_a       12.7585
_cell_length_b       5.98203
_cell_length_c       5.04385
_cell_angle_alpha    90
_cell_angle_beta     109.254
_cell_angle_gamma    90

_space_group_name_H-M_alt    "P 1"
_space_group_IT_number       1

loop_
  _space_group_symop_operation_xyz
  'x, y, z'

loop_
  _atom_site_type_symbol
  _atom_site_label
  _atom_site_symmetry_multiplicity
  _atom_site_fract_x
  _atom_site_fract_y
  _atom_site_fract_z
  _atom_site_occupancy
  Eu  Eu1       1.0  0.86000  0.26100  0.12700  1.0000
  Eu  Eu2       1.0  0.36000  0.23900  0.12700  1.0000
  Eu  Eu3       1.0  0.64000  0.76100  0.87300  1.0000
  Eu  Eu4       1.0  0.14000  0.73900  0.87300  1.0000
  Ge  Ge1       1.0  0.11700  0.23100  0.22200  1.0000
  Ge  Ge2       1.0  0.61700  0.26900  0.22200  1.0000
  Ge  Ge3       1.0  0.88300  0.76900  0.77800  1.0000
  Ge  Ge4       1.0  0.38300  0.73100  0.77800  1.0000
  H   H1        1.0  0.47100  0.74300  0.28400  1.0000
  H   H2        1.0  0.97100  0.75700  0.28400  1.0000
  H   H3        1.0  0.24200  0.49400  0.46800  1.0000
  H   H4        1.0  0.74200  0.00648  0.46800  1.0000
  H   H5        1.0  0.75800  0.50600  0.53200  1.0000
  H   H6        1.0  0.25800  0.99400  0.53200  1.0000
  H   H7        1.0  0.02920  0.24300  0.71600  1.0000
  H   H8        1.0  0.52900  0.25700  0.71600  1.0000
  O   O1        1.0  0.49300  0.75300  0.10100  1.0000
  O   O2        1.0  0.99300  0.74700  0.10100  1.0000
  O   O3        1.0  0.21100  0.01540  0.22800  1.0000
  O   O4        1.0  0.71100  0.48500  0.22800  1.0000
  O   O5        1.0  0.21000  0.46800  0.24800  1.0000
  O   O6        1.0  0.71000  0.03220  0.24800  1.0000
  O   O7        1.0  0.54500  0.25900  0.45600  1.0000
  O   O8        1.0  0.04510  0.24100  0.45600  1.0000
  O   O9        1.0  0.95500  0.75900  0.54400  1.0000
  O   O10       1.0  0.45500  0.74100  0.54400  1.0000
  O   O11       1.0  0.29000  0.96800  0.75200  1.0000
  O   O12       1.0  0.79000  0.53200  0.75200  1.0000
  O   O13       1.0  0.28900  0.51500  0.77200  1.0000
  O   O14       1.0  0.78900  0.98500  0.77200  1.0000
  O   O15       1.0  0.00672  0.25300  0.89900  1.0000
  O   O16       1.0  0.50700  0.24700  0.89900  1.0000
