data_image0
_chemical_formula_structural       Ge2H4Lu2O8
_chemical_formula_sum              "Ge2 H4 Lu2 O8"
_cell_length_a       6.70248
_cell_length_b       6.12642
_cell_length_c       4.91413
_cell_angle_alpha    90
_cell_angle_beta     121.268
_cell_angle_gamma    90

_space_group_name_H-M_alt    "P 1"
_space_group_IT_number       1

loop_
  _space_group_symop_operation_xyz
  'x, y, z'

loop_
  _atom_site_type_symbol
  _atom_site_label
  _atom_site_symmetry_multiplicity
  _atom_site_fract_x
  _atom_site_fract_y
  _atom_site_fract_z
  _atom_site_occupancy
  Ge  Ge1       1.0  0.70200  0.25000  0.41000  1.0000
  Ge  Ge2       1.0  0.29800  0.75000  0.59000  1.0000
  H   H1        1.0  0.52700  0.75000  0.18500  1.0000
  H   H2        1.0  0.00000  0.00000  0.50000  1.0000
  H   H3        1.0  0.00000  0.50000  0.50000  1.0000
  H   H4        1.0  0.47300  0.25000  0.81500  1.0000
  Lu  Lu1       1.0  0.16600  0.25000  0.11900  1.0000
  Lu  Lu2       1.0  0.83400  0.75000  0.88100  1.0000
  O   O1        1.0  0.57400  0.75000  0.01260  1.0000
  O   O2        1.0  0.06330  0.52400  0.31200  1.0000
  O   O3        1.0  0.06330  0.97600  0.31200  1.0000
  O   O4        1.0  0.49200  0.75000  0.44600  1.0000
  O   O5        1.0  0.50800  0.25000  0.55400  1.0000
  O   O6        1.0  0.93700  0.02380  0.68800  1.0000
  O   O7        1.0  0.93700  0.47600  0.68800  1.0000
  O   O8        1.0  0.42600  0.25000  0.98700  1.0000
