data_image0
_chemical_formula_structural       P3Sn4
_chemical_formula_sum              "P3 Sn4"
_cell_length_a       4.01414
_cell_length_b       4.01414
_cell_length_c       12.1757
_cell_angle_alpha    90
_cell_angle_beta     99.4881
_cell_angle_gamma    60

_space_group_name_H-M_alt    "P 1"
_space_group_IT_number       1

loop_
  _space_group_symop_operation_xyz
  'x, y, z'

loop_
  _atom_site_type_symbol
  _atom_site_label
  _atom_site_symmetry_multiplicity
  _atom_site_fract_x
  _atom_site_fract_y
  _atom_site_fract_z
  _atom_site_occupancy
  P   P1        1.0  0.00000  0.00000  0.00000  1.0000
  P   P2        1.0  0.85800  0.57100  0.28700  1.0000
  P   P3        1.0  0.14200  0.42900  0.71300  1.0000
  Sn  Sn1       1.0  0.42100  0.29000  0.13100  1.0000
  Sn  Sn2       1.0  0.26700  0.86600  0.40100  1.0000
  Sn  Sn3       1.0  0.73300  0.13400  0.59900  1.0000
  Sn  Sn4       1.0  0.57900  0.71000  0.86900  1.0000
