data_image0
_chemical_formula_structural       Ag4O4Ru4Se4
_chemical_formula_sum              "Ag4 O4 Ru4 Se4"
_cell_length_a       6.81516
_cell_length_b       6.09277
_cell_length_c       6.1703
_cell_angle_alpha    90
_cell_angle_beta     95.7824
_cell_angle_gamma    90

_space_group_name_H-M_alt    "P 1"
_space_group_IT_number       1

loop_
  _space_group_symop_operation_xyz
  'x, y, z'

loop_
  _atom_site_type_symbol
  _atom_site_label
  _atom_site_symmetry_multiplicity
  _atom_site_fract_x
  _atom_site_fract_y
  _atom_site_fract_z
  _atom_site_occupancy
  Ag  Ag1       1.0  0.07280  0.71200  0.02060  1.0000
  Ag  Ag2       1.0  0.92700  0.21200  0.47900  1.0000
  Ag  Ag3       1.0  0.07280  0.78800  0.52100  1.0000
  Ag  Ag4       1.0  0.92700  0.28800  0.97900  1.0000
  O   O1        1.0  0.62900  0.37600  0.09540  1.0000
  O   O2        1.0  0.37100  0.87600  0.40500  1.0000
  O   O3        1.0  0.62900  0.12400  0.59500  1.0000
  O   O4        1.0  0.37100  0.62400  0.90500  1.0000
  Ru  Ru1       1.0  0.51100  0.63400  0.23600  1.0000
  Ru  Ru2       1.0  0.48900  0.13400  0.26400  1.0000
  Ru  Ru3       1.0  0.51100  0.86600  0.73600  1.0000
  Ru  Ru4       1.0  0.48900  0.36600  0.76400  1.0000
  Se  Se1       1.0  0.73500  0.88900  0.07510  1.0000
  Se  Se2       1.0  0.26500  0.38900  0.42500  1.0000
  Se  Se3       1.0  0.73500  0.61100  0.57500  1.0000
  Se  Se4       1.0  0.26500  0.11100  0.92500  1.0000
