data_image0
_chemical_formula_structural       Cu4O4Ru4Se4
_chemical_formula_sum              "Cu4 O4 Ru4 Se4"
_cell_length_a       6.08053
_cell_length_b       6.62185
_cell_length_c       5.62186
_cell_angle_alpha    90
_cell_angle_beta     97.1904
_cell_angle_gamma    90

_space_group_name_H-M_alt    "P 1"
_space_group_IT_number       1

loop_
  _space_group_symop_operation_xyz
  'x, y, z'

loop_
  _atom_site_type_symbol
  _atom_site_label
  _atom_site_symmetry_multiplicity
  _atom_site_fract_x
  _atom_site_fract_y
  _atom_site_fract_z
  _atom_site_occupancy
  Cu  Cu1       1.0  0.08800  0.67400  0.01540  1.0000
  Cu  Cu2       1.0  0.91200  0.17400  0.48500  1.0000
  Cu  Cu3       1.0  0.08800  0.82600  0.51500  1.0000
  Cu  Cu4       1.0  0.91200  0.32600  0.98500  1.0000
  O   O1        1.0  0.62200  0.35500  0.08880  1.0000
  O   O2        1.0  0.37800  0.85500  0.41100  1.0000
  O   O3        1.0  0.62200  0.14500  0.58900  1.0000
  O   O4        1.0  0.37800  0.64500  0.91100  1.0000
  Ru  Ru1       1.0  0.48500  0.10100  0.22900  1.0000
  Ru  Ru2       1.0  0.51500  0.60100  0.27100  1.0000
  Ru  Ru3       1.0  0.48500  0.39900  0.72900  1.0000
  Ru  Ru4       1.0  0.51500  0.89900  0.77100  1.0000
  Se  Se1       1.0  0.78600  0.86200  0.13900  1.0000
  Se  Se2       1.0  0.21400  0.36200  0.36100  1.0000
  Se  Se3       1.0  0.78600  0.63800  0.63900  1.0000
  Se  Se4       1.0  0.21400  0.13800  0.86100  1.0000
