data_image0
_chemical_formula_structural       Au4O4Ru4Se4
_chemical_formula_sum              "Au4 O4 Ru4 Se4"
_cell_length_a       6.19561
_cell_length_b       6.96137
_cell_length_c       5.93152
_cell_angle_alpha    90
_cell_angle_beta     79.963
_cell_angle_gamma    90

_space_group_name_H-M_alt    "P 1"
_space_group_IT_number       1

loop_
  _space_group_symop_operation_xyz
  'x, y, z'

loop_
  _atom_site_type_symbol
  _atom_site_label
  _atom_site_symmetry_multiplicity
  _atom_site_fract_x
  _atom_site_fract_y
  _atom_site_fract_z
  _atom_site_occupancy
  Au  Au1       1.0  0.02780  0.68900  0.03990  1.0000
  Au  Au2       1.0  0.97200  0.18900  0.46000  1.0000
  Au  Au3       1.0  0.02780  0.81100  0.54000  1.0000
  Au  Au4       1.0  0.97200  0.31100  0.96000  1.0000
  O   O1        1.0  0.60800  0.35600  0.06840  1.0000
  O   O2        1.0  0.39200  0.85600  0.43200  1.0000
  O   O3        1.0  0.60800  0.14400  0.56800  1.0000
  O   O4        1.0  0.39200  0.64400  0.93200  1.0000
  Ru  Ru1       1.0  0.56300  0.62600  0.21300  1.0000
  Ru  Ru2       1.0  0.43700  0.12600  0.28700  1.0000
  Ru  Ru3       1.0  0.56300  0.87400  0.71300  1.0000
  Ru  Ru4       1.0  0.43700  0.37400  0.78700  1.0000
  Se  Se1       1.0  0.73100  0.94300  0.04390  1.0000
  Se  Se2       1.0  0.26900  0.44300  0.45600  1.0000
  Se  Se3       1.0  0.73100  0.55700  0.54400  1.0000
  Se  Se4       1.0  0.26900  0.05720  0.95600  1.0000
