data_image0
_chemical_formula_structural       Au4Cs4O4Se4
_chemical_formula_sum              "Au4 Cs4 O4 Se4"
_cell_length_a       6.03251
_cell_length_b       8.05638
_cell_length_c       9.61926
_cell_angle_alpha    90
_cell_angle_beta     102.786
_cell_angle_gamma    90

_space_group_name_H-M_alt    "P 1"
_space_group_IT_number       1

loop_
  _space_group_symop_operation_xyz
  'x, y, z'

loop_
  _atom_site_type_symbol
  _atom_site_label
  _atom_site_symmetry_multiplicity
  _atom_site_fract_x
  _atom_site_fract_y
  _atom_site_fract_z
  _atom_site_occupancy
  Au  Au1       1.0  0.53700  0.51800  0.24800  1.0000
  Au  Au2       1.0  0.46300  0.01780  0.25200  1.0000
  Au  Au3       1.0  0.53700  0.98200  0.74800  1.0000
  Au  Au4       1.0  0.46300  0.48200  0.75200  1.0000
  Cs  Cs1       1.0  0.92300  0.29000  0.07930  1.0000
  Cs  Cs2       1.0  0.07720  0.79000  0.42100  1.0000
  Cs  Cs3       1.0  0.92300  0.21000  0.57900  1.0000
  Cs  Cs4       1.0  0.07720  0.71000  0.92100  1.0000
  O   O1        1.0  0.75100  0.65900  0.15400  1.0000
  O   O2        1.0  0.24900  0.15900  0.34600  1.0000
  O   O3        1.0  0.75100  0.84100  0.65400  1.0000
  O   O4        1.0  0.24900  0.34100  0.84600  1.0000
  Se  Se1       1.0  0.65400  0.87400  0.09460  1.0000
  Se  Se2       1.0  0.34600  0.37400  0.40500  1.0000
  Se  Se3       1.0  0.65400  0.62600  0.59500  1.0000
  Se  Se4       1.0  0.34600  0.12600  0.90500  1.0000
