data_image0
_chemical_formula_structural       Cu4Ni4O4Se4
_chemical_formula_sum              "Cu4 Ni4 O4 Se4"
_cell_length_a       6.02123
_cell_length_b       3.22096
_cell_length_c       11.2884
_cell_angle_alpha    90
_cell_angle_beta     90
_cell_angle_gamma    90

_space_group_name_H-M_alt    "P 1"
_space_group_IT_number       1

loop_
  _space_group_symop_operation_xyz
  'x, y, z'

loop_
  _atom_site_type_symbol
  _atom_site_label
  _atom_site_symmetry_multiplicity
  _atom_site_fract_x
  _atom_site_fract_y
  _atom_site_fract_z
  _atom_site_occupancy
  Cu  Cu1       1.0  0.26700  0.75000  0.03750  1.0000
  Cu  Cu2       1.0  0.76700  0.75000  0.46300  1.0000
  Cu  Cu3       1.0  0.23300  0.25000  0.53700  1.0000
  Cu  Cu4       1.0  0.73300  0.25000  0.96300  1.0000
  Ni  Ni1       1.0  0.55600  0.25000  0.24800  1.0000
  Ni  Ni2       1.0  0.05570  0.25000  0.25200  1.0000
  Ni  Ni3       1.0  0.94400  0.75000  0.74800  1.0000
  Ni  Ni4       1.0  0.44400  0.75000  0.75200  1.0000
  O   O1        1.0  0.30400  0.25000  0.14000  1.0000
  O   O2        1.0  0.80400  0.25000  0.36000  1.0000
  O   O3        1.0  0.19600  0.75000  0.64000  1.0000
  O   O4        1.0  0.69600  0.75000  0.86000  1.0000
  Se  Se1       1.0  0.80000  0.75000  0.12100  1.0000
  Se  Se2       1.0  0.30000  0.75000  0.37900  1.0000
  Se  Se3       1.0  0.70000  0.25000  0.62100  1.0000
  Se  Se4       1.0  0.20000  0.25000  0.87900  1.0000
