data_image0
_chemical_formula_structural       Au4Cu4O4Se4
_chemical_formula_sum              "Au4 Cu4 O4 Se4"
_cell_length_a       6.22429
_cell_length_b       8.39661
_cell_length_c       5.39538
_cell_angle_alpha    90
_cell_angle_beta     102.927
_cell_angle_gamma    90

_space_group_name_H-M_alt    "P 1"
_space_group_IT_number       1

loop_
  _space_group_symop_operation_xyz
  'x, y, z'

loop_
  _atom_site_type_symbol
  _atom_site_label
  _atom_site_symmetry_multiplicity
  _atom_site_fract_x
  _atom_site_fract_y
  _atom_site_fract_z
  _atom_site_occupancy
  Au  Au1       1.0  0.70200  0.60600  0.16800  1.0000
  Au  Au2       1.0  0.29800  0.10600  0.33200  1.0000
  Au  Au3       1.0  0.70200  0.89400  0.66800  1.0000
  Au  Au4       1.0  0.29800  0.39400  0.83200  1.0000
  Cu  Cu1       1.0  0.22300  0.74000  0.02860  1.0000
  Cu  Cu2       1.0  0.77700  0.24000  0.47100  1.0000
  Cu  Cu3       1.0  0.22300  0.76000  0.52900  1.0000
  Cu  Cu4       1.0  0.77700  0.26000  0.97100  1.0000
  O   O1        1.0  0.58500  0.36800  0.16000  1.0000
  O   O2        1.0  0.41500  0.86800  0.34000  1.0000
  O   O3        1.0  0.58500  0.13200  0.66000  1.0000
  O   O4        1.0  0.41500  0.63200  0.84000  1.0000
  Se  Se1       1.0  0.90300  0.85400  0.12900  1.0000
  Se  Se2       1.0  0.09700  0.35400  0.37100  1.0000
  Se  Se3       1.0  0.90300  0.64600  0.62900  1.0000
  Se  Se4       1.0  0.09700  0.14600  0.87100  1.0000
