data_image0
_chemical_formula_structural       Ag4Au4O4Se4
_chemical_formula_sum              "Ag4 Au4 O4 Se4"
_cell_length_a       6.49106
_cell_length_b       7.52224
_cell_length_c       6.05548
_cell_angle_alpha    90
_cell_angle_beta     100.063
_cell_angle_gamma    90

_space_group_name_H-M_alt    "P 1"
_space_group_IT_number       1

loop_
  _space_group_symop_operation_xyz
  'x, y, z'

loop_
  _atom_site_type_symbol
  _atom_site_label
  _atom_site_symmetry_multiplicity
  _atom_site_fract_x
  _atom_site_fract_y
  _atom_site_fract_z
  _atom_site_occupancy
  Ag  Ag1       1.0  0.91400  0.24600  0.03480  1.0000
  Ag  Ag2       1.0  0.08590  0.74600  0.46500  1.0000
  Ag  Ag3       1.0  0.91400  0.25400  0.53500  1.0000
  Ag  Ag4       1.0  0.08590  0.75400  0.96500  1.0000
  Au  Au1       1.0  0.56100  0.62200  0.23400  1.0000
  Au  Au2       1.0  0.43900  0.12200  0.26600  1.0000
  Au  Au3       1.0  0.56100  0.87800  0.73400  1.0000
  Au  Au4       1.0  0.43900  0.37800  0.76600  1.0000
  O   O1        1.0  0.61300  0.35400  0.09960  1.0000
  O   O2        1.0  0.38700  0.85400  0.40000  1.0000
  O   O3        1.0  0.61300  0.14600  0.60000  1.0000
  O   O4        1.0  0.38700  0.64600  0.90000  1.0000
  Se  Se1       1.0  0.78100  0.90800  0.11300  1.0000
  Se  Se2       1.0  0.21900  0.40800  0.38700  1.0000
  Se  Se3       1.0  0.78100  0.59200  0.61300  1.0000
  Se  Se4       1.0  0.21900  0.09240  0.88700  1.0000
