data_image0
_chemical_formula_structural       Li4O4Se4Ti4
_chemical_formula_sum              "Li4 O4 Se4 Ti4"
_cell_length_a       6.434
_cell_length_b       5.72161
_cell_length_c       5.71166
_cell_angle_alpha    90
_cell_angle_beta     97.8859
_cell_angle_gamma    90

_space_group_name_H-M_alt    "P 1"
_space_group_IT_number       1

loop_
  _space_group_symop_operation_xyz
  'x, y, z'

loop_
  _atom_site_type_symbol
  _atom_site_label
  _atom_site_symmetry_multiplicity
  _atom_site_fract_x
  _atom_site_fract_y
  _atom_site_fract_z
  _atom_site_occupancy
  Li  Li1       1.0  0.88200  0.30600  0.00192  1.0000
  Li  Li2       1.0  0.11800  0.80600  0.49800  1.0000
  Li  Li3       1.0  0.88200  0.19400  0.50200  1.0000
  Li  Li4       1.0  0.11800  0.69400  0.99800  1.0000
  O   O1        1.0  0.59100  0.28600  0.01300  1.0000
  O   O2        1.0  0.40900  0.78600  0.48700  1.0000
  O   O3        1.0  0.59100  0.21400  0.51300  1.0000
  O   O4        1.0  0.40900  0.71400  0.98700  1.0000
  Se  Se1       1.0  0.81700  0.87000  0.17400  1.0000
  Se  Se2       1.0  0.18300  0.37000  0.32600  1.0000
  Se  Se3       1.0  0.81700  0.63000  0.67400  1.0000
  Se  Se4       1.0  0.18300  0.13000  0.82600  1.0000
  Ti  Ti1       1.0  0.44600  0.02320  0.21800  1.0000
  Ti  Ti2       1.0  0.55400  0.52300  0.28200  1.0000
  Ti  Ti3       1.0  0.44600  0.47700  0.71800  1.0000
  Ti  Ti4       1.0  0.55400  0.97700  0.78200  1.0000
