data_image0
_chemical_formula_structural       Au4Hg4O4Se4
_chemical_formula_sum              "Au4 Hg4 O4 Se4"
_cell_length_a       6.48708
_cell_length_b       7.7439
_cell_length_c       6.51087
_cell_angle_alpha    90
_cell_angle_beta     96.7322
_cell_angle_gamma    90

_space_group_name_H-M_alt    "P 1"
_space_group_IT_number       1

loop_
  _space_group_symop_operation_xyz
  'x, y, z'

loop_
  _atom_site_type_symbol
  _atom_site_label
  _atom_site_symmetry_multiplicity
  _atom_site_fract_x
  _atom_site_fract_y
  _atom_site_fract_z
  _atom_site_occupancy
  Au  Au1       1.0  0.55900  0.62000  0.23100  1.0000
  Au  Au2       1.0  0.44100  0.12000  0.26900  1.0000
  Au  Au3       1.0  0.55900  0.88000  0.73100  1.0000
  Au  Au4       1.0  0.44100  0.38000  0.76900  1.0000
  Hg  Hg1       1.0  0.91300  0.25900  0.00183  1.0000
  Hg  Hg2       1.0  0.08690  0.75900  0.49800  1.0000
  Hg  Hg3       1.0  0.91300  0.24100  0.50200  1.0000
  Hg  Hg4       1.0  0.08690  0.74100  0.99800  1.0000
  O   O1        1.0  0.62200  0.36000  0.06980  1.0000
  O   O2        1.0  0.37800  0.86000  0.43000  1.0000
  O   O3        1.0  0.62200  0.14000  0.57000  1.0000
  O   O4        1.0  0.37800  0.64000  0.93000  1.0000
  Se  Se1       1.0  0.75400  0.89300  0.08230  1.0000
  Se  Se2       1.0  0.24600  0.39300  0.41800  1.0000
  Se  Se3       1.0  0.75400  0.60700  0.58200  1.0000
  Se  Se4       1.0  0.24600  0.10700  0.91800  1.0000
