data_image0
_chemical_formula_structural       K4Nb4O4Se4
_chemical_formula_sum              "K4 Nb4 O4 Se4"
_cell_length_a       8.09792
_cell_length_b       6.37456
_cell_length_c       5.98925
_cell_angle_alpha    90
_cell_angle_beta     103.662
_cell_angle_gamma    90

_space_group_name_H-M_alt    "P 1"
_space_group_IT_number       1

loop_
  _space_group_symop_operation_xyz
  'x, y, z'

loop_
  _atom_site_type_symbol
  _atom_site_label
  _atom_site_symmetry_multiplicity
  _atom_site_fract_x
  _atom_site_fract_y
  _atom_site_fract_z
  _atom_site_occupancy
  K   K1        1.0  0.10700  0.74800  0.02400  1.0000
  K   K2        1.0  0.89300  0.24800  0.47600  1.0000
  K   K3        1.0  0.10700  0.75200  0.52400  1.0000
  K   K4        1.0  0.89300  0.25200  0.97600  1.0000
  Nb  Nb1       1.0  0.48900  0.11400  0.23300  1.0000
  Nb  Nb2       1.0  0.51100  0.61400  0.26700  1.0000
  Nb  Nb3       1.0  0.48900  0.38600  0.73300  1.0000
  Nb  Nb4       1.0  0.51100  0.88600  0.76700  1.0000
  O   O1        1.0  0.62600  0.36600  0.11700  1.0000
  O   O2        1.0  0.37400  0.86600  0.38300  1.0000
  O   O3        1.0  0.62600  0.13400  0.61700  1.0000
  O   O4        1.0  0.37400  0.63400  0.88300  1.0000
  Se  Se1       1.0  0.74100  0.87100  0.15600  1.0000
  Se  Se2       1.0  0.25900  0.37100  0.34400  1.0000
  Se  Se3       1.0  0.74100  0.62900  0.65600  1.0000
  Se  Se4       1.0  0.25900  0.12900  0.84400  1.0000
