data_image0
_chemical_formula_structural       Au4O4Os4Se4
_chemical_formula_sum              "Au4 O4 Os4 Se4"
_cell_length_a       6.82297
_cell_length_b       7.02242
_cell_length_c       5.59658
_cell_angle_alpha    90
_cell_angle_beta     85.5545
_cell_angle_gamma    90

_space_group_name_H-M_alt    "P 1"
_space_group_IT_number       1

loop_
  _space_group_symop_operation_xyz
  'x, y, z'

loop_
  _atom_site_type_symbol
  _atom_site_label
  _atom_site_symmetry_multiplicity
  _atom_site_fract_x
  _atom_site_fract_y
  _atom_site_fract_z
  _atom_site_occupancy
  Au  Au1       1.0  0.92600  0.67500  0.05840  1.0000
  Au  Au2       1.0  0.07400  0.17500  0.44200  1.0000
  Au  Au3       1.0  0.92600  0.82500  0.55800  1.0000
  Au  Au4       1.0  0.07400  0.32500  0.94200  1.0000
  O   O1        1.0  0.49800  0.33900  0.08360  1.0000
  O   O2        1.0  0.50200  0.83900  0.41600  1.0000
  O   O3        1.0  0.49800  0.16100  0.58400  1.0000
  O   O4        1.0  0.50200  0.66100  0.91600  1.0000
  Os  Os1       1.0  0.46200  0.07970  0.23700  1.0000
  Os  Os2       1.0  0.53800  0.58000  0.26300  1.0000
  Os  Os3       1.0  0.46200  0.42000  0.73700  1.0000
  Os  Os4       1.0  0.53800  0.92000  0.76300  1.0000
  Se  Se1       1.0  0.77500  0.02200  0.02890  1.0000
  Se  Se2       1.0  0.22500  0.52200  0.47100  1.0000
  Se  Se3       1.0  0.77500  0.47800  0.52900  1.0000
  Se  Se4       1.0  0.22500  0.97800  0.97100  1.0000
