data_image0
_chemical_formula_structural       Eu2O2Se2Tl2
_chemical_formula_sum              "Eu2 O2 Se2 Tl2"
_cell_length_a       4.49184
_cell_length_b       7.10805
_cell_length_c       6.61943
_cell_angle_alpha    90
_cell_angle_beta     90
_cell_angle_gamma    90

_space_group_name_H-M_alt    "P 1"
_space_group_IT_number       1

loop_
  _space_group_symop_operation_xyz
  'x, y, z'

loop_
  _atom_site_type_symbol
  _atom_site_label
  _atom_site_symmetry_multiplicity
  _atom_site_fract_x
  _atom_site_fract_y
  _atom_site_fract_z
  _atom_site_occupancy
  Eu  Eu1       1.0  0.50000  0.85200  0.01540  1.0000
  Eu  Eu2       1.0  0.50000  0.14800  0.51500  1.0000
  O   O1        1.0  0.50000  0.14000  0.17000  1.0000
  O   O2        1.0  0.50000  0.86000  0.67000  1.0000
  Se  Se1       1.0  0.00000  0.64900  0.19900  1.0000
  Se  Se2       1.0  0.00000  0.35100  0.69900  1.0000
  Tl  Tl1       1.0  0.00000  0.26100  0.10700  1.0000
  Tl  Tl2       1.0  0.00000  0.73900  0.60700  1.0000
