data_image0
_chemical_formula_structural       Er2Li2O2Se2
_chemical_formula_sum              "Er2 Li2 O2 Se2"
_cell_length_a       3.87593
_cell_length_b       3.87593
_cell_length_c       8.78068
_cell_angle_alpha    90
_cell_angle_beta     90
_cell_angle_gamma    90

_space_group_name_H-M_alt    "P 1"
_space_group_IT_number       1

loop_
  _space_group_symop_operation_xyz
  'x, y, z'

loop_
  _atom_site_type_symbol
  _atom_site_label
  _atom_site_symmetry_multiplicity
  _atom_site_fract_x
  _atom_site_fract_y
  _atom_site_fract_z
  _atom_site_occupancy
  Er  Er1       1.0  0.25000  0.25000  0.12400  1.0000
  Er  Er2       1.0  0.75000  0.75000  0.87600  1.0000
  Li  Li1       1.0  0.75000  0.25000  0.50000  1.0000
  Li  Li2       1.0  0.25000  0.75000  0.50000  1.0000
  O   O1        1.0  0.75000  0.25000  0.00000  1.0000
  O   O2        1.0  0.25000  0.75000  0.00000  1.0000
  Se  Se1       1.0  0.75000  0.75000  0.31900  1.0000
  Se  Se2       1.0  0.25000  0.25000  0.68100  1.0000
