data_image0
_chemical_formula_structural       Na4O4Ru4Se4
_chemical_formula_sum              "Na4 O4 Ru4 Se4"
_cell_length_a       6.71881
_cell_length_b       6.89154
_cell_length_c       5.68188
_cell_angle_alpha    90
_cell_angle_beta     105.903
_cell_angle_gamma    90

_space_group_name_H-M_alt    "P 1"
_space_group_IT_number       1

loop_
  _space_group_symop_operation_xyz
  'x, y, z'

loop_
  _atom_site_type_symbol
  _atom_site_label
  _atom_site_symmetry_multiplicity
  _atom_site_fract_x
  _atom_site_fract_y
  _atom_site_fract_z
  _atom_site_occupancy
  Na  Na1       1.0  0.13300  0.79000  0.04070  1.0000
  Na  Na2       1.0  0.86700  0.29000  0.45900  1.0000
  Na  Na3       1.0  0.13300  0.71000  0.54100  1.0000
  Na  Na4       1.0  0.86700  0.21000  0.95900  1.0000
  O   O1        1.0  0.61500  0.35100  0.10600  1.0000
  O   O2        1.0  0.38500  0.85100  0.39400  1.0000
  O   O3        1.0  0.61500  0.14900  0.60600  1.0000
  O   O4        1.0  0.38500  0.64900  0.89400  1.0000
  Ru  Ru1       1.0  0.48500  0.09520  0.22900  1.0000
  Ru  Ru2       1.0  0.51500  0.59500  0.27100  1.0000
  Ru  Ru3       1.0  0.48500  0.40500  0.72900  1.0000
  Ru  Ru4       1.0  0.51500  0.90500  0.77100  1.0000
  Se  Se1       1.0  0.74900  0.86600  0.18300  1.0000
  Se  Se2       1.0  0.25100  0.36600  0.31700  1.0000
  Se  Se3       1.0  0.74900  0.63400  0.68300  1.0000
  Se  Se4       1.0  0.25100  0.13400  0.81700  1.0000
