data_image0
_chemical_formula_structural       Ir4K4O4Se4
_chemical_formula_sum              "Ir4 K4 O4 Se4"
_cell_length_a       5.81015
_cell_length_b       8.99158
_cell_length_c       6.62816
_cell_angle_alpha    90
_cell_angle_beta     89.1613
_cell_angle_gamma    90

_space_group_name_H-M_alt    "P 1"
_space_group_IT_number       1

loop_
  _space_group_symop_operation_xyz
  'x, y, z'

loop_
  _atom_site_type_symbol
  _atom_site_label
  _atom_site_symmetry_multiplicity
  _atom_site_fract_x
  _atom_site_fract_y
  _atom_site_fract_z
  _atom_site_occupancy
  Ir  Ir1       1.0  0.27400  0.25200  0.23700  1.0000
  Ir  Ir2       1.0  0.72600  0.75200  0.26300  1.0000
  Ir  Ir3       1.0  0.27400  0.24800  0.73700  1.0000
  Ir  Ir4       1.0  0.72600  0.74800  0.76300  1.0000
  K   K1        1.0  0.23100  0.65100  0.02460  1.0000
  K   K2        1.0  0.76900  0.15100  0.47500  1.0000
  K   K3        1.0  0.23100  0.84900  0.52500  1.0000
  K   K4        1.0  0.76900  0.34900  0.97500  1.0000
  O   O1        1.0  0.73300  0.63400  0.01470  1.0000
  O   O2        1.0  0.26700  0.13400  0.48500  1.0000
  O   O3        1.0  0.73300  0.86600  0.51500  1.0000
  O   O4        1.0  0.26700  0.36600  0.98500  1.0000
  Se  Se1       1.0  0.72600  0.95300  0.00901  1.0000
  Se  Se2       1.0  0.27400  0.45300  0.49100  1.0000
  Se  Se3       1.0  0.72600  0.54700  0.50900  1.0000
  Se  Se4       1.0  0.27400  0.04730  0.99100  1.0000
