data_image0
_chemical_formula_structural       O2Se2Tb2Tl2
_chemical_formula_sum              "O2 Se2 Tb2 Tl2"
_cell_length_a       4.71365
_cell_length_b       7.71169
_cell_length_c       6.63979
_cell_angle_alpha    90
_cell_angle_beta     90
_cell_angle_gamma    90

_space_group_name_H-M_alt    "P 1"
_space_group_IT_number       1

loop_
  _space_group_symop_operation_xyz
  'x, y, z'

loop_
  _atom_site_type_symbol
  _atom_site_label
  _atom_site_symmetry_multiplicity
  _atom_site_fract_x
  _atom_site_fract_y
  _atom_site_fract_z
  _atom_site_occupancy
  O   O1        1.0  0.50000  0.06010  0.25800  1.0000
  O   O2        1.0  0.50000  0.94000  0.75800  1.0000
  Se  Se1       1.0  0.00000  0.65600  0.06820  1.0000
  Se  Se2       1.0  0.00000  0.34400  0.56800  1.0000
  Tb  Tb1       1.0  0.50000  0.84900  0.05500  1.0000
  Tb  Tb2       1.0  0.50000  0.15100  0.55500  1.0000
  Tl  Tl1       1.0  0.00000  0.24900  0.11000  1.0000
  Tl  Tl2       1.0  0.00000  0.75100  0.61000  1.0000
