data_image0
_chemical_formula_structural       O2Se2Tl2Tm2
_chemical_formula_sum              "O2 Se2 Tl2 Tm2"
_cell_length_a       4.45478
_cell_length_b       8.1118
_cell_length_c       6.57078
_cell_angle_alpha    90
_cell_angle_beta     90
_cell_angle_gamma    90

_space_group_name_H-M_alt    "P 1"
_space_group_IT_number       1

loop_
  _space_group_symop_operation_xyz
  'x, y, z'

loop_
  _atom_site_type_symbol
  _atom_site_label
  _atom_site_symmetry_multiplicity
  _atom_site_fract_x
  _atom_site_fract_y
  _atom_site_fract_z
  _atom_site_occupancy
  O   O1        1.0  0.50000  0.07410  0.23300  1.0000
  O   O2        1.0  0.50000  0.92600  0.73300  1.0000
  Se  Se1       1.0  0.00000  0.68400  0.10300  1.0000
  Se  Se2       1.0  0.00000  0.31600  0.60300  1.0000
  Tl  Tl1       1.0  0.00000  0.28800  0.11400  1.0000
  Tl  Tl2       1.0  0.00000  0.71200  0.61400  1.0000
  Tm  Tm1       1.0  0.50000  0.87200  0.04050  1.0000
  Tm  Tm2       1.0  0.50000  0.12800  0.54100  1.0000
