data_image0
_chemical_formula_structural       CeRe4Si2
_chemical_formula_sum              "Ce1 Re4 Si2"
_cell_length_a       4.13643
_cell_length_b       4.17838
_cell_length_c       7.3664
_cell_angle_alpha    73.5242
_cell_angle_beta     90
_cell_angle_gamma    90

_space_group_name_H-M_alt    "P 1"
_space_group_IT_number       1

loop_
  _space_group_symop_operation_xyz
  'x, y, z'

loop_
  _atom_site_type_symbol
  _atom_site_label
  _atom_site_symmetry_multiplicity
  _atom_site_fract_x
  _atom_site_fract_y
  _atom_site_fract_z
  _atom_site_occupancy
  Ce  Ce1       1.0  0.00000  0.00000  0.00000  1.0000
  Re  Re1       1.0  0.50000  0.80900  0.38200  1.0000
  Re  Re2       1.0  0.00000  0.30300  0.39500  1.0000
  Re  Re3       1.0  0.00000  0.69700  0.60500  1.0000
  Re  Re4       1.0  0.50000  0.19100  0.61800  1.0000
  Si  Si1       1.0  0.50000  0.41000  0.18000  1.0000
  Si  Si2       1.0  0.50000  0.59000  0.82000  1.0000
