data_image0
_chemical_formula_structural       Gd2Ge2H4O8
_chemical_formula_sum              "Gd2 Ge2 H4 O8"
_cell_length_a       6.10269
_cell_length_b       6.10269
_cell_length_c       6.15181
_cell_angle_alpha    108.263
_cell_angle_beta     108.263
_cell_angle_gamma    111.605

_space_group_name_H-M_alt    "P 1"
_space_group_IT_number       1

loop_
  _space_group_symop_operation_xyz
  'x, y, z'

loop_
  _atom_site_type_symbol
  _atom_site_label
  _atom_site_symmetry_multiplicity
  _atom_site_fract_x
  _atom_site_fract_y
  _atom_site_fract_z
  _atom_site_occupancy
  Gd  Gd1       1.0  0.51300  0.51300  0.00000  1.0000
  Gd  Gd2       1.0  0.26300  0.76300  0.50000  1.0000
  Ge  Ge1       1.0  0.98000  0.98000  0.00000  1.0000
  Ge  Ge2       1.0  0.73000  0.23000  0.50000  1.0000
  H   H1        1.0  0.36800  0.95500  0.02150  1.0000
  H   H2        1.0  0.09600  0.18400  0.47900  1.0000
  H   H3        1.0  0.70500  0.61800  0.52100  1.0000
  H   H4        1.0  0.93400  0.34600  0.97900  1.0000
  O   O1        1.0  0.10800  0.37700  0.10700  1.0000
  O   O2        1.0  0.98300  0.86500  0.24600  1.0000
  O   O3        1.0  0.48800  0.86900  0.25400  1.0000
  O   O4        1.0  0.75200  0.52000  0.39300  1.0000
  O   O5        1.0  0.12700  0.35800  0.60700  1.0000
  O   O6        1.0  0.61500  0.23300  0.74600  1.0000
  O   O7        1.0  0.61900  0.73800  0.75400  1.0000
  O   O8        1.0  0.27000  0.00175  0.89300  1.0000
