data_image0
_chemical_formula_structural       O2Pr2Se2Tl2
_chemical_formula_sum              "O2 Pr2 Se2 Tl2"
_cell_length_a       4.82451
_cell_length_b       8.09161
_cell_length_c       6.71095
_cell_angle_alpha    90
_cell_angle_beta     90
_cell_angle_gamma    90

_space_group_name_H-M_alt    "P 1"
_space_group_IT_number       1

loop_
  _space_group_symop_operation_xyz
  'x, y, z'

loop_
  _atom_site_type_symbol
  _atom_site_label
  _atom_site_symmetry_multiplicity
  _atom_site_fract_x
  _atom_site_fract_y
  _atom_site_fract_z
  _atom_site_occupancy
  O   O1        1.0  0.50000  0.09230  0.20700  1.0000
  O   O2        1.0  0.50000  0.90800  0.70700  1.0000
  Pr  Pr1       1.0  0.50000  0.86100  0.03190  1.0000
  Pr  Pr2       1.0  0.50000  0.13900  0.53200  1.0000
  Se  Se1       1.0  0.00000  0.68500  0.14100  1.0000
  Se  Se2       1.0  0.00000  0.31500  0.64100  1.0000
  Tl  Tl1       1.0  0.00000  0.29500  0.11200  1.0000
  Tl  Tl2       1.0  0.00000  0.70500  0.61200  1.0000
