data_image0
_chemical_formula_structural       Ge4H8O16Sc4
_chemical_formula_sum              "Ge4 H8 O16 Sc4"
_cell_length_a       11.6772
_cell_length_b       5.96701
_cell_length_c       4.89172
_cell_angle_alpha    90
_cell_angle_beta     104.405
_cell_angle_gamma    90

_space_group_name_H-M_alt    "P 1"
_space_group_IT_number       1

loop_
  _space_group_symop_operation_xyz
  'x, y, z'

loop_
  _atom_site_type_symbol
  _atom_site_label
  _atom_site_symmetry_multiplicity
  _atom_site_fract_x
  _atom_site_fract_y
  _atom_site_fract_z
  _atom_site_occupancy
  Ge  Ge1       1.0  0.59500  0.28000  0.27900  1.0000
  Ge  Ge2       1.0  0.09520  0.22000  0.27900  1.0000
  Ge  Ge3       1.0  0.90500  0.78000  0.72100  1.0000
  Ge  Ge4       1.0  0.40500  0.72000  0.72100  1.0000
  H   H1        1.0  0.52400  0.74600  0.34800  1.0000
  H   H2        1.0  0.02350  0.75400  0.34800  1.0000
  H   H3        1.0  0.24000  0.49200  0.46900  1.0000
  H   H4        1.0  0.74000  0.00770  0.46900  1.0000
  H   H5        1.0  0.76000  0.50800  0.53100  1.0000
  H   H6        1.0  0.26000  0.99200  0.53100  1.0000
  H   H7        1.0  0.47600  0.25400  0.65200  1.0000
  H   H8        1.0  0.97600  0.24600  0.65200  1.0000
  O   O1        1.0  0.00714  0.75200  0.05660  1.0000
  O   O2        1.0  0.50700  0.74800  0.05660  1.0000
  O   O3        1.0  0.71800  0.48500  0.21300  1.0000
  O   O4        1.0  0.21800  0.01480  0.21300  1.0000
  O   O5        1.0  0.71100  0.03320  0.25400  1.0000
  O   O6        1.0  0.21100  0.46700  0.25400  1.0000
  O   O7        1.0  0.95500  0.24100  0.42800  1.0000
  O   O8        1.0  0.45500  0.25900  0.42800  1.0000
  O   O9        1.0  0.04500  0.75900  0.57200  1.0000
  O   O10       1.0  0.54500  0.74100  0.57200  1.0000
  O   O11       1.0  0.78900  0.53300  0.74600  1.0000
  O   O12       1.0  0.28900  0.96700  0.74600  1.0000
  O   O13       1.0  0.28200  0.51500  0.78700  1.0000
  O   O14       1.0  0.78200  0.98500  0.78700  1.0000
  O   O15       1.0  0.99300  0.24800  0.94300  1.0000
  O   O16       1.0  0.49300  0.25200  0.94300  1.0000
  Sc  Sc1       1.0  0.33100  0.24100  0.05010  1.0000
  Sc  Sc2       1.0  0.83100  0.25900  0.05010  1.0000
  Sc  Sc3       1.0  0.66900  0.75900  0.95000  1.0000
  Sc  Sc4       1.0  0.16900  0.74100  0.95000  1.0000
