data_image0
_chemical_formula_structural       Gd2O2Se2Tl2
_chemical_formula_sum              "Gd2 O2 Se2 Tl2"
_cell_length_a       4.63597
_cell_length_b       8.0975
_cell_length_c       6.61246
_cell_angle_alpha    90
_cell_angle_beta     90
_cell_angle_gamma    90

_space_group_name_H-M_alt    "P 1"
_space_group_IT_number       1

loop_
  _space_group_symop_operation_xyz
  'x, y, z'

loop_
  _atom_site_type_symbol
  _atom_site_label
  _atom_site_symmetry_multiplicity
  _atom_site_fract_x
  _atom_site_fract_y
  _atom_site_fract_z
  _atom_site_occupancy
  Gd  Gd1       1.0  0.50000  0.86700  0.03760  1.0000
  Gd  Gd2       1.0  0.50000  0.13300  0.53800  1.0000
  O   O1        1.0  0.50000  0.08190  0.22300  1.0000
  O   O2        1.0  0.50000  0.91800  0.72300  1.0000
  Se  Se1       1.0  0.00000  0.68500  0.11800  1.0000
  Se  Se2       1.0  0.00000  0.31500  0.61800  1.0000
  Tl  Tl1       1.0  0.00000  0.29100  0.11300  1.0000
  Tl  Tl2       1.0  0.00000  0.70900  0.61300  1.0000
