data_image0
_chemical_formula_structural       Lu2O2Se2Tl2
_chemical_formula_sum              "Lu2 O2 Se2 Tl2"
_cell_length_a       4.40583
_cell_length_b       8.11581
_cell_length_c       6.5455
_cell_angle_alpha    90
_cell_angle_beta     90
_cell_angle_gamma    90

_space_group_name_H-M_alt    "P 1"
_space_group_IT_number       1

loop_
  _space_group_symop_operation_xyz
  'x, y, z'

loop_
  _atom_site_type_symbol
  _atom_site_label
  _atom_site_symmetry_multiplicity
  _atom_site_fract_x
  _atom_site_fract_y
  _atom_site_fract_z
  _atom_site_occupancy
  Lu  Lu1       1.0  0.50000  0.87800  0.03490  1.0000
  Lu  Lu2       1.0  0.50000  0.12200  0.53500  1.0000
  O   O1        1.0  0.50000  0.07760  0.22700  1.0000
  O   O2        1.0  0.50000  0.92200  0.72700  1.0000
  Se  Se1       1.0  0.00000  0.69500  0.11300  1.0000
  Se  Se2       1.0  0.00000  0.30500  0.61300  1.0000
  Tl  Tl1       1.0  0.00000  0.29600  0.11600  1.0000
  Tl  Tl2       1.0  0.00000  0.70400  0.61600  1.0000
