data_image0
_chemical_formula_structural       K4O4Te4Tm4
_chemical_formula_sum              "K4 O4 Te4 Tm4"
_cell_length_a       8.99889
_cell_length_b       7.29778
_cell_length_c       6.55184
_cell_angle_alpha    90
_cell_angle_beta     99.2761
_cell_angle_gamma    90

_space_group_name_H-M_alt    "P 1"
_space_group_IT_number       1

loop_
  _space_group_symop_operation_xyz
  'x, y, z'

loop_
  _atom_site_type_symbol
  _atom_site_label
  _atom_site_symmetry_multiplicity
  _atom_site_fract_x
  _atom_site_fract_y
  _atom_site_fract_z
  _atom_site_occupancy
  K   K1        1.0  0.86700  0.40400  0.16600  1.0000
  K   K2        1.0  0.13300  0.90400  0.33400  1.0000
  K   K3        1.0  0.86700  0.09580  0.66600  1.0000
  K   K4        1.0  0.13300  0.59600  0.83400  1.0000
  O   O1        1.0  0.57100  0.35800  0.11500  1.0000
  O   O2        1.0  0.42900  0.85800  0.38500  1.0000
  O   O3        1.0  0.57100  0.14200  0.61500  1.0000
  O   O4        1.0  0.42900  0.64200  0.88500  1.0000
  Te  Te1       1.0  0.75400  0.92400  0.12700  1.0000
  Te  Te2       1.0  0.24600  0.42400  0.37300  1.0000
  Te  Te3       1.0  0.75400  0.57600  0.62700  1.0000
  Te  Te4       1.0  0.24600  0.07600  0.87300  1.0000
  Tm  Tm1       1.0  0.50900  0.63400  0.21000  1.0000
  Tm  Tm2       1.0  0.49100  0.13400  0.29000  1.0000
  Tm  Tm3       1.0  0.50900  0.86600  0.71000  1.0000
  Tm  Tm4       1.0  0.49100  0.36600  0.79000  1.0000
