data_image0
_chemical_formula_structural       Co2O2Rb2Se2
_chemical_formula_sum              "Co2 O2 Rb2 Se2"
_cell_length_a       3.78625
_cell_length_b       8.05479
_cell_length_c       6.48369
_cell_angle_alpha    90
_cell_angle_beta     90
_cell_angle_gamma    90

_space_group_name_H-M_alt    "P 1"
_space_group_IT_number       1

loop_
  _space_group_symop_operation_xyz
  'x, y, z'

loop_
  _atom_site_type_symbol
  _atom_site_label
  _atom_site_symmetry_multiplicity
  _atom_site_fract_x
  _atom_site_fract_y
  _atom_site_fract_z
  _atom_site_occupancy
  Co  Co1       1.0  0.50000  0.90700  0.03720  1.0000
  Co  Co2       1.0  0.50000  0.09310  0.53700  1.0000
  O   O1        1.0  0.50000  0.05550  0.25400  1.0000
  O   O2        1.0  0.50000  0.94400  0.75400  1.0000
  Rb  Rb1       1.0  0.00000  0.29100  0.10000  1.0000
  Rb  Rb2       1.0  0.00000  0.70900  0.60000  1.0000
  Se  Se1       1.0  0.00000  0.72200  0.09930  1.0000
  Se  Se2       1.0  0.00000  0.27800  0.59900  1.0000
