data_image0
_chemical_formula_structural       Cu4O4Tb4Te4
_chemical_formula_sum              "Cu4 O4 Tb4 Te4"
_cell_length_a       6.2412
_cell_length_b       7.84145
_cell_length_c       7.03637
_cell_angle_alpha    90
_cell_angle_beta     115.294
_cell_angle_gamma    90

_space_group_name_H-M_alt    "P 1"
_space_group_IT_number       1

loop_
  _space_group_symop_operation_xyz
  'x, y, z'

loop_
  _atom_site_type_symbol
  _atom_site_label
  _atom_site_symmetry_multiplicity
  _atom_site_fract_x
  _atom_site_fract_y
  _atom_site_fract_z
  _atom_site_occupancy
  Cu  Cu1       1.0  0.04640  0.64900  0.04430  1.0000
  Cu  Cu2       1.0  0.95400  0.14900  0.45600  1.0000
  Cu  Cu3       1.0  0.04640  0.85100  0.54400  1.0000
  Cu  Cu4       1.0  0.95400  0.35100  0.95600  1.0000
  O   O1        1.0  0.40800  0.63200  0.09630  1.0000
  O   O2        1.0  0.59200  0.13200  0.40400  1.0000
  O   O3        1.0  0.40800  0.86800  0.59600  1.0000
  O   O4        1.0  0.59200  0.36800  0.90400  1.0000
  Tb  Tb1       1.0  0.54200  0.36100  0.19800  1.0000
  Tb  Tb2       1.0  0.45800  0.86100  0.30200  1.0000
  Tb  Tb3       1.0  0.54200  0.13900  0.69800  1.0000
  Tb  Tb4       1.0  0.45800  0.63900  0.80200  1.0000
  Te  Te1       1.0  0.85600  0.90600  0.14000  1.0000
  Te  Te2       1.0  0.14400  0.40600  0.36000  1.0000
  Te  Te3       1.0  0.85600  0.59400  0.64000  1.0000
  Te  Te4       1.0  0.14400  0.09380  0.86000  1.0000
