data_image0
_chemical_formula_structural       Ce2O2Te2Tl2
_chemical_formula_sum              "Ce2 O2 Te2 Tl2"
_cell_length_a       5.16491
_cell_length_b       8.08101
_cell_length_c       6.99184
_cell_angle_alpha    90
_cell_angle_beta     90
_cell_angle_gamma    90

_space_group_name_H-M_alt    "P 1"
_space_group_IT_number       1

loop_
  _space_group_symop_operation_xyz
  'x, y, z'

loop_
  _atom_site_type_symbol
  _atom_site_label
  _atom_site_symmetry_multiplicity
  _atom_site_fract_x
  _atom_site_fract_y
  _atom_site_fract_z
  _atom_site_occupancy
  Ce  Ce1       1.0  0.50000  0.86800  0.01550  1.0000
  Ce  Ce2       1.0  0.50000  0.13200  0.51600  1.0000
  O   O1        1.0  0.50000  0.09070  0.20000  1.0000
  O   O2        1.0  0.50000  0.90900  0.70000  1.0000
  Te  Te1       1.0  0.00000  0.68100  0.15300  1.0000
  Te  Te2       1.0  0.00000  0.31900  0.65300  1.0000
  Tl  Tl1       1.0  0.00000  0.27300  0.12300  1.0000
  Tl  Tl2       1.0  0.00000  0.72700  0.62300  1.0000
