data_image0
_chemical_formula_structural       Lu4O4Rb4Te4
_chemical_formula_sum              "Lu4 O4 Rb4 Te4"
_cell_length_a       9.42706
_cell_length_b       7.25397
_cell_length_c       6.56119
_cell_angle_alpha    90
_cell_angle_beta     100.434
_cell_angle_gamma    90

_space_group_name_H-M_alt    "P 1"
_space_group_IT_number       1

loop_
  _space_group_symop_operation_xyz
  'x, y, z'

loop_
  _atom_site_type_symbol
  _atom_site_label
  _atom_site_symmetry_multiplicity
  _atom_site_fract_x
  _atom_site_fract_y
  _atom_site_fract_z
  _atom_site_occupancy
  Lu  Lu1       1.0  0.50700  0.63500  0.20700  1.0000
  Lu  Lu2       1.0  0.49300  0.13500  0.29300  1.0000
  Lu  Lu3       1.0  0.50700  0.86500  0.70700  1.0000
  Lu  Lu4       1.0  0.49300  0.36500  0.79300  1.0000
  O   O1        1.0  0.56600  0.35900  0.11900  1.0000
  O   O2        1.0  0.43400  0.85900  0.38100  1.0000
  O   O3        1.0  0.56600  0.14100  0.61900  1.0000
  O   O4        1.0  0.43400  0.64100  0.88100  1.0000
  Rb  Rb1       1.0  0.86600  0.41400  0.17100  1.0000
  Rb  Rb2       1.0  0.13400  0.91400  0.32900  1.0000
  Rb  Rb3       1.0  0.86600  0.08590  0.67100  1.0000
  Rb  Rb4       1.0  0.13400  0.58600  0.82900  1.0000
  Te  Te1       1.0  0.74100  0.92300  0.13200  1.0000
  Te  Te2       1.0  0.25900  0.42300  0.36800  1.0000
  Te  Te3       1.0  0.74100  0.57700  0.63200  1.0000
  Te  Te4       1.0  0.25900  0.07700  0.86800  1.0000
