data_image0
_chemical_formula_structural       Cr2O2Rb2Te2
_chemical_formula_sum              "Cr2 O2 Rb2 Te2"
_cell_length_a       4.39715
_cell_length_b       8.12793
_cell_length_c       6.81727
_cell_angle_alpha    90
_cell_angle_beta     90
_cell_angle_gamma    90

_space_group_name_H-M_alt    "P 1"
_space_group_IT_number       1

loop_
  _space_group_symop_operation_xyz
  'x, y, z'

loop_
  _atom_site_type_symbol
  _atom_site_label
  _atom_site_symmetry_multiplicity
  _atom_site_fract_x
  _atom_site_fract_y
  _atom_site_fract_z
  _atom_site_occupancy
  Cr  Cr1       1.0  0.50000  0.92100  0.02440  1.0000
  Cr  Cr2       1.0  0.50000  0.07860  0.52400  1.0000
  O   O1        1.0  0.50000  0.06350  0.24200  1.0000
  O   O2        1.0  0.50000  0.93700  0.74200  1.0000
  Rb  Rb1       1.0  0.00000  0.27900  0.11400  1.0000
  Rb  Rb2       1.0  0.00000  0.72100  0.61400  1.0000
  Te  Te1       1.0  0.00000  0.73600  0.11000  1.0000
  Te  Te2       1.0  0.00000  0.26400  0.61000  1.0000
