data_image0
_chemical_formula_structural       Lu4Na4O4Te4
_chemical_formula_sum              "Lu4 Na4 O4 Te4"
_cell_length_a       7.35825
_cell_length_b       7.38186
_cell_length_c       6.47059
_cell_angle_alpha    90
_cell_angle_beta     99.5735
_cell_angle_gamma    90

_space_group_name_H-M_alt    "P 1"
_space_group_IT_number       1

loop_
  _space_group_symop_operation_xyz
  'x, y, z'

loop_
  _atom_site_type_symbol
  _atom_site_label
  _atom_site_symmetry_multiplicity
  _atom_site_fract_x
  _atom_site_fract_y
  _atom_site_fract_z
  _atom_site_occupancy
  Lu  Lu1       1.0  0.52900  0.62300  0.21700  1.0000
  Lu  Lu2       1.0  0.47100  0.12300  0.28300  1.0000
  Lu  Lu3       1.0  0.52900  0.87700  0.71700  1.0000
  Lu  Lu4       1.0  0.47100  0.37700  0.78300  1.0000
  Na  Na1       1.0  0.88300  0.29400  0.02000  1.0000
  Na  Na2       1.0  0.11700  0.79400  0.48000  1.0000
  Na  Na3       1.0  0.88300  0.20600  0.52000  1.0000
  Na  Na4       1.0  0.11700  0.70600  0.98000  1.0000
  O   O1        1.0  0.58500  0.34900  0.10900  1.0000
  O   O2        1.0  0.41500  0.84900  0.39100  1.0000
  O   O3        1.0  0.58500  0.15100  0.60900  1.0000
  O   O4        1.0  0.41500  0.65100  0.89100  1.0000
  Te  Te1       1.0  0.79700  0.91800  0.14700  1.0000
  Te  Te2       1.0  0.20300  0.41800  0.35300  1.0000
  Te  Te3       1.0  0.79700  0.58200  0.64700  1.0000
  Te  Te4       1.0  0.20300  0.08170  0.85300  1.0000
