data_image0
_chemical_formula_structural       O2Tb2Te2Tl2
_chemical_formula_sum              "O2 Tb2 Te2 Tl2"
_cell_length_a       4.92266
_cell_length_b       8.12633
_cell_length_c       6.79422
_cell_angle_alpha    90
_cell_angle_beta     90
_cell_angle_gamma    90

_space_group_name_H-M_alt    "P 1"
_space_group_IT_number       1

loop_
  _space_group_symop_operation_xyz
  'x, y, z'

loop_
  _atom_site_type_symbol
  _atom_site_label
  _atom_site_symmetry_multiplicity
  _atom_site_fract_x
  _atom_site_fract_y
  _atom_site_fract_z
  _atom_site_occupancy
  O   O1        1.0  0.50000  0.06780  0.23800  1.0000
  O   O2        1.0  0.50000  0.93200  0.73800  1.0000
  Tb  Tb1       1.0  0.50000  0.87100  0.03720  1.0000
  Tb  Tb2       1.0  0.50000  0.12900  0.53700  1.0000
  Te  Te1       1.0  0.00000  0.66600  0.10000  1.0000
  Te  Te2       1.0  0.00000  0.33400  0.60000  1.0000
  Tl  Tl1       1.0  0.00000  0.25200  0.11600  1.0000
  Tl  Tl2       1.0  0.00000  0.74800  0.61600  1.0000
