data_image0
_chemical_formula_structural       Cs2O2Te2V2
_chemical_formula_sum              "Cs2 O2 Te2 V2"
_cell_length_a       4.52076
_cell_length_b       8.5366
_cell_length_c       6.95637
_cell_angle_alpha    90
_cell_angle_beta     90
_cell_angle_gamma    90

_space_group_name_H-M_alt    "P 1"
_space_group_IT_number       1

loop_
  _space_group_symop_operation_xyz
  'x, y, z'

loop_
  _atom_site_type_symbol
  _atom_site_label
  _atom_site_symmetry_multiplicity
  _atom_site_fract_x
  _atom_site_fract_y
  _atom_site_fract_z
  _atom_site_occupancy
  Cs  Cs1       1.0  0.00000  0.29100  0.09680  1.0000
  Cs  Cs2       1.0  0.00000  0.70900  0.59700  1.0000
  O   O1        1.0  0.50000  0.04930  0.25800  1.0000
  O   O2        1.0  0.50000  0.95100  0.75800  1.0000
  Te  Te1       1.0  0.00000  0.74400  0.09230  1.0000
  Te  Te2       1.0  0.00000  0.25600  0.59200  1.0000
  V   V1        1.0  0.50000  0.92200  0.04410  1.0000
  V   V2        1.0  0.50000  0.07800  0.54400  1.0000
