data_image0
_chemical_formula_structural       La2O2Se2Tl2
_chemical_formula_sum              "La2 O2 Se2 Tl2"
_cell_length_a       4.95387
_cell_length_b       7.89193
_cell_length_c       6.7533
_cell_angle_alpha    90
_cell_angle_beta     90
_cell_angle_gamma    90

_space_group_name_H-M_alt    "P 1"
_space_group_IT_number       1

loop_
  _space_group_symop_operation_xyz
  'x, y, z'

loop_
  _atom_site_type_symbol
  _atom_site_label
  _atom_site_symmetry_multiplicity
  _atom_site_fract_x
  _atom_site_fract_y
  _atom_site_fract_z
  _atom_site_occupancy
  La  La1       1.0  0.50000  0.85700  0.02280  1.0000
  La  La2       1.0  0.50000  0.14300  0.52300  1.0000
  O   O1        1.0  0.50000  0.08510  0.20400  1.0000
  O   O2        1.0  0.50000  0.91500  0.70400  1.0000
  Se  Se1       1.0  0.00000  0.68400  0.15600  1.0000
  Se  Se2       1.0  0.00000  0.31600  0.65600  1.0000
  Tl  Tl1       1.0  0.00000  0.29600  0.10800  1.0000
  Tl  Tl2       1.0  0.00000  0.70400  0.60800  1.0000
