data_image0
_chemical_formula_structural       Ho2O2Te2Tl2
_chemical_formula_sum              "Ho2 O2 Te2 Tl2"
_cell_length_a       4.80419
_cell_length_b       8.24933
_cell_length_c       6.80151
_cell_angle_alpha    90
_cell_angle_beta     90
_cell_angle_gamma    90

_space_group_name_H-M_alt    "P 1"
_space_group_IT_number       1

loop_
  _space_group_symop_operation_xyz
  'x, y, z'

loop_
  _atom_site_type_symbol
  _atom_site_label
  _atom_site_symmetry_multiplicity
  _atom_site_fract_x
  _atom_site_fract_y
  _atom_site_fract_z
  _atom_site_occupancy
  Ho  Ho1       1.0  0.50000  0.88100  0.02900  1.0000
  Ho  Ho2       1.0  0.50000  0.11900  0.52900  1.0000
  O   O1        1.0  0.50000  0.07190  0.22800  1.0000
  O   O2        1.0  0.50000  0.92800  0.72800  1.0000
  Te  Te1       1.0  0.00000  0.67900  0.11400  1.0000
  Te  Te2       1.0  0.00000  0.32100  0.61400  1.0000
  Tl  Tl1       1.0  0.00000  0.27200  0.12000  1.0000
  Tl  Tl2       1.0  0.00000  0.72800  0.62000  1.0000
