data_image0
_chemical_formula_structural       Lu2O2Te2Tl2
_chemical_formula_sum              "Lu2 O2 Te2 Tl2"
_cell_length_a       4.70747
_cell_length_b       8.23422
_cell_length_c       6.76388
_cell_angle_alpha    90
_cell_angle_beta     90
_cell_angle_gamma    90

_space_group_name_H-M_alt    "P 1"
_space_group_IT_number       1

loop_
  _space_group_symop_operation_xyz
  'x, y, z'

loop_
  _atom_site_type_symbol
  _atom_site_label
  _atom_site_symmetry_multiplicity
  _atom_site_fract_x
  _atom_site_fract_y
  _atom_site_fract_z
  _atom_site_occupancy
  Lu  Lu1       1.0  0.50000  0.88300  0.03100  1.0000
  Lu  Lu2       1.0  0.50000  0.11700  0.53100  1.0000
  O   O1        1.0  0.50000  0.06580  0.23500  1.0000
  O   O2        1.0  0.50000  0.93400  0.73500  1.0000
  Te  Te1       1.0  0.00000  0.67900  0.10600  1.0000
  Te  Te2       1.0  0.00000  0.32100  0.60600  1.0000
  Tl  Tl1       1.0  0.00000  0.26900  0.11900  1.0000
  Tl  Tl2       1.0  0.00000  0.73100  0.61900  1.0000
