data_image0
_chemical_formula_structural       Fe6Si6Ti6
_chemical_formula_sum              "Fe6 Si6 Ti6"
_cell_length_a       6.24714
_cell_length_b       6.91683
_cell_length_c       7.10204
_cell_angle_alpha    119.141
_cell_angle_beta     116.092
_cell_angle_gamma    90

_space_group_name_H-M_alt    "P 1"
_space_group_IT_number       1

loop_
  _space_group_symop_operation_xyz
  'x, y, z'

loop_
  _atom_site_type_symbol
  _atom_site_label
  _atom_site_symmetry_multiplicity
  _atom_site_fract_x
  _atom_site_fract_y
  _atom_site_fract_z
  _atom_site_occupancy
  Fe  Fe1       1.0  0.74900  0.00000  0.00000  1.0000
  Fe  Fe2       1.0  0.74900  0.50000  0.00000  1.0000
  Fe  Fe3       1.0  0.50200  0.08880  0.24700  1.0000
  Fe  Fe4       1.0  0.50200  0.65800  0.24700  1.0000
  Fe  Fe5       1.0  0.25500  0.34200  0.75300  1.0000
  Fe  Fe6       1.0  0.25500  0.91100  0.75300  1.0000
  Si  Si1       1.0  0.52400  0.28100  0.06220  1.0000
  Si  Si2       1.0  0.17200  0.15900  0.33500  1.0000
  Si  Si3       1.0  0.17200  0.67600  0.33500  1.0000
  Si  Si4       1.0  0.83700  0.32400  0.66500  1.0000
  Si  Si5       1.0  0.83700  0.84100  0.66500  1.0000
  Si  Si6       1.0  0.46200  0.71900  0.93800  1.0000
  Ti  Ti1       1.0  0.08800  0.25300  0.00682  1.0000
  Ti  Ti2       1.0  0.89500  0.94500  0.39100  1.0000
  Ti  Ti3       1.0  0.96200  0.47700  0.45300  1.0000
  Ti  Ti4       1.0  0.50900  0.52300  0.54700  1.0000
  Ti  Ti5       1.0  0.50400  0.05460  0.60900  1.0000
  Ti  Ti6       1.0  0.08110  0.74700  0.99300  1.0000
