data_image0
_chemical_formula_structural       Cs2Fe2O2Te2
_chemical_formula_sum              "Cs2 Fe2 O2 Te2"
_cell_length_a       3.88764
_cell_length_b       8.67862
_cell_length_c       6.83349
_cell_angle_alpha    90
_cell_angle_beta     90
_cell_angle_gamma    90

_space_group_name_H-M_alt    "P 1"
_space_group_IT_number       1

loop_
  _space_group_symop_operation_xyz
  'x, y, z'

loop_
  _atom_site_type_symbol
  _atom_site_label
  _atom_site_symmetry_multiplicity
  _atom_site_fract_x
  _atom_site_fract_y
  _atom_site_fract_z
  _atom_site_occupancy
  Cs  Cs1       1.0  0.00000  0.22800  0.06120  1.0000
  Cs  Cs2       1.0  0.00000  0.77200  0.56100  1.0000
  Fe  Fe1       1.0  0.50000  0.89700  0.05930  1.0000
  Fe  Fe2       1.0  0.50000  0.10300  0.55900  1.0000
  O   O1        1.0  0.50000  0.00135  0.30800  1.0000
  O   O2        1.0  0.50000  0.99900  0.80800  1.0000
  Te  Te1       1.0  0.00000  0.67600  0.06210  1.0000
  Te  Te2       1.0  0.00000  0.32400  0.56200  1.0000
