data_image0
_chemical_formula_structural       Fe4Sc4Si4
_chemical_formula_sum              "Fe4 Sc4 Si4"
_cell_length_a       6.51066
_cell_length_b       4.01329
_cell_length_c       6.7087
_cell_angle_alpha    90
_cell_angle_beta     90
_cell_angle_gamma    90

_space_group_name_H-M_alt    "P 1"
_space_group_IT_number       1

loop_
  _space_group_symop_operation_xyz
  'x, y, z'

loop_
  _atom_site_type_symbol
  _atom_site_label
  _atom_site_symmetry_multiplicity
  _atom_site_fract_x
  _atom_site_fract_y
  _atom_site_fract_z
  _atom_site_occupancy
  Fe  Fe1       1.0  0.15500  0.25000  0.06260  1.0000
  Fe  Fe2       1.0  0.65500  0.25000  0.43700  1.0000
  Fe  Fe3       1.0  0.34500  0.75000  0.56300  1.0000
  Fe  Fe4       1.0  0.84500  0.75000  0.93700  1.0000
  Sc  Sc1       1.0  0.51000  0.75000  0.19100  1.0000
  Sc  Sc2       1.0  0.01000  0.75000  0.30900  1.0000
  Sc  Sc3       1.0  0.99000  0.25000  0.69100  1.0000
  Sc  Sc4       1.0  0.49000  0.25000  0.80900  1.0000
  Si  Si1       1.0  0.79900  0.25000  0.10700  1.0000
  Si  Si2       1.0  0.29900  0.25000  0.39300  1.0000
  Si  Si3       1.0  0.70100  0.75000  0.60700  1.0000
  Si  Si4       1.0  0.20100  0.75000  0.89300  1.0000
