data_image0
_chemical_formula_structural       La2O2Te2Tl2
_chemical_formula_sum              "La2 O2 Te2 Tl2"
_cell_length_a       5.22282
_cell_length_b       7.58644
_cell_length_c       7.07629
_cell_angle_alpha    90
_cell_angle_beta     90
_cell_angle_gamma    90

_space_group_name_H-M_alt    "P 1"
_space_group_IT_number       1

loop_
  _space_group_symop_operation_xyz
  'x, y, z'

loop_
  _atom_site_type_symbol
  _atom_site_label
  _atom_site_symmetry_multiplicity
  _atom_site_fract_x
  _atom_site_fract_y
  _atom_site_fract_z
  _atom_site_occupancy
  La  La1       1.0  0.50000  0.12600  0.48900  1.0000
  La  La2       1.0  0.50000  0.87400  0.98900  1.0000
  O   O1        1.0  0.50000  0.09900  0.17700  1.0000
  O   O2        1.0  0.50000  0.90100  0.67700  1.0000
  Te  Te1       1.0  0.00000  0.71300  0.18800  1.0000
  Te  Te2       1.0  0.00000  0.28700  0.68800  1.0000
  Tl  Tl1       1.0  0.00000  0.28000  0.13600  1.0000
  Tl  Tl2       1.0  0.00000  0.72000  0.63600  1.0000
