data_image0
_chemical_formula_structural       Dy4Hg4O4Te4
_chemical_formula_sum              "Dy4 Hg4 O4 Te4"
_cell_length_a       7.77038
_cell_length_b       7.51712
_cell_length_c       7.15706
_cell_angle_alpha    90
_cell_angle_beta     109.38
_cell_angle_gamma    90

_space_group_name_H-M_alt    "P 1"
_space_group_IT_number       1

loop_
  _space_group_symop_operation_xyz
  'x, y, z'

loop_
  _atom_site_type_symbol
  _atom_site_label
  _atom_site_symmetry_multiplicity
  _atom_site_fract_x
  _atom_site_fract_y
  _atom_site_fract_z
  _atom_site_occupancy
  Dy  Dy1       1.0  0.49900  0.64500  0.17800  1.0000
  Dy  Dy2       1.0  0.50100  0.14500  0.32200  1.0000
  Dy  Dy3       1.0  0.49900  0.85500  0.67800  1.0000
  Dy  Dy4       1.0  0.50100  0.35500  0.82200  1.0000
  Hg  Hg1       1.0  0.06770  0.73200  0.01340  1.0000
  Hg  Hg2       1.0  0.93200  0.23200  0.48700  1.0000
  Hg  Hg3       1.0  0.06770  0.76800  0.51300  1.0000
  Hg  Hg4       1.0  0.93200  0.26800  0.98700  1.0000
  O   O1        1.0  0.55100  0.36200  0.13700  1.0000
  O   O2        1.0  0.44900  0.86200  0.36300  1.0000
  O   O3        1.0  0.55100  0.13800  0.63700  1.0000
  O   O4        1.0  0.44900  0.63800  0.86300  1.0000
  Te  Te1       1.0  0.79400  0.93800  0.15100  1.0000
  Te  Te2       1.0  0.20600  0.43800  0.34900  1.0000
  Te  Te3       1.0  0.79400  0.56200  0.65100  1.0000
  Te  Te4       1.0  0.20600  0.06250  0.84900  1.0000
