data_image0
_chemical_formula_structural       Bi4O4Rb4Te4
_chemical_formula_sum              "Bi4 O4 Rb4 Te4"
_cell_length_a       9.30818
_cell_length_b       7.95496
_cell_length_c       6.64571
_cell_angle_alpha    90
_cell_angle_beta     95.9363
_cell_angle_gamma    90

_space_group_name_H-M_alt    "P 1"
_space_group_IT_number       1

loop_
  _space_group_symop_operation_xyz
  'x, y, z'

loop_
  _atom_site_type_symbol
  _atom_site_label
  _atom_site_symmetry_multiplicity
  _atom_site_fract_x
  _atom_site_fract_y
  _atom_site_fract_z
  _atom_site_occupancy
  Bi  Bi1       1.0  0.50800  0.62400  0.23100  1.0000
  Bi  Bi2       1.0  0.49200  0.12400  0.26900  1.0000
  Bi  Bi3       1.0  0.50800  0.87600  0.73100  1.0000
  Bi  Bi4       1.0  0.49200  0.37600  0.76900  1.0000
  O   O1        1.0  0.57800  0.34900  0.09430  1.0000
  O   O2        1.0  0.42200  0.84900  0.40600  1.0000
  O   O3        1.0  0.57800  0.15100  0.59400  1.0000
  O   O4        1.0  0.42200  0.65100  0.90600  1.0000
  Rb  Rb1       1.0  0.86400  0.40000  0.16600  1.0000
  Rb  Rb2       1.0  0.13600  0.90000  0.33400  1.0000
  Rb  Rb3       1.0  0.86400  0.09960  0.66600  1.0000
  Rb  Rb4       1.0  0.13600  0.60000  0.83400  1.0000
  Te  Te1       1.0  0.75400  0.93300  0.14300  1.0000
  Te  Te2       1.0  0.24600  0.43300  0.35700  1.0000
  Te  Te3       1.0  0.75400  0.56700  0.64300  1.0000
  Te  Te4       1.0  0.24600  0.06720  0.85700  1.0000
