data_image0
_chemical_formula_structural       Co2K2O2Te2
_chemical_formula_sum              "Co2 K2 O2 Te2"
_cell_length_a       3.95662
_cell_length_b       8.0305
_cell_length_c       6.54753
_cell_angle_alpha    90
_cell_angle_beta     90
_cell_angle_gamma    90

_space_group_name_H-M_alt    "P 1"
_space_group_IT_number       1

loop_
  _space_group_symop_operation_xyz
  'x, y, z'

loop_
  _atom_site_type_symbol
  _atom_site_label
  _atom_site_symmetry_multiplicity
  _atom_site_fract_x
  _atom_site_fract_y
  _atom_site_fract_z
  _atom_site_occupancy
  Co  Co1       1.0  0.50000  0.91900  0.02040  1.0000
  Co  Co2       1.0  0.50000  0.08100  0.52000  1.0000
  K   K1        1.0  0.00000  0.27200  0.11900  1.0000
  K   K2        1.0  0.00000  0.72800  0.61900  1.0000
  O   O1        1.0  0.50000  0.06430  0.23800  1.0000
  O   O2        1.0  0.50000  0.93600  0.73800  1.0000
  Te  Te1       1.0  0.00000  0.71400  0.11300  1.0000
  Te  Te2       1.0  0.00000  0.28600  0.61300  1.0000
