data_image0
_chemical_formula_structural       Cs2Ir2O2Te2
_chemical_formula_sum              "Cs2 Ir2 O2 Te2"
_cell_length_a       4.9128
_cell_length_b       7.66303
_cell_length_c       7.37603
_cell_angle_alpha    90
_cell_angle_beta     90
_cell_angle_gamma    90

_space_group_name_H-M_alt    "P 1"
_space_group_IT_number       1

loop_
  _space_group_symop_operation_xyz
  'x, y, z'

loop_
  _atom_site_type_symbol
  _atom_site_label
  _atom_site_symmetry_multiplicity
  _atom_site_fract_x
  _atom_site_fract_y
  _atom_site_fract_z
  _atom_site_occupancy
  Cs  Cs1       1.0  0.00000  0.31900  0.07240  1.0000
  Cs  Cs2       1.0  0.00000  0.68100  0.57200  1.0000
  Ir  Ir1       1.0  0.50000  0.96600  0.05300  1.0000
  Ir  Ir2       1.0  0.50000  0.03440  0.55300  1.0000
  O   O1        1.0  0.50000  0.00332  0.30300  1.0000
  O   O2        1.0  0.50000  0.99700  0.80300  1.0000
  Te  Te1       1.0  0.00000  0.82500  0.06290  1.0000
  Te  Te2       1.0  0.00000  0.17500  0.56300  1.0000
