data_image0
_chemical_formula_structural       Au2Na2O2Te2
_chemical_formula_sum              "Au2 Na2 O2 Te2"
_cell_length_a       3.44564
_cell_length_b       8.19674
_cell_length_c       6.25991
_cell_angle_alpha    90
_cell_angle_beta     90
_cell_angle_gamma    90

_space_group_name_H-M_alt    "P 1"
_space_group_IT_number       1

loop_
  _space_group_symop_operation_xyz
  'x, y, z'

loop_
  _atom_site_type_symbol
  _atom_site_label
  _atom_site_symmetry_multiplicity
  _atom_site_fract_x
  _atom_site_fract_y
  _atom_site_fract_z
  _atom_site_occupancy
  Au  Au1       1.0  0.50000  0.71800  0.15200  1.0000
  Au  Au2       1.0  0.50000  0.28200  0.65200  1.0000
  Na  Na1       1.0  0.00000  0.04180  0.03100  1.0000
  Na  Na2       1.0  0.00000  0.95800  0.53100  1.0000
  O   O1        1.0  0.50000  0.94400  0.26900  1.0000
  O   O2        1.0  0.50000  0.05640  0.76900  1.0000
  Te  Te1       1.0  0.00000  0.48100  0.03900  1.0000
  Te  Te2       1.0  0.00000  0.51900  0.53900  1.0000
