data_image0
_chemical_formula_structural       Dy2O2Te2Tl2
_chemical_formula_sum              "Dy2 O2 Te2 Tl2"
_cell_length_a       4.88809
_cell_length_b       8.15183
_cell_length_c       6.77783
_cell_angle_alpha    90
_cell_angle_beta     90
_cell_angle_gamma    90

_space_group_name_H-M_alt    "P 1"
_space_group_IT_number       1

loop_
  _space_group_symop_operation_xyz
  'x, y, z'

loop_
  _atom_site_type_symbol
  _atom_site_label
  _atom_site_symmetry_multiplicity
  _atom_site_fract_x
  _atom_site_fract_y
  _atom_site_fract_z
  _atom_site_occupancy
  Dy  Dy1       1.0  0.50000  0.87100  0.03890  1.0000
  Dy  Dy2       1.0  0.50000  0.12900  0.53900  1.0000
  O   O1        1.0  0.50000  0.06470  0.24100  1.0000
  O   O2        1.0  0.50000  0.93500  0.74100  1.0000
  Te  Te1       1.0  0.00000  0.66400  0.09700  1.0000
  Te  Te2       1.0  0.00000  0.33600  0.59700  1.0000
  Tl  Tl1       1.0  0.00000  0.25200  0.11400  1.0000
  Tl  Tl2       1.0  0.00000  0.74800  0.61400  1.0000
