data_image0
_chemical_formula_structural       Al2K2O2Te2
_chemical_formula_sum              "Al2 K2 O2 Te2"
_cell_length_a       4.18282
_cell_length_b       8.15321
_cell_length_c       6.07871
_cell_angle_alpha    90
_cell_angle_beta     90
_cell_angle_gamma    90

_space_group_name_H-M_alt    "P 1"
_space_group_IT_number       1

loop_
  _space_group_symop_operation_xyz
  'x, y, z'

loop_
  _atom_site_type_symbol
  _atom_site_label
  _atom_site_symmetry_multiplicity
  _atom_site_fract_x
  _atom_site_fract_y
  _atom_site_fract_z
  _atom_site_occupancy
  Al  Al1       1.0  0.50000  0.88400  0.05900  1.0000
  Al  Al2       1.0  0.50000  0.11600  0.55900  1.0000
  K   K1        1.0  0.00000  0.19800  0.06240  1.0000
  K   K2        1.0  0.00000  0.80200  0.56200  1.0000
  O   O1        1.0  0.50000  0.00156  0.30800  1.0000
  O   O2        1.0  0.50000  0.99800  0.80800  1.0000
  Te  Te1       1.0  0.00000  0.68100  0.06190  1.0000
  Te  Te2       1.0  0.00000  0.31900  0.56200  1.0000
