data_image0
_chemical_formula_structural       Na4O4Sb4Te4
_chemical_formula_sum              "Na4 O4 Sb4 Te4"
_cell_length_a       6.59688
_cell_length_b       8.76691
_cell_length_c       7.1093
_cell_angle_alpha    90
_cell_angle_beta     99.603
_cell_angle_gamma    90

_space_group_name_H-M_alt    "P 1"
_space_group_IT_number       1

loop_
  _space_group_symop_operation_xyz
  'x, y, z'

loop_
  _atom_site_type_symbol
  _atom_site_label
  _atom_site_symmetry_multiplicity
  _atom_site_fract_x
  _atom_site_fract_y
  _atom_site_fract_z
  _atom_site_occupancy
  Na  Na1       1.0  0.93300  0.29500  0.01720  1.0000
  Na  Na2       1.0  0.06740  0.79500  0.48300  1.0000
  Na  Na3       1.0  0.93300  0.20500  0.51700  1.0000
  Na  Na4       1.0  0.06740  0.70500  0.98300  1.0000
  O   O1        1.0  0.61300  0.38100  0.07610  1.0000
  O   O2        1.0  0.38700  0.88100  0.42400  1.0000
  O   O3        1.0  0.61300  0.11900  0.57600  1.0000
  O   O4        1.0  0.38700  0.61900  0.92400  1.0000
  Sb  Sb1       1.0  0.55000  0.58100  0.20000  1.0000
  Sb  Sb2       1.0  0.45000  0.08090  0.30000  1.0000
  Sb  Sb3       1.0  0.55000  0.91900  0.70000  1.0000
  Sb  Sb4       1.0  0.45000  0.41900  0.80000  1.0000
  Te  Te1       1.0  0.80800  0.98600  0.15800  1.0000
  Te  Te2       1.0  0.19200  0.48600  0.34200  1.0000
  Te  Te3       1.0  0.80800  0.51400  0.65800  1.0000
  Te  Te4       1.0  0.19200  0.01450  0.84200  1.0000
