data_image0
_chemical_formula_structural       Ag2Nb2O2Te2
_chemical_formula_sum              "Ag2 Nb2 O2 Te2"
_cell_length_a       3.40848
_cell_length_b       8.89402
_cell_length_c       5.84827
_cell_angle_alpha    90
_cell_angle_beta     90
_cell_angle_gamma    90

_space_group_name_H-M_alt    "P 1"
_space_group_IT_number       1

loop_
  _space_group_symop_operation_xyz
  'x, y, z'

loop_
  _atom_site_type_symbol
  _atom_site_label
  _atom_site_symmetry_multiplicity
  _atom_site_fract_x
  _atom_site_fract_y
  _atom_site_fract_z
  _atom_site_occupancy
  Ag  Ag1       1.0  0.00000  0.34700  0.18400  1.0000
  Ag  Ag2       1.0  0.00000  0.65300  0.68400  1.0000
  Nb  Nb1       1.0  0.50000  0.12700  0.46500  1.0000
  Nb  Nb2       1.0  0.50000  0.87300  0.96500  1.0000
  O   O1        1.0  0.50000  0.04390  0.15000  1.0000
  O   O2        1.0  0.50000  0.95600  0.65000  1.0000
  Te  Te1       1.0  0.00000  0.67700  0.19200  1.0000
  Te  Te2       1.0  0.00000  0.32300  0.69200  1.0000
