data_image0
_chemical_formula_structural       Cs2Ni2O2Te2
_chemical_formula_sum              "Cs2 Ni2 O2 Te2"
_cell_length_a       4.50756
_cell_length_b       7.9952
_cell_length_c       6.97678
_cell_angle_alpha    90
_cell_angle_beta     90
_cell_angle_gamma    90

_space_group_name_H-M_alt    "P 1"
_space_group_IT_number       1

loop_
  _space_group_symop_operation_xyz
  'x, y, z'

loop_
  _atom_site_type_symbol
  _atom_site_label
  _atom_site_symmetry_multiplicity
  _atom_site_fract_x
  _atom_site_fract_y
  _atom_site_fract_z
  _atom_site_occupancy
  Cs  Cs1       1.0  0.00000  0.26800  0.10100  1.0000
  Cs  Cs2       1.0  0.00000  0.73200  0.60100  1.0000
  Ni  Ni1       1.0  0.50000  0.92400  0.02870  1.0000
  Ni  Ni2       1.0  0.50000  0.07640  0.52900  1.0000
  O   O1        1.0  0.50000  0.03990  0.26400  1.0000
  O   O2        1.0  0.50000  0.96000  0.76400  1.0000
  Te  Te1       1.0  0.00000  0.75500  0.09690  1.0000
  Te  Te2       1.0  0.00000  0.24500  0.59700  1.0000
