data_image0
_chemical_formula_structural       Er2O2Te2Tl2
_chemical_formula_sum              "Er2 O2 Te2 Tl2"
_cell_length_a       4.76309
_cell_length_b       8.26741
_cell_length_c       6.79347
_cell_angle_alpha    90
_cell_angle_beta     90
_cell_angle_gamma    90

_space_group_name_H-M_alt    "P 1"
_space_group_IT_number       1

loop_
  _space_group_symop_operation_xyz
  'x, y, z'

loop_
  _atom_site_type_symbol
  _atom_site_label
  _atom_site_symmetry_multiplicity
  _atom_site_fract_x
  _atom_site_fract_y
  _atom_site_fract_z
  _atom_site_occupancy
  Er  Er1       1.0  0.50000  0.88500  0.02500  1.0000
  Er  Er2       1.0  0.50000  0.11500  0.52500  1.0000
  O   O1        1.0  0.50000  0.07500  0.22300  1.0000
  O   O2        1.0  0.50000  0.92500  0.72300  1.0000
  Te  Te1       1.0  0.00000  0.68500  0.11900  1.0000
  Te  Te2       1.0  0.00000  0.31500  0.61900  1.0000
  Tl  Tl1       1.0  0.00000  0.27800  0.12400  1.0000
  Tl  Tl2       1.0  0.00000  0.72200  0.62400  1.0000
