data_image0
_chemical_formula_structural       O2Os2Te2Tl2
_chemical_formula_sum              "O2 Os2 Te2 Tl2"
_cell_length_a       3.94294
_cell_length_b       8.10259
_cell_length_c       5.7142
_cell_angle_alpha    90
_cell_angle_beta     90
_cell_angle_gamma    90

_space_group_name_H-M_alt    "P 1"
_space_group_IT_number       1

loop_
  _space_group_symop_operation_xyz
  'x, y, z'

loop_
  _atom_site_type_symbol
  _atom_site_label
  _atom_site_symmetry_multiplicity
  _atom_site_fract_x
  _atom_site_fract_y
  _atom_site_fract_z
  _atom_site_occupancy
  O   O1        1.0  0.50000  0.18000  0.18600  1.0000
  O   O2        1.0  0.50000  0.82000  0.68600  1.0000
  Os  Os1       1.0  0.50000  0.00019  0.43600  1.0000
  Os  Os2       1.0  0.50000  0.00000  0.93600  1.0000
  Te  Te1       1.0  0.00000  0.84600  0.18500  1.0000
  Te  Te2       1.0  0.00000  0.15400  0.68500  1.0000
  Tl  Tl1       1.0  0.00000  0.37300  0.18300  1.0000
  Tl  Tl2       1.0  0.00000  0.62700  0.68300  1.0000
