data_image0
_chemical_formula_structural       Mg4O14V4
_chemical_formula_sum              "Mg4 O14 V4"
_cell_length_a       13.5225
_cell_length_b       5.37063
_cell_length_c       4.92922
_cell_angle_alpha    81.5338
_cell_angle_beta     106.347
_cell_angle_gamma    130.307

_space_group_name_H-M_alt    "P 1"
_space_group_IT_number       1

loop_
  _space_group_symop_operation_xyz
  'x, y, z'

loop_
  _atom_site_type_symbol
  _atom_site_label
  _atom_site_symmetry_multiplicity
  _atom_site_fract_x
  _atom_site_fract_y
  _atom_site_fract_z
  _atom_site_occupancy
  Mg  Mg1       1.0  0.41600  0.62100  0.42500  1.0000
  Mg  Mg2       1.0  0.91400  0.61800  0.48100  1.0000
  Mg  Mg3       1.0  0.08580  0.38200  0.51900  1.0000
  Mg  Mg4       1.0  0.58400  0.37900  0.57500  1.0000
  O   O1        1.0  0.28900  0.21600  0.09860  1.0000
  O   O2        1.0  0.77100  0.30700  0.16400  1.0000
  O   O3        1.0  0.96400  0.00327  0.21100  1.0000
  O   O4        1.0  0.46200  0.03910  0.23900  1.0000
  O   O5        1.0  0.56400  0.68300  0.29600  1.0000
  O   O6        1.0  0.06950  0.71100  0.31400  1.0000
  O   O7        1.0  0.21900  0.39700  0.39200  1.0000
  O   O8        1.0  0.78100  0.60300  0.60800  1.0000
  O   O9        1.0  0.93000  0.28900  0.68600  1.0000
  O   O10       1.0  0.43600  0.31700  0.70400  1.0000
  O   O11       1.0  0.53800  0.96100  0.76100  1.0000
  O   O12       1.0  0.03580  0.99700  0.78900  1.0000
  O   O13       1.0  0.22900  0.69300  0.83600  1.0000
  O   O14       1.0  0.71100  0.78400  0.90100  1.0000
  V   V1        1.0  0.64100  0.93000  0.03250  1.0000
  V   V2        1.0  0.13200  0.06940  0.15200  1.0000
  V   V3        1.0  0.86800  0.93100  0.84800  1.0000
  V   V4        1.0  0.35900  0.07040  0.96700  1.0000
