data_image0
_chemical_formula_structural       Ir2O2Rb2Te2
_chemical_formula_sum              "Ir2 O2 Rb2 Te2"
_cell_length_a       4.05551
_cell_length_b       8.28812
_cell_length_c       5.82879
_cell_angle_alpha    90
_cell_angle_beta     90
_cell_angle_gamma    90

_space_group_name_H-M_alt    "P 1"
_space_group_IT_number       1

loop_
  _space_group_symop_operation_xyz
  'x, y, z'

loop_
  _atom_site_type_symbol
  _atom_site_label
  _atom_site_symmetry_multiplicity
  _atom_site_fract_x
  _atom_site_fract_y
  _atom_site_fract_z
  _atom_site_occupancy
  Ir  Ir1       1.0  0.50000  0.99900  0.43600  1.0000
  Ir  Ir2       1.0  0.50000  0.00055  0.93600  1.0000
  O   O1        1.0  0.50000  0.17500  0.18700  1.0000
  O   O2        1.0  0.50000  0.82500  0.68700  1.0000
  Rb  Rb1       1.0  0.00000  0.36800  0.18300  1.0000
  Rb  Rb2       1.0  0.00000  0.63200  0.68300  1.0000
  Te  Te1       1.0  0.00000  0.85600  0.18500  1.0000
  Te  Te2       1.0  0.00000  0.14400  0.68500  1.0000
