data_image0
_chemical_formula_structural       CaH4Rb2
_chemical_formula_sum              "Ca1 H4 Rb2"
_cell_length_a       4.43448
_cell_length_b       4.43448
_cell_length_c       7.92005
_cell_angle_alpha    106.257
_cell_angle_beta     106.257
_cell_angle_gamma    90

_space_group_name_H-M_alt    "P 1"
_space_group_IT_number       1

loop_
  _space_group_symop_operation_xyz
  'x, y, z'

loop_
  _atom_site_type_symbol
  _atom_site_label
  _atom_site_symmetry_multiplicity
  _atom_site_fract_x
  _atom_site_fract_y
  _atom_site_fract_z
  _atom_site_occupancy
  Ca  Ca1       1.0  0.00000  0.00000  0.00000  1.0000
  H   H1        1.0  0.50000  0.00000  0.00000  1.0000
  H   H2        1.0  0.00000  0.50000  0.00000  1.0000
  H   H3        1.0  0.15700  0.15700  0.31400  1.0000
  H   H4        1.0  0.84300  0.84300  0.68600  1.0000
  Rb  Rb1       1.0  0.64800  0.64800  0.29700  1.0000
  Rb  Rb2       1.0  0.35200  0.35200  0.70300  1.0000
