data_image0
_chemical_formula_structural       Cu2N2O2Sc2
_chemical_formula_sum              "Cu2 N2 O2 Sc2"
_cell_length_a       3.5409
_cell_length_b       4.8008
_cell_length_c       5.61148
_cell_angle_alpha    90
_cell_angle_beta     90
_cell_angle_gamma    90

_space_group_name_H-M_alt    "P 1"
_space_group_IT_number       1

loop_
  _space_group_symop_operation_xyz
  'x, y, z'

loop_
  _atom_site_type_symbol
  _atom_site_label
  _atom_site_symmetry_multiplicity
  _atom_site_fract_x
  _atom_site_fract_y
  _atom_site_fract_z
  _atom_site_occupancy
  Cu  Cu1       1.0  0.50000  0.97400  0.22800  1.0000
  Cu  Cu2       1.0  0.50000  0.47400  0.77200  1.0000
  N   N1        1.0  0.00000  0.92100  0.32800  1.0000
  N   N2        1.0  0.00000  0.42100  0.67200  1.0000
  O   O1        1.0  0.50000  0.38700  0.14900  1.0000
  O   O2        1.0  0.50000  0.88700  0.85100  1.0000
  Sc  Sc1       1.0  0.00000  0.47200  0.30100  1.0000
  Sc  Sc2       1.0  1.00000  0.97200  0.69900  1.0000
