data_image0
_chemical_formula_structural       Fe3Ge3Hf3
_chemical_formula_sum              "Fe3 Ge3 Hf3"
_cell_length_a       6.524
_cell_length_b       6.524
_cell_length_c       3.7112
_cell_angle_alpha    90
_cell_angle_beta     90
_cell_angle_gamma    119.996

_space_group_name_H-M_alt    "P 1"
_space_group_IT_number       1

loop_
  _space_group_symop_operation_xyz
  'x, y, z'

loop_
  _atom_site_type_symbol
  _atom_site_label
  _atom_site_symmetry_multiplicity
  _atom_site_fract_x
  _atom_site_fract_y
  _atom_site_fract_z
  _atom_site_occupancy
  Fe  Fe1       1.0  0.24000  0.00001  0.00000  1.0000
  Fe  Fe2       1.0  0.00001  0.24000  0.00000  1.0000
  Fe  Fe3       1.0  0.76000  0.76000  0.00000  1.0000
  Ge  Ge1       1.0  0.66700  0.33300  0.00000  1.0000
  Ge  Ge2       1.0  0.33300  0.66700  0.00000  1.0000
  Ge  Ge3       1.0  0.00002  0.00002  0.50000  1.0000
  Hf  Hf1       1.0  0.58400  0.00000  0.50000  1.0000
  Hf  Hf2       1.0  0.41600  0.41600  0.50000  1.0000
  Hf  Hf3       1.0  0.00000  0.58400  0.50000  1.0000
