data_image0
_chemical_formula_structural       CsCu4S3
_chemical_formula_sum              "Cs1 Cu4 S3"
_cell_length_a       3.96959
_cell_length_b       3.96959
_cell_length_c       9.68523
_cell_angle_alpha    90
_cell_angle_beta     90
_cell_angle_gamma    90

_space_group_name_H-M_alt    "P 1"
_space_group_IT_number       1

loop_
  _space_group_symop_operation_xyz
  'x, y, z'

loop_
  _atom_site_type_symbol
  _atom_site_label
  _atom_site_symmetry_multiplicity
  _atom_site_fract_x
  _atom_site_fract_y
  _atom_site_fract_z
  _atom_site_occupancy
  Cs  Cs1       1.0  0.00000  0.00000  0.50000  1.0000
  Cu  Cu1       1.0  0.50000  0.00000  0.15100  1.0000
  Cu  Cu2       1.0  0.00000  0.50000  0.15100  1.0000
  Cu  Cu3       1.0  0.50000  0.00000  0.84900  1.0000
  Cu  Cu4       1.0  0.00000  0.50000  0.84900  1.0000
  S   S1        1.0  0.00000  0.00000  0.00000  1.0000
  S   S2        1.0  0.50000  0.50000  0.27300  1.0000
  S   S3        1.0  0.50000  0.50000  0.72700  1.0000
