data_image0
_chemical_formula_structural       Al36Mg6Ti4
_chemical_formula_sum              "Al36 Mg6 Ti4"
_cell_length_a       10.4372
_cell_length_b       10.4372
_cell_length_c       10.4372
_cell_angle_alpha    120
_cell_angle_beta     90
_cell_angle_gamma    120

_space_group_name_H-M_alt    "P 1"
_space_group_IT_number       1

loop_
  _space_group_symop_operation_xyz
  'x, y, z'

loop_
  _atom_site_type_symbol
  _atom_site_label
  _atom_site_symmetry_multiplicity
  _atom_site_fract_x
  _atom_site_fract_y
  _atom_site_fract_z
  _atom_site_occupancy
  Al  Al1       1.0  0.88900  0.50000  0.11100  1.0000
  Al  Al2       1.0  0.61100  0.22200  0.11100  1.0000
  Al  Al3       1.0  0.61100  0.50000  0.11100  1.0000
  Al  Al4       1.0  0.86100  0.00000  0.13900  1.0000
  Al  Al5       1.0  0.13900  0.00000  0.13900  1.0000
  Al  Al6       1.0  0.13900  0.27800  0.13900  1.0000
  Al  Al7       1.0  0.43200  0.13200  0.30000  1.0000
  Al  Al8       1.0  0.70000  0.13200  0.30000  1.0000
  Al  Al9       1.0  0.16800  0.60000  0.30000  1.0000
  Al  Al10      1.0  0.43200  0.60000  0.30000  1.0000
  Al  Al11      1.0  0.16800  0.86800  0.30000  1.0000
  Al  Al12      1.0  0.70000  0.86800  0.30000  1.0000
  Al  Al13      1.0  0.61100  0.50000  0.38900  1.0000
  Al  Al14      1.0  0.88900  0.50000  0.38900  1.0000
  Al  Al15      1.0  0.88900  0.77800  0.38900  1.0000
  Al  Al16      1.0  0.05020  0.36800  0.41800  1.0000
  Al  Al17      1.0  0.05020  0.10000  0.41800  1.0000
  Al  Al18      1.0  0.31800  0.36800  0.41800  1.0000
  Al  Al19      1.0  0.70000  0.40000  0.56800  1.0000
  Al  Al20      1.0  0.16800  0.86800  0.56800  1.0000
  Al  Al21      1.0  0.70000  0.86800  0.56800  1.0000
  Al  Al22      1.0  0.05020  0.10000  0.68200  1.0000
  Al  Al23      1.0  0.58200  0.63200  0.68200  1.0000
  Al  Al24      1.0  0.05020  0.63200  0.68200  1.0000
  Al  Al25      1.0  0.43200  0.13200  0.83200  1.0000
  Al  Al26      1.0  0.70000  0.40000  0.83200  1.0000
  Al  Al27      1.0  0.70000  0.13200  0.83200  1.0000
  Al  Al28      1.0  0.86100  0.00000  0.86100  1.0000
  Al  Al29      1.0  0.13900  0.00000  0.86100  1.0000
  Al  Al30      1.0  0.86100  0.72200  0.86100  1.0000
  Al  Al31      1.0  0.05020  0.36800  0.95000  1.0000
  Al  Al32      1.0  0.05020  0.63200  0.95000  1.0000
  Al  Al33      1.0  0.31800  0.90000  0.95000  1.0000
  Al  Al34      1.0  0.58200  0.90000  0.95000  1.0000
  Al  Al35      1.0  0.31800  0.36800  0.95000  1.0000
  Al  Al36      1.0  0.58200  0.63200  0.95000  1.0000
  Mg  Mg1       1.0  0.37500  0.75000  0.12500  1.0000
  Mg  Mg2       1.0  0.50000  0.00000  0.50000  1.0000
  Mg  Mg3       1.0  0.37500  0.75000  0.62500  1.0000
  Mg  Mg4       1.0  0.37500  0.25000  0.62500  1.0000
  Mg  Mg5       1.0  0.87500  0.25000  0.62500  1.0000
  Mg  Mg6       1.0  0.25000  0.50000  0.75000  1.0000
  Ti  Ti1       1.0  0.87500  0.25000  0.12500  1.0000
  Ti  Ti2       1.0  0.37500  0.25000  0.12500  1.0000
  Ti  Ti3       1.0  0.87500  0.75000  0.12500  1.0000
  Ti  Ti4       1.0  0.87500  0.75000  0.62500  1.0000
