data_image0
_chemical_formula_structural       Cu4Te2
_chemical_formula_sum              "Cu4 Te2"
_cell_length_a       4.27388
_cell_length_b       4.27388
_cell_length_c       8.00071
_cell_angle_alpha    90.0067
_cell_angle_beta     90.0067
_cell_angle_gamma    120

_space_group_name_H-M_alt    "P 1"
_space_group_IT_number       1

loop_
  _space_group_symop_operation_xyz
  'x, y, z'

loop_
  _atom_site_type_symbol
  _atom_site_label
  _atom_site_symmetry_multiplicity
  _atom_site_fract_x
  _atom_site_fract_y
  _atom_site_fract_z
  _atom_site_occupancy
  Cu  Cu1       1.0  0.66700  0.33300  0.15700  1.0000
  Cu  Cu2       1.0  0.33300  0.66700  0.15700  1.0000
  Cu  Cu3       1.0  0.66700  0.33300  0.84300  1.0000
  Cu  Cu4       1.0  0.33300  0.66700  0.84300  1.0000
  Te  Te1       1.0  0.00000  0.00000  0.28200  1.0000
  Te  Te2       1.0  0.00005  0.00005  0.71800  1.0000
