data_image0
_chemical_formula_structural       Co2O2Rb2Te2
_chemical_formula_sum              "Co2 O2 Rb2 Te2"
_cell_length_a       3.78683
_cell_length_b       8.23002
_cell_length_c       6.51128
_cell_angle_alpha    90
_cell_angle_beta     90
_cell_angle_gamma    90

_space_group_name_H-M_alt    "P 1"
_space_group_IT_number       1

loop_
  _space_group_symop_operation_xyz
  'x, y, z'

loop_
  _atom_site_type_symbol
  _atom_site_label
  _atom_site_symmetry_multiplicity
  _atom_site_fract_x
  _atom_site_fract_y
  _atom_site_fract_z
  _atom_site_occupancy
  Co  Co1       1.0  0.50000  0.88600  0.05890  1.0000
  Co  Co2       1.0  0.50000  0.11400  0.55900  1.0000
  O   O1        1.0  0.50000  0.00252  0.30700  1.0000
  O   O2        1.0  0.50000  0.99700  0.80700  1.0000
  Rb  Rb1       1.0  0.00000  0.21300  0.06260  1.0000
  Rb  Rb2       1.0  0.00000  0.78700  0.56300  1.0000
  Te  Te1       1.0  0.00000  0.66300  0.06240  1.0000
  Te  Te2       1.0  0.00000  0.33700  0.56200  1.0000
