data_image0
_chemical_formula_structural       Ag4Eu2
_chemical_formula_sum              "Ag4 Eu2"
_cell_length_a       4.74934
_cell_length_b       5.98708
_cell_length_c       5.98708
_cell_angle_alpha    93.905
_cell_angle_beta     113.368
_cell_angle_gamma    66.6321

_space_group_name_H-M_alt    "P 1"
_space_group_IT_number       1

loop_
  _space_group_symop_operation_xyz
  'x, y, z'

loop_
  _atom_site_type_symbol
  _atom_site_label
  _atom_site_symmetry_multiplicity
  _atom_site_fract_x
  _atom_site_fract_y
  _atom_site_fract_z
  _atom_site_occupancy
  Ag  Ag1       1.0  0.55000  0.11300  0.21300  1.0000
  Ag  Ag2       1.0  0.04980  0.28700  0.38700  1.0000
  Ag  Ag3       1.0  0.95000  0.71300  0.61300  1.0000
  Ag  Ag4       1.0  0.45000  0.88700  0.78700  1.0000
  Eu  Eu1       1.0  0.25000  0.70800  0.20800  1.0000
  Eu  Eu2       1.0  0.75000  0.29200  0.79200  1.0000
