data_image0
_chemical_formula_structural       B12N12O12Sr12
_chemical_formula_sum              "B12 N12 O12 Sr12"
_cell_length_a       6.59488
_cell_length_b       7.84677
_cell_length_c       11.7263
_cell_angle_alpha    90
_cell_angle_beta     92.6605
_cell_angle_gamma    90

_space_group_name_H-M_alt    "P 1"
_space_group_IT_number       1

loop_
  _space_group_symop_operation_xyz
  'x, y, z'

loop_
  _atom_site_type_symbol
  _atom_site_label
  _atom_site_symmetry_multiplicity
  _atom_site_fract_x
  _atom_site_fract_y
  _atom_site_fract_z
  _atom_site_occupancy
  B   B1        1.0  0.70600  0.72200  0.10500  1.0000
  B   B2        1.0  0.71000  0.03250  0.11200  1.0000
  B   B3        1.0  0.44900  0.87400  0.20700  1.0000
  B   B4        1.0  0.05120  0.37400  0.29300  1.0000
  B   B5        1.0  0.79000  0.53200  0.38800  1.0000
  B   B6        1.0  0.79400  0.22200  0.39500  1.0000
  B   B7        1.0  0.20600  0.77800  0.60500  1.0000
  B   B8        1.0  0.21000  0.46800  0.61200  1.0000
  B   B9        1.0  0.94900  0.62600  0.70700  1.0000
  B   B10       1.0  0.55100  0.12600  0.79300  1.0000
  B   B11       1.0  0.29000  0.96800  0.88800  1.0000
  B   B12       1.0  0.29400  0.27800  0.89500  1.0000
  N   N1        1.0  0.83100  0.87700  0.10200  1.0000
  N   N2        1.0  0.53000  0.70900  0.17500  1.0000
  N   N3        1.0  0.53200  0.04100  0.18100  1.0000
  N   N4        1.0  0.96800  0.54100  0.31900  1.0000
  N   N5        1.0  0.97000  0.20900  0.32500  1.0000
  N   N6        1.0  0.66900  0.37700  0.39800  1.0000
  N   N7        1.0  0.33100  0.62300  0.60200  1.0000
  N   N8        1.0  0.03030  0.79100  0.67500  1.0000
  N   N9        1.0  0.03190  0.45900  0.68100  1.0000
  N   N10       1.0  0.46800  0.95900  0.81900  1.0000
  N   N11       1.0  0.47000  0.29100  0.82500  1.0000
  N   N12       1.0  0.16900  0.12300  0.89800  1.0000
  O   O1        1.0  0.76600  0.58600  0.03500  1.0000
  O   O2        1.0  0.77800  0.17500  0.05200  1.0000
  O   O3        1.0  0.24100  0.37300  0.23900  1.0000
  O   O4        1.0  0.25900  0.87300  0.26100  1.0000
  O   O5        1.0  0.72200  0.67500  0.44800  1.0000
  O   O6        1.0  0.73400  0.08610  0.46500  1.0000
  O   O7        1.0  0.26600  0.91400  0.53500  1.0000
  O   O8        1.0  0.27800  0.32500  0.55200  1.0000
  O   O9        1.0  0.74100  0.12700  0.73900  1.0000
  O   O10       1.0  0.75900  0.62700  0.76100  1.0000
  O   O11       1.0  0.22200  0.82500  0.94800  1.0000
  O   O12       1.0  0.23400  0.41400  0.96500  1.0000
  Sr  Sr1       1.0  0.14200  0.63600  0.10800  1.0000
  Sr  Sr2       1.0  0.14400  0.11100  0.11300  1.0000
  Sr  Sr3       1.0  0.60600  0.37800  0.17200  1.0000
  Sr  Sr4       1.0  0.89400  0.87800  0.32800  1.0000
  Sr  Sr5       1.0  0.35600  0.61100  0.38700  1.0000
  Sr  Sr6       1.0  0.35800  0.13600  0.39200  1.0000
  Sr  Sr7       1.0  0.64200  0.86400  0.60800  1.0000
  Sr  Sr8       1.0  0.64400  0.38900  0.61300  1.0000
  Sr  Sr9       1.0  0.10600  0.12200  0.67200  1.0000
  Sr  Sr10      1.0  0.39400  0.62200  0.82800  1.0000
  Sr  Sr11      1.0  0.85600  0.88900  0.88700  1.0000
  Sr  Sr12      1.0  0.85800  0.36400  0.89200  1.0000
