data_image0
_chemical_formula_structural       CuTh2
_chemical_formula_sum              "Cu1 Th2"
_cell_length_a       5.30487
_cell_length_b       5.30487
_cell_length_c       3.10337
_cell_angle_alpha    90
_cell_angle_beta     90
_cell_angle_gamma    119.946

_space_group_name_H-M_alt    "P 1"
_space_group_IT_number       1

loop_
  _space_group_symop_operation_xyz
  'x, y, z'

loop_
  _atom_site_type_symbol
  _atom_site_label
  _atom_site_symmetry_multiplicity
  _atom_site_fract_x
  _atom_site_fract_y
  _atom_site_fract_z
  _atom_site_occupancy
  Cu  Cu1       1.0  0.00003  0.00003  0.00000  1.0000
  Th  Th1       1.0  0.66700  0.33300  0.50000  1.0000
  Th  Th2       1.0  0.33300  0.66700  0.50000  1.0000
