data_image0
_chemical_formula_structural       Al30Mg23
_chemical_formula_sum              "Al30 Mg23"
_cell_length_a       10.3256
_cell_length_b       10.3256
_cell_length_c       10.3256
_cell_angle_alpha    103.55
_cell_angle_beta     76.4498
_cell_angle_gamma    103.55

_space_group_name_H-M_alt    "P 1"
_space_group_IT_number       1

loop_
  _space_group_symop_operation_xyz
  'x, y, z'

loop_
  _atom_site_type_symbol
  _atom_site_label
  _atom_site_symmetry_multiplicity
  _atom_site_fract_x
  _atom_site_fract_y
  _atom_site_fract_z
  _atom_site_occupancy
  Al  Al1       1.0  0.21700  0.68300  0.06970  1.0000
  Al  Al2       1.0  0.49100  0.76000  0.08440  1.0000
  Al  Al3       1.0  0.76500  0.85100  0.09060  1.0000
  Al  Al4       1.0  0.33400  0.16100  0.14000  1.0000
  Al  Al5       1.0  0.09060  0.23500  0.14900  1.0000
  Al  Al6       1.0  0.86000  0.33400  0.16100  1.0000
  Al  Al7       1.0  0.31700  0.93000  0.21700  1.0000
  Al  Al8       1.0  0.85100  0.09060  0.23500  1.0000
  Al  Al9       1.0  0.08440  0.50900  0.24000  1.0000
  Al  Al10      1.0  0.62700  0.66900  0.25600  1.0000
  Al  Al11      1.0  0.06970  0.78300  0.31700  1.0000
  Al  Al12      1.0  0.25600  0.37300  0.33100  1.0000
  Al  Al13      1.0  0.83900  0.86000  0.33400  1.0000
  Al  Al14      1.0  0.66900  0.25600  0.37300  1.0000
  Al  Al15      1.0  0.24000  0.91600  0.49100  1.0000
  Al  Al16      1.0  0.76000  0.08440  0.50900  1.0000
  Al  Al17      1.0  0.33100  0.74400  0.62700  1.0000
  Al  Al18      1.0  0.16100  0.14000  0.66600  1.0000
  Al  Al19      1.0  0.74400  0.62700  0.66900  1.0000
  Al  Al20      1.0  0.93000  0.21700  0.68300  1.0000
  Al  Al21      1.0  0.37300  0.33100  0.74400  1.0000
  Al  Al22      1.0  0.91600  0.49100  0.76000  1.0000
  Al  Al23      1.0  0.14900  0.90900  0.76500  1.0000
  Al  Al24      1.0  0.68300  0.06970  0.78300  1.0000
  Al  Al25      1.0  0.14000  0.66600  0.83900  1.0000
  Al  Al26      1.0  0.90900  0.76500  0.85100  1.0000
  Al  Al27      1.0  0.66600  0.83900  0.86000  1.0000
  Al  Al28      1.0  0.23500  0.14900  0.90900  1.0000
  Al  Al29      1.0  0.50900  0.24000  0.91600  1.0000
  Al  Al30      1.0  0.78300  0.31700  0.93000  1.0000
  Mg  Mg1       1.0  0.34800  0.45200  0.05740  1.0000
  Mg  Mg2       1.0  0.07710  0.92300  0.07710  1.0000
  Mg  Mg3       1.0  0.90500  0.61200  0.08140  1.0000
  Mg  Mg4       1.0  0.61200  0.08140  0.09500  1.0000
  Mg  Mg5       1.0  0.57000  0.38200  0.19100  1.0000
  Mg  Mg6       1.0  0.33900  0.66100  0.33900  1.0000
  Mg  Mg7       1.0  0.54800  0.94300  0.34800  1.0000
  Mg  Mg8       1.0  0.80900  0.57000  0.38200  1.0000
  Mg  Mg9       1.0  0.08140  0.09500  0.38800  1.0000
  Mg  Mg10      1.0  0.38200  0.19100  0.43000  1.0000
  Mg  Mg11      1.0  0.94300  0.34800  0.45200  1.0000
  Mg  Mg12      1.0  0.50000  0.50000  0.50000  1.0000
  Mg  Mg13      1.0  0.05740  0.65200  0.54800  1.0000
  Mg  Mg14      1.0  0.61800  0.80900  0.57000  1.0000
  Mg  Mg15      1.0  0.91900  0.90500  0.61200  1.0000
  Mg  Mg16      1.0  0.19100  0.43000  0.61800  1.0000
  Mg  Mg17      1.0  0.45200  0.05740  0.65200  1.0000
  Mg  Mg18      1.0  0.66100  0.33900  0.66100  1.0000
  Mg  Mg19      1.0  0.43000  0.61800  0.80900  1.0000
  Mg  Mg20      1.0  0.38800  0.91900  0.90500  1.0000
  Mg  Mg21      1.0  0.09500  0.38800  0.91900  1.0000
  Mg  Mg22      1.0  0.92300  0.07710  0.92300  1.0000
  Mg  Mg23      1.0  0.65200  0.54800  0.94300  1.0000
