data_image0
_chemical_formula_structural       Al2FeS4
_chemical_formula_sum              "Al2 Fe1 S4"
_cell_length_a       3.62545
_cell_length_b       3.62545
_cell_length_c       12.3953
_cell_angle_alpha    98.4093
_cell_angle_beta     81.5907
_cell_angle_gamma    120

_space_group_name_H-M_alt    "P 1"
_space_group_IT_number       1

loop_
  _space_group_symop_operation_xyz
  'x, y, z'

loop_
  _atom_site_type_symbol
  _atom_site_label
  _atom_site_symmetry_multiplicity
  _atom_site_fract_x
  _atom_site_fract_y
  _atom_site_fract_z
  _atom_site_occupancy
  Al  Al1       1.0  0.23700  0.76300  0.28900  1.0000
  Al  Al2       1.0  0.76200  0.23800  0.71500  1.0000
  Fe  Fe1       1.0  0.99900  0.00061  0.00184  1.0000
  S   S1        1.0  0.29700  0.70300  0.11000  1.0000
  S   S2        1.0  0.87700  0.12300  0.37000  1.0000
  S   S3        1.0  0.12200  0.87800  0.63300  1.0000
  S   S4        1.0  0.70200  0.29800  0.89400  1.0000
