data_image0
_chemical_formula_structural       BaNi2P4
_chemical_formula_sum              "Ba1 Ni2 P4"
_cell_length_a       5.4636
_cell_length_b       5.4636
_cell_length_c       5.4636
_cell_angle_alpha    106.159
_cell_angle_beta     116.321
_cell_angle_gamma    106.159

_space_group_name_H-M_alt    "P 1"
_space_group_IT_number       1

loop_
  _space_group_symop_operation_xyz
  'x, y, z'

loop_
  _atom_site_type_symbol
  _atom_site_label
  _atom_site_symmetry_multiplicity
  _atom_site_fract_x
  _atom_site_fract_y
  _atom_site_fract_z
  _atom_site_occupancy
  Ba  Ba1       1.0  0.00000  0.00000  0.00000  1.0000
  Ni  Ni1       1.0  0.75000  0.50000  0.25000  1.0000
  Ni  Ni2       1.0  0.25000  0.50000  0.75000  1.0000
  P   P1        1.0  0.50000  0.75800  0.25800  1.0000
  P   P2        1.0  0.25800  0.75800  0.50000  1.0000
  P   P3        1.0  0.74200  0.24200  0.50000  1.0000
  P   P4        1.0  0.50000  0.24200  0.74200  1.0000
