data_image0
_chemical_formula_structural       Ge4H4O16Yb4
_chemical_formula_sum              "Ge4 H4 O16 Yb4"
_cell_length_a       7.41405
_cell_length_b       7.74861
_cell_length_c       6.32295
_cell_angle_alpha    90
_cell_angle_beta     116.42
_cell_angle_gamma    90

_space_group_name_H-M_alt    "P 1"
_space_group_IT_number       1

loop_
  _space_group_symop_operation_xyz
  'x, y, z'

loop_
  _atom_site_type_symbol
  _atom_site_label
  _atom_site_symmetry_multiplicity
  _atom_site_fract_x
  _atom_site_fract_y
  _atom_site_fract_z
  _atom_site_occupancy
  Ge  Ge1       1.0  0.21800  0.40700  0.19500  1.0000
  Ge  Ge2       1.0  0.78200  0.90700  0.30500  1.0000
  Ge  Ge3       1.0  0.21800  0.09320  0.69500  1.0000
  Ge  Ge4       1.0  0.78200  0.59300  0.80500  1.0000
  H   H1        1.0  0.63500  0.64800  0.09090  1.0000
  H   H2        1.0  0.36500  0.14800  0.40900  1.0000
  H   H3        1.0  0.63500  0.85200  0.59100  1.0000
  H   H4        1.0  0.36500  0.35200  0.90900  1.0000
  O   O1        1.0  0.00809  0.28600  0.01160  1.0000
  O   O2        1.0  0.32300  0.50900  0.02450  1.0000
  O   O3        1.0  0.79200  0.06460  0.11200  1.0000
  O   O4        1.0  0.58100  0.76300  0.12400  1.0000
  O   O5        1.0  0.41900  0.26300  0.37600  1.0000
  O   O6        1.0  0.20800  0.56500  0.38800  1.0000
  O   O7        1.0  0.67700  0.00877  0.47600  1.0000
  O   O8        1.0  0.99200  0.78600  0.48800  1.0000
  O   O9        1.0  0.00809  0.21400  0.51200  1.0000
  O   O10       1.0  0.32300  0.99100  0.52400  1.0000
  O   O11       1.0  0.79200  0.43500  0.61200  1.0000
  O   O12       1.0  0.58100  0.73700  0.62400  1.0000
  O   O13       1.0  0.41900  0.23700  0.87600  1.0000
  O   O14       1.0  0.20800  0.93500  0.88800  1.0000
  O   O15       1.0  0.67700  0.49100  0.97600  1.0000
  O   O16       1.0  0.99200  0.71400  0.98800  1.0000
  Yb  Yb1       1.0  0.30400  0.80300  0.23400  1.0000
  Yb  Yb2       1.0  0.69600  0.30300  0.26600  1.0000
  Yb  Yb3       1.0  0.30400  0.69700  0.73400  1.0000
  Yb  Yb4       1.0  0.69600  0.19700  0.76600  1.0000
