data_image0
_chemical_formula_structural       Ce2Ge2H2O8
_chemical_formula_sum              "Ce2 Ge2 H2 O8"
_cell_length_a       5.54503
_cell_length_b       6.46271
_cell_length_c       4.69278
_cell_angle_alpha    90
_cell_angle_beta     98.7555
_cell_angle_gamma    90

_space_group_name_H-M_alt    "P 1"
_space_group_IT_number       1

loop_
  _space_group_symop_operation_xyz
  'x, y, z'

loop_
  _atom_site_type_symbol
  _atom_site_label
  _atom_site_symmetry_multiplicity
  _atom_site_fract_x
  _atom_site_fract_y
  _atom_site_fract_z
  _atom_site_occupancy
  Ce  Ce1       1.0  0.22800  0.25000  0.04260  1.0000
  Ce  Ce2       1.0  0.77200  0.75000  0.95700  1.0000
  Ge  Ge1       1.0  0.29800  0.75000  0.45500  1.0000
  Ge  Ge2       1.0  0.70200  0.25000  0.54500  1.0000
  H   H1        1.0  0.00000  0.00000  0.50000  1.0000
  H   H2        1.0  0.00000  0.50000  0.50000  1.0000
  O   O1        1.0  0.67900  0.25000  0.16800  1.0000
  O   O2        1.0  0.09630  0.54800  0.29600  1.0000
  O   O3        1.0  0.09630  0.95200  0.29600  1.0000
  O   O4        1.0  0.59900  0.75000  0.39400  1.0000
  O   O5        1.0  0.40100  0.25000  0.60600  1.0000
  O   O6        1.0  0.90400  0.04780  0.70400  1.0000
  O   O7        1.0  0.90400  0.45200  0.70400  1.0000
  O   O8        1.0  0.32100  0.75000  0.83200  1.0000
