data_image0
_chemical_formula_structural       Bi4Se3
_chemical_formula_sum              "Bi4 Se3"
_cell_length_a       4.30383
_cell_length_b       4.30383
_cell_length_c       13.6603
_cell_angle_alpha    90
_cell_angle_beta     99.0636
_cell_angle_gamma    60

_space_group_name_H-M_alt    "P 1"
_space_group_IT_number       1

loop_
  _space_group_symop_operation_xyz
  'x, y, z'

loop_
  _atom_site_type_symbol
  _atom_site_label
  _atom_site_symmetry_multiplicity
  _atom_site_fract_x
  _atom_site_fract_y
  _atom_site_fract_z
  _atom_site_occupancy
  Bi  Bi1       1.0  0.42500  0.28700  0.13800  1.0000
  Bi  Bi2       1.0  0.29000  0.85500  0.43400  1.0000
  Bi  Bi3       1.0  0.71000  0.14500  0.56600  1.0000
  Bi  Bi4       1.0  0.57500  0.71300  0.86200  1.0000
  Se  Se1       1.0  0.00000  0.00000  0.00000  1.0000
  Se  Se2       1.0  0.83400  0.58300  0.25200  1.0000
  Se  Se3       1.0  0.16600  0.41700  0.74800  1.0000
