data_image0
_chemical_formula_structural       Cr4Ni4Si4
_chemical_formula_sum              "Cr4 Ni4 Si4"
_cell_length_a       5.71776
_cell_length_b       3.61397
_cell_length_c       6.88266
_cell_angle_alpha    90
_cell_angle_beta     90
_cell_angle_gamma    90

_space_group_name_H-M_alt    "P 1"
_space_group_IT_number       1

loop_
  _space_group_symop_operation_xyz
  'x, y, z'

loop_
  _atom_site_type_symbol
  _atom_site_label
  _atom_site_symmetry_multiplicity
  _atom_site_fract_x
  _atom_site_fract_y
  _atom_site_fract_z
  _atom_site_occupancy
  Cr  Cr1       1.0  0.47100  0.75000  0.18100  1.0000
  Cr  Cr2       1.0  0.97100  0.75000  0.31900  1.0000
  Cr  Cr3       1.0  0.02890  0.25000  0.68100  1.0000
  Cr  Cr4       1.0  0.52900  0.25000  0.81900  1.0000
  Ni  Ni1       1.0  0.14800  0.25000  0.05880  1.0000
  Ni  Ni2       1.0  0.64800  0.25000  0.44100  1.0000
  Ni  Ni3       1.0  0.35200  0.75000  0.55900  1.0000
  Ni  Ni4       1.0  0.85200  0.75000  0.94100  1.0000
  Si  Si1       1.0  0.75500  0.25000  0.12500  1.0000
  Si  Si2       1.0  0.25500  0.25000  0.37500  1.0000
  Si  Si3       1.0  0.74500  0.75000  0.62500  1.0000
  Si  Si4       1.0  0.24500  0.75000  0.87500  1.0000
