data_image0
_chemical_formula_structural       Cl2O2Ti2
_chemical_formula_sum              "Cl2 O2 Ti2"
_cell_length_a       3.9665
_cell_length_b       3.24865
_cell_length_c       7.81681
_cell_angle_alpha    90
_cell_angle_beta     90
_cell_angle_gamma    90

_space_group_name_H-M_alt    "P 1"
_space_group_IT_number       1

loop_
  _space_group_symop_operation_xyz
  'x, y, z'

loop_
  _atom_site_type_symbol
  _atom_site_label
  _atom_site_symmetry_multiplicity
  _atom_site_fract_x
  _atom_site_fract_y
  _atom_site_fract_z
  _atom_site_occupancy
  Cl  Cl1       1.0  0.75000  0.75000  0.33200  1.0000
  Cl  Cl2       1.0  0.25000  0.25000  0.66800  1.0000
  O   O1        1.0  0.25000  0.25000  0.06750  1.0000
  O   O2        1.0  0.75000  0.75000  0.93200  1.0000
  Ti  Ti1       1.0  0.75000  0.25000  0.10600  1.0000
  Ti  Ti2       1.0  0.25000  0.75000  0.89400  1.0000
