data_image0
_chemical_formula_structural       Fe4Ni4Si4
_chemical_formula_sum              "Fe4 Ni4 Si4"
_cell_length_a       5.18452
_cell_length_b       3.67845
_cell_length_c       6.97896
_cell_angle_alpha    90
_cell_angle_beta     90
_cell_angle_gamma    90

_space_group_name_H-M_alt    "P 1"
_space_group_IT_number       1

loop_
  _space_group_symop_operation_xyz
  'x, y, z'

loop_
  _atom_site_type_symbol
  _atom_site_label
  _atom_site_symmetry_multiplicity
  _atom_site_fract_x
  _atom_site_fract_y
  _atom_site_fract_z
  _atom_site_occupancy
  Fe  Fe1       1.0  0.46000  0.75000  0.19800  1.0000
  Fe  Fe2       1.0  0.96000  0.75000  0.30200  1.0000
  Fe  Fe3       1.0  0.03960  0.25000  0.69800  1.0000
  Fe  Fe4       1.0  0.54000  0.25000  0.80200  1.0000
  Ni  Ni1       1.0  0.15800  0.25000  0.05970  1.0000
  Ni  Ni2       1.0  0.65800  0.25000  0.44000  1.0000
  Ni  Ni3       1.0  0.34200  0.75000  0.56000  1.0000
  Ni  Ni4       1.0  0.84200  0.75000  0.94000  1.0000
  Si  Si1       1.0  0.72600  0.25000  0.11800  1.0000
  Si  Si2       1.0  0.22600  0.25000  0.38200  1.0000
  Si  Si3       1.0  0.77400  0.75000  0.61800  1.0000
  Si  Si4       1.0  0.27400  0.75000  0.88200  1.0000
