data_image0
_chemical_formula_structural       Ge4Ni4Ti4
_chemical_formula_sum              "Ge4 Ni4 Ti4"
_cell_length_a       6.23869
_cell_length_b       3.7454
_cell_length_c       7.18735
_cell_angle_alpha    90
_cell_angle_beta     90
_cell_angle_gamma    90

_space_group_name_H-M_alt    "P 1"
_space_group_IT_number       1

loop_
  _space_group_symop_operation_xyz
  'x, y, z'

loop_
  _atom_site_type_symbol
  _atom_site_label
  _atom_site_symmetry_multiplicity
  _atom_site_fract_x
  _atom_site_fract_y
  _atom_site_fract_z
  _atom_site_occupancy
  Ge  Ge1       1.0  0.74400  0.75000  0.12200  1.0000
  Ge  Ge2       1.0  0.24400  0.75000  0.37800  1.0000
  Ge  Ge3       1.0  0.75600  0.25000  0.62200  1.0000
  Ge  Ge4       1.0  0.25600  0.25000  0.87800  1.0000
  Ni  Ni1       1.0  0.36000  0.75000  0.05930  1.0000
  Ni  Ni2       1.0  0.86000  0.75000  0.44100  1.0000
  Ni  Ni3       1.0  0.14000  0.25000  0.55900  1.0000
  Ni  Ni4       1.0  0.64000  0.25000  0.94100  1.0000
  Ti  Ti1       1.0  0.02810  0.25000  0.18600  1.0000
  Ti  Ti2       1.0  0.52800  0.25000  0.31400  1.0000
  Ti  Ti3       1.0  0.47200  0.75000  0.68600  1.0000
  Ti  Ti4       1.0  0.97200  0.75000  0.81400  1.0000
