data_image0
_chemical_formula_structural       Ge2H2Lu2O8
_chemical_formula_sum              "Ge2 H2 Lu2 O8"
_cell_length_a       5.08357
_cell_length_b       6.43775
_cell_length_c       4.50918
_cell_angle_alpha    90
_cell_angle_beta     97.6738
_cell_angle_gamma    90

_space_group_name_H-M_alt    "P 1"
_space_group_IT_number       1

loop_
  _space_group_symop_operation_xyz
  'x, y, z'

loop_
  _atom_site_type_symbol
  _atom_site_label
  _atom_site_symmetry_multiplicity
  _atom_site_fract_x
  _atom_site_fract_y
  _atom_site_fract_z
  _atom_site_occupancy
  Ge  Ge1       1.0  0.32300  0.75000  0.43000  1.0000
  Ge  Ge2       1.0  0.67700  0.25000  0.57000  1.0000
  H   H1        1.0  0.00000  0.00000  0.50000  1.0000
  H   H2        1.0  0.00000  0.50000  0.50000  1.0000
  Lu  Lu1       1.0  0.20100  0.25000  0.05540  1.0000
  Lu  Lu2       1.0  0.79900  0.75000  0.94500  1.0000
  O   O1        1.0  0.64500  0.25000  0.17900  1.0000
  O   O2        1.0  0.10200  0.54500  0.27800  1.0000
  O   O3        1.0  0.10200  0.95500  0.27800  1.0000
  O   O4        1.0  0.64800  0.75000  0.36600  1.0000
  O   O5        1.0  0.35200  0.25000  0.63400  1.0000
  O   O6        1.0  0.89800  0.04500  0.72200  1.0000
  O   O7        1.0  0.89800  0.45500  0.72200  1.0000
  O   O8        1.0  0.35500  0.75000  0.82100  1.0000
