data_image0
_chemical_formula_structural       Ag3BO3
_chemical_formula_sum              "Ag3 B1 O3"
_cell_length_a       3.25228
_cell_length_b       5.91118
_cell_length_c       5.91118
_cell_angle_alpha    116.715
_cell_angle_beta     100.568
_cell_angle_gamma    100.568

_space_group_name_H-M_alt    "P 1"
_space_group_IT_number       1

loop_
  _space_group_symop_operation_xyz
  'x, y, z'

loop_
  _atom_site_type_symbol
  _atom_site_label
  _atom_site_symmetry_multiplicity
  _atom_site_fract_x
  _atom_site_fract_y
  _atom_site_fract_z
  _atom_site_occupancy
  Ag  Ag1       1.0  0.51200  0.51200  0.02460  1.0000
  Ag  Ag2       1.0  0.48800  0.97500  0.48800  1.0000
  Ag  Ag3       1.0  0.00000  0.51200  0.48800  1.0000
  B   B1        1.0  0.00000  0.00000  0.00000  1.0000
  O   O1        1.0  0.13700  0.13700  0.27400  1.0000
  O   O2        1.0  0.00000  0.13700  0.86300  1.0000
  O   O3        1.0  0.86300  0.72600  0.86300  1.0000
