data_image0
_chemical_formula_structural       Ge2H2O8Tm2
_chemical_formula_sum              "Ge2 H2 O8 Tm2"
_cell_length_a       5.10807
_cell_length_b       6.48219
_cell_length_c       4.50222
_cell_angle_alpha    90
_cell_angle_beta     97.7233
_cell_angle_gamma    90

_space_group_name_H-M_alt    "P 1"
_space_group_IT_number       1

loop_
  _space_group_symop_operation_xyz
  'x, y, z'

loop_
  _atom_site_type_symbol
  _atom_site_label
  _atom_site_symmetry_multiplicity
  _atom_site_fract_x
  _atom_site_fract_y
  _atom_site_fract_z
  _atom_site_occupancy
  Ge  Ge1       1.0  0.32000  0.75000  0.43200  1.0000
  Ge  Ge2       1.0  0.68000  0.25000  0.56800  1.0000
  H   H1        1.0  0.00000  0.00000  0.50000  1.0000
  H   H2        1.0  0.00000  0.50000  0.50000  1.0000
  O   O1        1.0  0.65100  0.25000  0.17600  1.0000
  O   O2        1.0  0.10100  0.54700  0.27900  1.0000
  O   O3        1.0  0.10100  0.95300  0.27900  1.0000
  O   O4        1.0  0.64500  0.75000  0.37200  1.0000
  O   O5        1.0  0.35500  0.25000  0.62800  1.0000
  O   O6        1.0  0.89900  0.04680  0.72100  1.0000
  O   O7        1.0  0.89900  0.45300  0.72100  1.0000
  O   O8        1.0  0.34900  0.75000  0.82400  1.0000
  Tm  Tm1       1.0  0.20200  0.25000  0.05650  1.0000
  Tm  Tm2       1.0  0.79800  0.75000  0.94400  1.0000
