data_image0
_chemical_formula_structural       Ge4H4O16Sm4
_chemical_formula_sum              "Ge4 H4 O16 Sm4"
_cell_length_a       7.91789
_cell_length_b       6.79905
_cell_length_c       7.02174
_cell_angle_alpha    90
_cell_angle_beta     111.75
_cell_angle_gamma    90

_space_group_name_H-M_alt    "P 1"
_space_group_IT_number       1

loop_
  _space_group_symop_operation_xyz
  'x, y, z'

loop_
  _atom_site_type_symbol
  _atom_site_label
  _atom_site_symmetry_multiplicity
  _atom_site_fract_x
  _atom_site_fract_y
  _atom_site_fract_z
  _atom_site_occupancy
  Ge  Ge1       1.0  0.24300  0.10900  0.13100  1.0000
  Ge  Ge2       1.0  0.75700  0.60900  0.36900  1.0000
  Ge  Ge3       1.0  0.24300  0.39100  0.63100  1.0000
  Ge  Ge4       1.0  0.75700  0.89100  0.86900  1.0000
  H   H1        1.0  0.54300  0.82200  0.12100  1.0000
  H   H2        1.0  0.45700  0.32200  0.37900  1.0000
  H   H3        1.0  0.54300  0.67800  0.62100  1.0000
  H   H4        1.0  0.45700  0.17800  0.87900  1.0000
  O   O1        1.0  0.09730  0.30900  0.05140  1.0000
  O   O2        1.0  0.71700  0.03520  0.05570  1.0000
  O   O3        1.0  0.53500  0.71700  0.21600  1.0000
  O   O4        1.0  0.80500  0.42900  0.22000  1.0000
  O   O5        1.0  0.19500  0.92900  0.28000  1.0000
  O   O6        1.0  0.46500  0.21700  0.28400  1.0000
  O   O7        1.0  0.28300  0.53500  0.44400  1.0000
  O   O8        1.0  0.90300  0.80900  0.44900  1.0000
  O   O9        1.0  0.09730  0.19100  0.55100  1.0000
  O   O10       1.0  0.71700  0.46500  0.55600  1.0000
  O   O11       1.0  0.53500  0.78300  0.71600  1.0000
  O   O12       1.0  0.80500  0.07130  0.72000  1.0000
  O   O13       1.0  0.19500  0.57100  0.78000  1.0000
  O   O14       1.0  0.46500  0.28300  0.78400  1.0000
  O   O15       1.0  0.28300  0.96500  0.94400  1.0000
  O   O16       1.0  0.90300  0.69100  0.94900  1.0000
  Sm  Sm1       1.0  0.21100  0.63800  0.10800  1.0000
  Sm  Sm2       1.0  0.78900  0.13800  0.39200  1.0000
  Sm  Sm3       1.0  0.21100  0.86200  0.60800  1.0000
  Sm  Sm4       1.0  0.78900  0.36200  0.89200  1.0000
