data_image0
_chemical_formula_structural       Co4Ni4Si4
_chemical_formula_sum              "Co4 Ni4 Si4"
_cell_length_a       4.97244
_cell_length_b       3.68334
_cell_length_c       7.03596
_cell_angle_alpha    90
_cell_angle_beta     90
_cell_angle_gamma    90

_space_group_name_H-M_alt    "P 1"
_space_group_IT_number       1

loop_
  _space_group_symop_operation_xyz
  'x, y, z'

loop_
  _atom_site_type_symbol
  _atom_site_label
  _atom_site_symmetry_multiplicity
  _atom_site_fract_x
  _atom_site_fract_y
  _atom_site_fract_z
  _atom_site_occupancy
  Co  Co1       1.0  0.46200  0.75000  0.20900  1.0000
  Co  Co2       1.0  0.96200  0.75000  0.29100  1.0000
  Co  Co3       1.0  0.03770  0.25000  0.70900  1.0000
  Co  Co4       1.0  0.53800  0.25000  0.79100  1.0000
  Ni  Ni1       1.0  0.16900  0.25000  0.06340  1.0000
  Ni  Ni2       1.0  0.66900  0.25000  0.43700  1.0000
  Ni  Ni3       1.0  0.33100  0.75000  0.56300  1.0000
  Ni  Ni4       1.0  0.83100  0.75000  0.93700  1.0000
  Si  Si1       1.0  0.70600  0.25000  0.11000  1.0000
  Si  Si2       1.0  0.20600  0.25000  0.39000  1.0000
  Si  Si3       1.0  0.79400  0.75000  0.61000  1.0000
  Si  Si4       1.0  0.29400  0.75000  0.89000  1.0000
