data_image0
_chemical_formula_structural       Gd2Ge2H2O8
_chemical_formula_sum              "Gd2 Ge2 H2 O8"
_cell_length_a       5.20456
_cell_length_b       6.54713
_cell_length_c       4.56455
_cell_angle_alpha    90
_cell_angle_beta     97.7812
_cell_angle_gamma    90

_space_group_name_H-M_alt    "P 1"
_space_group_IT_number       1

loop_
  _space_group_symop_operation_xyz
  'x, y, z'

loop_
  _atom_site_type_symbol
  _atom_site_label
  _atom_site_symmetry_multiplicity
  _atom_site_fract_x
  _atom_site_fract_y
  _atom_site_fract_z
  _atom_site_occupancy
  Gd  Gd1       1.0  0.20700  0.25000  0.05490  1.0000
  Gd  Gd2       1.0  0.79300  0.75000  0.94500  1.0000
  Ge  Ge1       1.0  0.31300  0.75000  0.44000  1.0000
  Ge  Ge2       1.0  0.68700  0.25000  0.56000  1.0000
  H   H1        1.0  0.00000  0.00000  0.50000  1.0000
  H   H2        1.0  0.00000  0.50000  0.50000  1.0000
  O   O1        1.0  0.66400  0.25000  0.17400  1.0000
  O   O2        1.0  0.09960  0.54900  0.28500  1.0000
  O   O3        1.0  0.09960  0.95100  0.28500  1.0000
  O   O4        1.0  0.63300  0.75000  0.38000  1.0000
  O   O5        1.0  0.36700  0.25000  0.62000  1.0000
  O   O6        1.0  0.90000  0.04870  0.71500  1.0000
  O   O7        1.0  0.90000  0.45100  0.71500  1.0000
  O   O8        1.0  0.33600  0.75000  0.82600  1.0000
