data_image0
_chemical_formula_structural       B4Mn2Mo
_chemical_formula_sum              "B4 Mn2 Mo1"
_cell_length_a       3.0118
_cell_length_b       3.08054
_cell_length_c       6.7826
_cell_angle_alpha    103.126
_cell_angle_beta     102.828
_cell_angle_gamma    90

_space_group_name_H-M_alt    "P 1"
_space_group_IT_number       1

loop_
  _space_group_symop_operation_xyz
  'x, y, z'

loop_
  _atom_site_type_symbol
  _atom_site_label
  _atom_site_symmetry_multiplicity
  _atom_site_fract_x
  _atom_site_fract_y
  _atom_site_fract_z
  _atom_site_occupancy
  B   B1        1.0  0.07220  0.57200  0.14400  1.0000
  B   B2        1.0  0.64800  0.64800  0.29500  1.0000
  B   B3        1.0  0.35200  0.35200  0.70500  1.0000
  B   B4        1.0  0.92800  0.42800  0.85600  1.0000
  Mn  Mn1       1.0  0.18600  0.18600  0.37300  1.0000
  Mn  Mn2       1.0  0.81400  0.81400  0.62700  1.0000
  Mo  Mo1       1.0  0.50000  0.00000  0.00000  1.0000
