data_image0
_chemical_formula_structural       Mg4O20Te8
_chemical_formula_sum              "Mg4 O20 Te8"
_cell_length_a       7.2361
_cell_length_b       10.601
_cell_length_c       5.93132
_cell_angle_alpha    90
_cell_angle_beta     90
_cell_angle_gamma    90

_space_group_name_H-M_alt    "P 1"
_space_group_IT_number       1

loop_
  _space_group_symop_operation_xyz
  'x, y, z'

loop_
  _atom_site_type_symbol
  _atom_site_label
  _atom_site_symmetry_multiplicity
  _atom_site_fract_x
  _atom_site_fract_y
  _atom_site_fract_z
  _atom_site_occupancy
  Mg  Mg1       1.0  0.00000  0.44300  0.25000  1.0000
  Mg  Mg2       1.0  0.50000  0.94300  0.25000  1.0000
  Mg  Mg3       1.0  0.50000  0.05650  0.75000  1.0000
  Mg  Mg4       1.0  0.00000  0.55700  0.75000  1.0000
  O   O1        1.0  0.35300  0.06560  0.04950  1.0000
  O   O2        1.0  0.14700  0.56600  0.04950  1.0000
  O   O3        1.0  0.19300  0.29700  0.18400  1.0000
  O   O4        1.0  0.30700  0.79700  0.18400  1.0000
  O   O5        1.0  0.00000  0.05730  0.25000  1.0000
  O   O6        1.0  0.50000  0.55700  0.25000  1.0000
  O   O7        1.0  0.80700  0.29700  0.31600  1.0000
  O   O8        1.0  0.69300  0.79700  0.31600  1.0000
  O   O9        1.0  0.64700  0.06560  0.45000  1.0000
  O   O10       1.0  0.85300  0.56600  0.45000  1.0000
  O   O11       1.0  0.14700  0.43400  0.55000  1.0000
  O   O12       1.0  0.35300  0.93400  0.55000  1.0000
  O   O13       1.0  0.30700  0.20300  0.68400  1.0000
  O   O14       1.0  0.19300  0.70300  0.68400  1.0000
  O   O15       1.0  0.50000  0.44300  0.75000  1.0000
  O   O16       1.0  0.00000  0.94300  0.75000  1.0000
  O   O17       1.0  0.69300  0.20300  0.81600  1.0000
  O   O18       1.0  0.80700  0.70300  0.81600  1.0000
  O   O19       1.0  0.85300  0.43400  0.95000  1.0000
  O   O20       1.0  0.64700  0.93400  0.95000  1.0000
  Te  Te1       1.0  0.13300  0.15500  0.00241  1.0000
  Te  Te2       1.0  0.36700  0.65500  0.00241  1.0000
  Te  Te3       1.0  0.86700  0.15500  0.49800  1.0000
  Te  Te4       1.0  0.63300  0.65500  0.49800  1.0000
  Te  Te5       1.0  0.36700  0.34500  0.50200  1.0000
  Te  Te6       1.0  0.13300  0.84500  0.50200  1.0000
  Te  Te7       1.0  0.63300  0.34500  0.99800  1.0000
  Te  Te8       1.0  0.86700  0.84500  0.99800  1.0000
