data_image0
_chemical_formula_structural       Gd2H2O8Si2
_chemical_formula_sum              "Gd2 H2 O8 Si2"
_cell_length_a       4.8805
_cell_length_b       6.68193
_cell_length_c       4.48797
_cell_angle_alpha    90
_cell_angle_beta     96.9467
_cell_angle_gamma    90

_space_group_name_H-M_alt    "P 1"
_space_group_IT_number       1

loop_
  _space_group_symop_operation_xyz
  'x, y, z'

loop_
  _atom_site_type_symbol
  _atom_site_label
  _atom_site_symmetry_multiplicity
  _atom_site_fract_x
  _atom_site_fract_y
  _atom_site_fract_z
  _atom_site_occupancy
  Gd  Gd1       1.0  0.20000  0.25000  0.07170  1.0000
  Gd  Gd2       1.0  0.80000  0.75000  0.92800  1.0000
  H   H1        1.0  0.00000  0.00000  0.50000  1.0000
  H   H2        1.0  0.00000  0.50000  0.50000  1.0000
  O   O1        1.0  0.69300  0.25000  0.20400  1.0000
  O   O2        1.0  0.11600  0.55800  0.28900  1.0000
  O   O3        1.0  0.11600  0.94200  0.28900  1.0000
  O   O4        1.0  0.62200  0.75000  0.36900  1.0000
  O   O5        1.0  0.37800  0.25000  0.63100  1.0000
  O   O6        1.0  0.88400  0.05800  0.71100  1.0000
  O   O7        1.0  0.88400  0.44200  0.71100  1.0000
  O   O8        1.0  0.30700  0.75000  0.79600  1.0000
  Si  Si1       1.0  0.30700  0.75000  0.43400  1.0000
  Si  Si2       1.0  0.69300  0.25000  0.56600  1.0000
