data_image0
_chemical_formula_structural       Li4Mg4O22Si8
_chemical_formula_sum              "Li4 Mg4 O22 Si8"
_cell_length_a       8.61957
_cell_length_b       7.34046
_cell_length_c       6.84673
_cell_angle_alpha    104.806
_cell_angle_beta     101.039
_cell_angle_gamma    99.5003

_space_group_name_H-M_alt    "P 1"
_space_group_IT_number       1

loop_
  _space_group_symop_operation_xyz
  'x, y, z'

loop_
  _atom_site_type_symbol
  _atom_site_label
  _atom_site_symmetry_multiplicity
  _atom_site_fract_x
  _atom_site_fract_y
  _atom_site_fract_z
  _atom_site_occupancy
  Li  Li1       1.0  0.15400  0.75700  0.14200  1.0000
  Li  Li2       1.0  0.80400  0.19700  0.38800  1.0000
  Li  Li3       1.0  0.19600  0.80300  0.61200  1.0000
  Li  Li4       1.0  0.84600  0.24300  0.85800  1.0000
  Mg  Mg1       1.0  0.60800  0.38100  0.11900  1.0000
  Mg  Mg2       1.0  0.39800  0.61600  0.37200  1.0000
  Mg  Mg3       1.0  0.60200  0.38400  0.62800  1.0000
  Mg  Mg4       1.0  0.39200  0.61900  0.88100  1.0000
  O   O1        1.0  0.29300  0.03670  0.01470  1.0000
  O   O2        1.0  0.06250  0.25500  0.02280  1.0000
  O   O3        1.0  0.37300  0.41300  0.06510  1.0000
  O   O4        1.0  0.84000  0.39000  0.18000  1.0000
  O   O5        1.0  0.42500  0.80100  0.18500  1.0000
  O   O6        1.0  0.82300  0.85800  0.29500  1.0000
  O   O7        1.0  0.56600  0.19700  0.32400  1.0000
  O   O8        1.0  0.15900  0.59800  0.32500  1.0000
  O   O9        1.0  0.27200  0.03080  0.37800  1.0000
  O   O10       1.0  0.05260  0.25800  0.39900  1.0000
  O   O11       1.0  0.63100  0.59000  0.42000  1.0000
  O   O12       1.0  0.36900  0.41000  0.58000  1.0000
  O   O13       1.0  0.94700  0.74200  0.60100  1.0000
  O   O14       1.0  0.72800  0.96900  0.62200  1.0000
  O   O15       1.0  0.84100  0.40200  0.67500  1.0000
  O   O16       1.0  0.43400  0.80300  0.67600  1.0000
  O   O17       1.0  0.17700  0.14200  0.70500  1.0000
  O   O18       1.0  0.57500  0.19900  0.81500  1.0000
  O   O19       1.0  0.16000  0.61000  0.82000  1.0000
  O   O20       1.0  0.62700  0.58700  0.93500  1.0000
  O   O21       1.0  0.93700  0.74500  0.97700  1.0000
  O   O22       1.0  0.70700  0.96300  0.98500  1.0000
  Si  Si1       1.0  0.76900  0.78000  0.04220  1.0000
  Si  Si2       1.0  0.40800  0.02150  0.23200  1.0000
  Si  Si3       1.0  0.02870  0.39400  0.23900  1.0000
  Si  Si4       1.0  0.77700  0.78000  0.48200  1.0000
  Si  Si5       1.0  0.22300  0.22000  0.51800  1.0000
  Si  Si6       1.0  0.97100  0.60600  0.76100  1.0000
  Si  Si7       1.0  0.59200  0.97800  0.76800  1.0000
  Si  Si8       1.0  0.23100  0.22000  0.95800  1.0000
