data_image0
_chemical_formula_structural       Ge2H2Nd2O8
_chemical_formula_sum              "Ge2 H2 Nd2 O8"
_cell_length_a       5.37781
_cell_length_b       6.53524
_cell_length_c       4.64651
_cell_angle_alpha    90
_cell_angle_beta     98.1749
_cell_angle_gamma    90

_space_group_name_H-M_alt    "P 1"
_space_group_IT_number       1

loop_
  _space_group_symop_operation_xyz
  'x, y, z'

loop_
  _atom_site_type_symbol
  _atom_site_label
  _atom_site_symmetry_multiplicity
  _atom_site_fract_x
  _atom_site_fract_y
  _atom_site_fract_z
  _atom_site_occupancy
  Ge  Ge1       1.0  0.30400  0.75000  0.44800  1.0000
  Ge  Ge2       1.0  0.69600  0.25000  0.55200  1.0000
  H   H1        1.0  0.00000  0.00000  0.50000  1.0000
  H   H2        1.0  0.00000  0.50000  0.50000  1.0000
  Nd  Nd1       1.0  0.21800  0.25000  0.04980  1.0000
  Nd  Nd2       1.0  0.78200  0.75000  0.95000  1.0000
  O   O1        1.0  0.67400  0.25000  0.17100  1.0000
  O   O2        1.0  0.09760  0.54900  0.29100  1.0000
  O   O3        1.0  0.09760  0.95100  0.29100  1.0000
  O   O4        1.0  0.61400  0.75000  0.38700  1.0000
  O   O5        1.0  0.38600  0.25000  0.61300  1.0000
  O   O6        1.0  0.90200  0.04910  0.70900  1.0000
  O   O7        1.0  0.90200  0.45100  0.70900  1.0000
  O   O8        1.0  0.32600  0.75000  0.82900  1.0000
