data_image0
_chemical_formula_structural       H4O16Si4Yb4
_chemical_formula_sum              "H4 O16 Si4 Yb4"
_cell_length_a       7.38323
_cell_length_b       6.5541
_cell_length_c       6.75553
_cell_angle_alpha    90
_cell_angle_beta     108.505
_cell_angle_gamma    90

_space_group_name_H-M_alt    "P 1"
_space_group_IT_number       1

loop_
  _space_group_symop_operation_xyz
  'x, y, z'

loop_
  _atom_site_type_symbol
  _atom_site_label
  _atom_site_symmetry_multiplicity
  _atom_site_fract_x
  _atom_site_fract_y
  _atom_site_fract_z
  _atom_site_occupancy
  H   H1        1.0  0.52700  0.81800  0.11000  1.0000
  H   H2        1.0  0.47300  0.31800  0.39000  1.0000
  H   H3        1.0  0.52700  0.68200  0.61000  1.0000
  H   H4        1.0  0.47300  0.18200  0.89000  1.0000
  O   O1        1.0  0.71800  0.02290  0.02930  1.0000
  O   O2        1.0  0.11100  0.30300  0.08000  1.0000
  O   O3        1.0  0.81200  0.45600  0.19200  1.0000
  O   O4        1.0  0.52700  0.70400  0.20600  1.0000
  O   O5        1.0  0.47300  0.20400  0.29400  1.0000
  O   O6        1.0  0.18800  0.95600  0.30800  1.0000
  O   O7        1.0  0.88900  0.80300  0.42000  1.0000
  O   O8        1.0  0.28200  0.52300  0.47100  1.0000
  O   O9        1.0  0.71800  0.47700  0.52900  1.0000
  O   O10       1.0  0.11100  0.19700  0.58000  1.0000
  O   O11       1.0  0.81200  0.04380  0.69200  1.0000
  O   O12       1.0  0.52700  0.79600  0.70600  1.0000
  O   O13       1.0  0.47300  0.29600  0.79400  1.0000
  O   O14       1.0  0.18800  0.54400  0.80800  1.0000
  O   O15       1.0  0.88900  0.69700  0.92000  1.0000
  O   O16       1.0  0.28200  0.97700  0.97100  1.0000
  Si  Si1       1.0  0.25700  0.11300  0.16000  1.0000
  Si  Si2       1.0  0.74300  0.61300  0.34000  1.0000
  Si  Si3       1.0  0.25700  0.38700  0.66000  1.0000
  Si  Si4       1.0  0.74300  0.88700  0.84000  1.0000
  Yb  Yb1       1.0  0.19400  0.64200  0.13700  1.0000
  Yb  Yb2       1.0  0.80600  0.14200  0.36300  1.0000
  Yb  Yb3       1.0  0.19400  0.85800  0.63700  1.0000
  Yb  Yb4       1.0  0.80600  0.35800  0.86300  1.0000
