data_image0
_chemical_formula_structural       Ge2H2O8Pr2
_chemical_formula_sum              "Ge2 H2 O8 Pr2"
_cell_length_a       5.44524
_cell_length_b       6.50954
_cell_length_c       4.66998
_cell_angle_alpha    90
_cell_angle_beta     98.4138
_cell_angle_gamma    90

_space_group_name_H-M_alt    "P 1"
_space_group_IT_number       1

loop_
  _space_group_symop_operation_xyz
  'x, y, z'

loop_
  _atom_site_type_symbol
  _atom_site_label
  _atom_site_symmetry_multiplicity
  _atom_site_fract_x
  _atom_site_fract_y
  _atom_site_fract_z
  _atom_site_occupancy
  Ge  Ge1       1.0  0.30200  0.75000  0.45100  1.0000
  Ge  Ge2       1.0  0.69800  0.25000  0.54900  1.0000
  H   H1        1.0  0.00000  0.00000  0.50000  1.0000
  H   H2        1.0  0.00000  0.50000  0.50000  1.0000
  O   O1        1.0  0.67700  0.25000  0.17000  1.0000
  O   O2        1.0  0.09690  0.54900  0.29300  1.0000
  O   O3        1.0  0.09690  0.95100  0.29300  1.0000
  O   O4        1.0  0.60800  0.75000  0.39000  1.0000
  O   O5        1.0  0.39200  0.25000  0.61000  1.0000
  O   O6        1.0  0.90300  0.04880  0.70700  1.0000
  O   O7        1.0  0.90300  0.45100  0.70700  1.0000
  O   O8        1.0  0.32300  0.75000  0.83000  1.0000
  Pr  Pr1       1.0  0.22300  0.25000  0.04680  1.0000
  Pr  Pr2       1.0  0.77700  0.75000  0.95300  1.0000
