data_image0
_chemical_formula_structural       B48Mg4Si8
_chemical_formula_sum              "B48 Mg4 Si8"
_cell_length_a       10.9999
_cell_length_b       6.10847
_cell_length_c       8.37474
_cell_angle_alpha    90
_cell_angle_beta     90
_cell_angle_gamma    90

_space_group_name_H-M_alt    "P 1"
_space_group_IT_number       1

loop_
  _space_group_symop_operation_xyz
  'x, y, z'

loop_
  _atom_site_type_symbol
  _atom_site_label
  _atom_site_symmetry_multiplicity
  _atom_site_fract_x
  _atom_site_fract_y
  _atom_site_fract_z
  _atom_site_occupancy
  B   B1        1.0  0.17300  0.01700  0.03020  1.0000
  B   B2        1.0  0.17300  0.48300  0.03020  1.0000
  B   B3        1.0  0.66900  0.51500  0.03300  1.0000
  B   B4        1.0  0.66900  0.98500  0.03300  1.0000
  B   B5        1.0  0.89900  0.75000  0.05460  1.0000
  B   B6        1.0  0.40300  0.25000  0.05700  1.0000
  B   B7        1.0  0.15300  0.25000  0.14900  1.0000
  B   B8        1.0  0.64800  0.75000  0.15500  1.0000
  B   B9        1.0  0.29200  0.09210  0.16700  1.0000
  B   B10       1.0  0.29200  0.40800  0.16700  1.0000
  B   B11       1.0  0.78700  0.59100  0.16700  1.0000
  B   B12       1.0  0.78700  0.90900  0.16700  1.0000
  B   B13       1.0  0.28700  0.59100  0.33300  1.0000
  B   B14       1.0  0.28700  0.90900  0.33300  1.0000
  B   B15       1.0  0.79200  0.09210  0.33300  1.0000
  B   B16       1.0  0.79200  0.40800  0.33300  1.0000
  B   B17       1.0  0.14800  0.75000  0.34500  1.0000
  B   B18       1.0  0.65300  0.25000  0.35100  1.0000
  B   B19       1.0  0.90300  0.25000  0.44300  1.0000
  B   B20       1.0  0.39900  0.75000  0.44500  1.0000
  B   B21       1.0  0.16900  0.51500  0.46700  1.0000
  B   B22       1.0  0.16900  0.98500  0.46700  1.0000
  B   B23       1.0  0.67300  0.01700  0.47000  1.0000
  B   B24       1.0  0.67300  0.48300  0.47000  1.0000
  B   B25       1.0  0.32700  0.51700  0.53000  1.0000
  B   B26       1.0  0.32700  0.98300  0.53000  1.0000
  B   B27       1.0  0.83100  0.01470  0.53300  1.0000
  B   B28       1.0  0.83100  0.48500  0.53300  1.0000
  B   B29       1.0  0.60100  0.25000  0.55500  1.0000
  B   B30       1.0  0.09710  0.75000  0.55700  1.0000
  B   B31       1.0  0.34700  0.75000  0.64900  1.0000
  B   B32       1.0  0.85200  0.25000  0.65500  1.0000
  B   B33       1.0  0.20800  0.59200  0.66700  1.0000
  B   B34       1.0  0.20800  0.90800  0.66700  1.0000
  B   B35       1.0  0.71300  0.09100  0.66700  1.0000
  B   B36       1.0  0.71300  0.40900  0.66700  1.0000
  B   B37       1.0  0.21300  0.09100  0.83300  1.0000
  B   B38       1.0  0.21300  0.40900  0.83300  1.0000
  B   B39       1.0  0.70800  0.59200  0.83300  1.0000
  B   B40       1.0  0.70800  0.90800  0.83300  1.0000
  B   B41       1.0  0.35200  0.25000  0.84500  1.0000
  B   B42       1.0  0.84700  0.75000  0.85100  1.0000
  B   B43       1.0  0.59700  0.75000  0.94300  1.0000
  B   B44       1.0  0.10100  0.25000  0.94500  1.0000
  B   B45       1.0  0.33100  0.01470  0.96700  1.0000
  B   B46       1.0  0.33100  0.48500  0.96700  1.0000
  B   B47       1.0  0.82700  0.51700  0.97000  1.0000
  B   B48       1.0  0.82700  0.98300  0.97000  1.0000
  Mg  Mg1       1.0  0.43000  0.75000  0.15900  1.0000
  Mg  Mg2       1.0  0.93000  0.75000  0.34100  1.0000
  Mg  Mg3       1.0  0.07020  0.25000  0.65900  1.0000
  Mg  Mg4       1.0  0.57000  0.25000  0.84100  1.0000
  Si  Si1       1.0  0.08460  0.75000  0.10100  1.0000
  Si  Si2       1.0  0.58100  0.25000  0.13200  1.0000
  Si  Si3       1.0  0.08140  0.25000  0.36800  1.0000
  Si  Si4       1.0  0.58500  0.75000  0.39900  1.0000
  Si  Si5       1.0  0.41500  0.25000  0.60100  1.0000
  Si  Si6       1.0  0.91900  0.75000  0.63200  1.0000
  Si  Si7       1.0  0.41900  0.75000  0.86800  1.0000
  Si  Si8       1.0  0.91500  0.25000  0.89900  1.0000
