data_image0
_chemical_formula_structural       Eu2Ge2H2O8
_chemical_formula_sum              "Eu2 Ge2 H2 O8"
_cell_length_a       6.0338
_cell_length_b       5.83208
_cell_length_c       4.81803
_cell_angle_alpha    90
_cell_angle_beta     101.827
_cell_angle_gamma    90

_space_group_name_H-M_alt    "P 1"
_space_group_IT_number       1

loop_
  _space_group_symop_operation_xyz
  'x, y, z'

loop_
  _atom_site_type_symbol
  _atom_site_label
  _atom_site_symmetry_multiplicity
  _atom_site_fract_x
  _atom_site_fract_y
  _atom_site_fract_z
  _atom_site_occupancy
  Eu  Eu1       1.0  0.22600  0.25000  0.00038  1.0000
  Eu  Eu2       1.0  0.77400  0.75000  1.00000  1.0000
  Ge  Ge1       1.0  0.28500  0.75000  0.44800  1.0000
  Ge  Ge2       1.0  0.71500  0.25000  0.55200  1.0000
  H   H1        1.0  0.00000  0.00000  0.50000  1.0000
  H   H2        1.0  0.00000  0.50000  0.50000  1.0000
  O   O1        1.0  0.63000  0.25000  0.18000  1.0000
  O   O2        1.0  0.09890  0.52200  0.30800  1.0000
  O   O3        1.0  0.09890  0.97800  0.30800  1.0000
  O   O4        1.0  0.54900  0.75000  0.35200  1.0000
  O   O5        1.0  0.45100  0.25000  0.64800  1.0000
  O   O6        1.0  0.90100  0.02230  0.69200  1.0000
  O   O7        1.0  0.90100  0.47800  0.69200  1.0000
  O   O8        1.0  0.37000  0.75000  0.82000  1.0000
