data_image0
_chemical_formula_structural       H2La2O8Si2
_chemical_formula_sum              "H2 La2 O8 Si2"
_cell_length_a       5.32235
_cell_length_b       6.47509
_cell_length_c       4.65624
_cell_angle_alpha    90
_cell_angle_beta     98.4915
_cell_angle_gamma    90

_space_group_name_H-M_alt    "P 1"
_space_group_IT_number       1

loop_
  _space_group_symop_operation_xyz
  'x, y, z'

loop_
  _atom_site_type_symbol
  _atom_site_label
  _atom_site_symmetry_multiplicity
  _atom_site_fract_x
  _atom_site_fract_y
  _atom_site_fract_z
  _atom_site_occupancy
  H   H1        1.0  0.00000  0.00000  0.50000  1.0000
  H   H2        1.0  0.00000  0.50000  0.50000  1.0000
  La  La1       1.0  0.23500  0.25000  0.05300  1.0000
  La  La2       1.0  0.76500  0.75000  0.94700  1.0000
  O   O1        1.0  0.69600  0.25000  0.20000  1.0000
  O   O2        1.0  0.10900  0.55500  0.30300  1.0000
  O   O3        1.0  0.10900  0.94500  0.30300  1.0000
  O   O4        1.0  0.57800  0.75000  0.37600  1.0000
  O   O5        1.0  0.42200  0.25000  0.62400  1.0000
  O   O6        1.0  0.89100  0.05530  0.69700  1.0000
  O   O7        1.0  0.89100  0.44500  0.69700  1.0000
  O   O8        1.0  0.30400  0.75000  0.80000  1.0000
  Si  Si1       1.0  0.29100  0.75000  0.44900  1.0000
  Si  Si2       1.0  0.70900  0.25000  0.55100  1.0000
