data_image0
_chemical_formula_structural       Br2Eu2O2
_chemical_formula_sum              "Br2 Eu2 O2"
_cell_length_a       3.95047
_cell_length_b       3.95047
_cell_length_c       7.79125
_cell_angle_alpha    90
_cell_angle_beta     90
_cell_angle_gamma    90

_space_group_name_H-M_alt    "P 1"
_space_group_IT_number       1

loop_
  _space_group_symop_operation_xyz
  'x, y, z'

loop_
  _atom_site_type_symbol
  _atom_site_label
  _atom_site_symmetry_multiplicity
  _atom_site_fract_x
  _atom_site_fract_y
  _atom_site_fract_z
  _atom_site_occupancy
  Br  Br1       1.0  0.50000  0.00000  0.35400  1.0000
  Br  Br2       1.0  0.00000  0.50000  0.64600  1.0000
  Eu  Eu1       1.0  0.00000  0.50000  0.17200  1.0000
  Eu  Eu2       1.0  0.50000  0.00000  0.82800  1.0000
  O   O1        1.0  0.00000  0.00000  0.00000  1.0000
  O   O2        1.0  0.50000  0.50000  0.00000  1.0000
