data_image0
_chemical_formula_structural       Mg3Ni2Tb2
_chemical_formula_sum              "Mg3 Ni2 Tb2"
_cell_length_a       3.63863
_cell_length_b       3.95485
_cell_length_c       10.7117
_cell_angle_alpha    79.362
_cell_angle_beta     90
_cell_angle_gamma    90

_space_group_name_H-M_alt    "P 1"
_space_group_IT_number       1

loop_
  _space_group_symop_operation_xyz
  'x, y, z'

loop_
  _atom_site_type_symbol
  _atom_site_label
  _atom_site_symmetry_multiplicity
  _atom_site_fract_x
  _atom_site_fract_y
  _atom_site_fract_z
  _atom_site_occupancy
  Mg  Mg1       1.0  0.00000  0.00000  0.00000  1.0000
  Mg  Mg2       1.0  0.50000  0.42000  0.16000  1.0000
  Mg  Mg3       1.0  0.50000  0.58000  0.84000  1.0000
  Ni  Ni1       1.0  0.50000  0.28700  0.42600  1.0000
  Ni  Ni2       1.0  0.50000  0.71300  0.57400  1.0000
  Tb  Tb1       1.0  0.00000  0.82400  0.35300  1.0000
  Tb  Tb2       1.0  0.00000  0.17600  0.64700  1.0000
