data_image0
_chemical_formula_structural       Se4V3
_chemical_formula_sum              "Se4 V3"
_cell_length_a       3.39384
_cell_length_b       6.16283
_cell_length_c       6.857
_cell_angle_alpha    115.011
_cell_angle_beta     104.328
_cell_angle_gamma    90

_space_group_name_H-M_alt    "P 1"
_space_group_IT_number       1

loop_
  _space_group_symop_operation_xyz
  'x, y, z'

loop_
  _atom_site_type_symbol
  _atom_site_label
  _atom_site_symmetry_multiplicity
  _atom_site_fract_x
  _atom_site_fract_y
  _atom_site_fract_z
  _atom_site_occupancy
  Se  Se1       1.0  0.10700  0.45200  0.21300  1.0000
  Se  Se2       1.0  0.64100  0.97900  0.28200  1.0000
  Se  Se3       1.0  0.35900  0.02100  0.71800  1.0000
  Se  Se4       1.0  0.89300  0.54800  0.78700  1.0000
  V   V1        1.0  0.00000  0.00000  0.00000  1.0000
  V   V2        1.0  0.74500  0.67700  0.48900  1.0000
  V   V3        1.0  0.25500  0.32300  0.51100  1.0000
