data_image0
_chemical_formula_structural       H4Lu4O16Si4
_chemical_formula_sum              "H4 Lu4 O16 Si4"
_cell_length_a       9.11238
_cell_length_b       6.18143
_cell_length_c       6.70831
_cell_angle_alpha    90
_cell_angle_beta     130.688
_cell_angle_gamma    90

_space_group_name_H-M_alt    "P 1"
_space_group_IT_number       1

loop_
  _space_group_symop_operation_xyz
  'x, y, z'

loop_
  _atom_site_type_symbol
  _atom_site_label
  _atom_site_symmetry_multiplicity
  _atom_site_fract_x
  _atom_site_fract_y
  _atom_site_fract_z
  _atom_site_occupancy
  H   H1        1.0  0.40600  0.37000  0.06950  1.0000
  H   H2        1.0  0.59400  0.87000  0.43000  1.0000
  H   H3        1.0  0.40600  0.13000  0.57000  1.0000
  H   H4        1.0  0.59400  0.63000  0.93000  1.0000
  Lu  Lu1       1.0  0.22100  0.86100  0.22600  1.0000
  Lu  Lu2       1.0  0.77900  0.36100  0.27400  1.0000
  Lu  Lu3       1.0  0.22100  0.63900  0.72600  1.0000
  Lu  Lu4       1.0  0.77900  0.13900  0.77400  1.0000
  O   O1        1.0  0.56000  0.70800  0.03120  1.0000
  O   O2        1.0  0.76100  0.05770  0.07200  1.0000
  O   O3        1.0  0.27900  0.52500  0.09010  1.0000
  O   O4        1.0  0.07590  0.20300  0.09290  1.0000
  O   O5        1.0  0.92400  0.70300  0.40700  1.0000
  O   O6        1.0  0.72100  0.02490  0.41000  1.0000
  O   O7        1.0  0.23900  0.55800  0.42800  1.0000
  O   O8        1.0  0.44000  0.20800  0.46900  1.0000
  O   O9        1.0  0.56000  0.79200  0.53100  1.0000
  O   O10       1.0  0.76100  0.44200  0.57200  1.0000
  O   O11       1.0  0.27900  0.97500  0.59000  1.0000
  O   O12       1.0  0.07590  0.29700  0.59300  1.0000
  O   O13       1.0  0.92400  0.79700  0.90700  1.0000
  O   O14       1.0  0.72100  0.47500  0.91000  1.0000
  O   O15       1.0  0.23900  0.94200  0.92800  1.0000
  O   O16       1.0  0.44000  0.29200  0.96900  1.0000
  Si  Si1       1.0  0.75100  0.87800  0.23900  1.0000
  Si  Si2       1.0  0.24900  0.37800  0.26100  1.0000
  Si  Si3       1.0  0.75100  0.62200  0.73900  1.0000
  Si  Si4       1.0  0.24900  0.12200  0.76100  1.0000
