data_image0
_chemical_formula_structural       Ac2Ce2N2O2
_chemical_formula_sum              "Ac2 Ce2 N2 O2"
_cell_length_a       4.14863
_cell_length_b       6.1791
_cell_length_c       7.17224
_cell_angle_alpha    90
_cell_angle_beta     90
_cell_angle_gamma    90

_space_group_name_H-M_alt    "P 1"
_space_group_IT_number       1

loop_
  _space_group_symop_operation_xyz
  'x, y, z'

loop_
  _atom_site_type_symbol
  _atom_site_label
  _atom_site_symmetry_multiplicity
  _atom_site_fract_x
  _atom_site_fract_y
  _atom_site_fract_z
  _atom_site_occupancy
  Ac  Ac1       1.0  0.50000  0.98800  0.16600  1.0000
  Ac  Ac2       1.0  0.50000  0.48800  0.83400  1.0000
  Ce  Ce1       1.0  0.00000  0.49100  0.33100  1.0000
  Ce  Ce2       1.0  0.00000  0.99100  0.66900  1.0000
  N   N1        1.0  0.00000  0.88000  0.34900  1.0000
  N   N2        1.0  0.00000  0.38000  0.65100  1.0000
  O   O1        1.0  0.50000  0.39400  0.18400  1.0000
  O   O2        1.0  0.50000  0.89400  0.81600  1.0000
