data_image0
_chemical_formula_structural       NOTaZr
_chemical_formula_sum              "N1 O1 Ta1 Zr1"
_cell_length_a       3.65968
_cell_length_b       3.65923
_cell_length_c       4.47919
_cell_angle_alpha    90
_cell_angle_beta     90
_cell_angle_gamma    120.004

_space_group_name_H-M_alt    "P 1"
_space_group_IT_number       1

loop_
  _space_group_symop_operation_xyz
  'x, y, z'

loop_
  _atom_site_type_symbol
  _atom_site_label
  _atom_site_symmetry_multiplicity
  _atom_site_fract_x
  _atom_site_fract_y
  _atom_site_fract_z
  _atom_site_occupancy
  N   N1        1.0  0.66700  0.33300  0.50000  1.0000
  O   O1        1.0  0.33300  0.66700  0.00000  1.0000
  Ta  Ta1       1.0  0.33300  0.66700  0.50000  1.0000
  Zr  Zr1       1.0  0.00000  0.00000  0.00000  1.0000
