data_image0
_chemical_formula_structural       Ba6Mg2O18Ru4
_chemical_formula_sum              "Ba6 Mg2 O18 Ru4"
_cell_length_a       5.76981
_cell_length_b       5.7698
_cell_length_c       13.9946
_cell_angle_alpha    90
_cell_angle_beta     90
_cell_angle_gamma    120

_space_group_name_H-M_alt    "P 1"
_space_group_IT_number       1

loop_
  _space_group_symop_operation_xyz
  'x, y, z'

loop_
  _atom_site_type_symbol
  _atom_site_label
  _atom_site_symmetry_multiplicity
  _atom_site_fract_x
  _atom_site_fract_y
  _atom_site_fract_z
  _atom_site_occupancy
  Ba  Ba1       1.0  0.66700  0.33300  0.08820  1.0000
  Ba  Ba2       1.0  0.00000  0.00000  0.25000  1.0000
  Ba  Ba3       1.0  0.66700  0.33300  0.41200  1.0000
  Ba  Ba4       1.0  0.33300  0.66700  0.58800  1.0000
  Ba  Ba5       1.0  0.00000  0.00000  0.75000  1.0000
  Ba  Ba6       1.0  0.33300  0.66700  0.91200  1.0000
  Mg  Mg1       1.0  0.00000  0.00000  0.00000  1.0000
  Mg  Mg2       1.0  0.00000  0.00000  0.50000  1.0000
  O   O1        1.0  0.17200  0.82800  0.08470  1.0000
  O   O2        1.0  0.65700  0.82800  0.08470  1.0000
  O   O3        1.0  0.17200  0.34300  0.08470  1.0000
  O   O4        1.0  0.49400  0.98900  0.25000  1.0000
  O   O5        1.0  0.01110  0.50600  0.25000  1.0000
  O   O6        1.0  0.49400  0.50600  0.25000  1.0000
  O   O7        1.0  0.17200  0.34300  0.41500  1.0000
  O   O8        1.0  0.17200  0.82800  0.41500  1.0000
  O   O9        1.0  0.65700  0.82800  0.41500  1.0000
  O   O10       1.0  0.34300  0.17200  0.58500  1.0000
  O   O11       1.0  0.82800  0.17200  0.58500  1.0000
  O   O12       1.0  0.82800  0.65700  0.58500  1.0000
  O   O13       1.0  0.50600  0.01110  0.75000  1.0000
  O   O14       1.0  0.98900  0.49400  0.75000  1.0000
  O   O15       1.0  0.50600  0.49400  0.75000  1.0000
  O   O16       1.0  0.82800  0.65700  0.91500  1.0000
  O   O17       1.0  0.34300  0.17200  0.91500  1.0000
  O   O18       1.0  0.82800  0.17200  0.91500  1.0000
  Ru  Ru1       1.0  0.33300  0.66700  0.16100  1.0000
  Ru  Ru2       1.0  0.33300  0.66700  0.33900  1.0000
  Ru  Ru3       1.0  0.66700  0.33300  0.66100  1.0000
  Ru  Ru4       1.0  0.66700  0.33300  0.83900  1.0000
