data_image0
_chemical_formula_structural       H24Mg8Na8Ni4
_chemical_formula_sum              "H24 Mg8 Na8 Ni4"
_cell_length_a       11.2375
_cell_length_b       8.29284
_cell_length_c       5.29572
_cell_angle_alpha    90
_cell_angle_beta     90
_cell_angle_gamma    90

_space_group_name_H-M_alt    "P 1"
_space_group_IT_number       1

loop_
  _space_group_symop_operation_xyz
  'x, y, z'

loop_
  _atom_site_type_symbol
  _atom_site_label
  _atom_site_symmetry_multiplicity
  _atom_site_fract_x
  _atom_site_fract_y
  _atom_site_fract_z
  _atom_site_occupancy
  H   H1        1.0  0.86600  0.25000  0.02990  1.0000
  H   H2        1.0  0.72300  0.51700  0.12800  1.0000
  H   H3        1.0  0.72300  0.98300  0.12800  1.0000
  H   H4        1.0  0.09730  0.25000  0.15900  1.0000
  H   H5        1.0  0.97900  0.60000  0.24200  1.0000
  H   H6        1.0  0.97900  0.90000  0.24200  1.0000
  H   H7        1.0  0.47900  0.60000  0.25800  1.0000
  H   H8        1.0  0.47900  0.90000  0.25800  1.0000
  H   H9        1.0  0.59700  0.25000  0.34100  1.0000
  H   H10       1.0  0.22300  0.51700  0.37200  1.0000
  H   H11       1.0  0.22300  0.98300  0.37200  1.0000
  H   H12       1.0  0.36600  0.25000  0.47000  1.0000
  H   H13       1.0  0.63400  0.75000  0.53000  1.0000
  H   H14       1.0  0.77700  0.01730  0.62800  1.0000
  H   H15       1.0  0.77700  0.48300  0.62800  1.0000
  H   H16       1.0  0.40300  0.75000  0.65900  1.0000
  H   H17       1.0  0.52100  0.09960  0.74200  1.0000
  H   H18       1.0  0.52100  0.40000  0.74200  1.0000
  H   H19       1.0  0.02110  0.09960  0.75800  1.0000
  H   H20       1.0  0.02110  0.40000  0.75800  1.0000
  H   H21       1.0  0.90300  0.75000  0.84100  1.0000
  H   H22       1.0  0.27700  0.01730  0.87200  1.0000
  H   H23       1.0  0.27700  0.48300  0.87200  1.0000
  H   H24       1.0  0.13400  0.75000  0.97000  1.0000
  Mg  Mg1       1.0  0.12800  0.00725  0.06220  1.0000
  Mg  Mg2       1.0  0.12800  0.49300  0.06220  1.0000
  Mg  Mg3       1.0  0.62800  0.00725  0.43800  1.0000
  Mg  Mg4       1.0  0.62800  0.49300  0.43800  1.0000
  Mg  Mg5       1.0  0.37200  0.50700  0.56200  1.0000
  Mg  Mg6       1.0  0.37200  0.99300  0.56200  1.0000
  Mg  Mg7       1.0  0.87200  0.50700  0.93800  1.0000
  Mg  Mg8       1.0  0.87200  0.99300  0.93800  1.0000
  Na  Na1       1.0  0.39000  0.25000  0.04450  1.0000
  Na  Na2       1.0  0.33000  0.75000  0.05980  1.0000
  Na  Na3       1.0  0.83000  0.75000  0.44000  1.0000
  Na  Na4       1.0  0.89000  0.25000  0.45600  1.0000
  Na  Na5       1.0  0.11000  0.75000  0.54400  1.0000
  Na  Na6       1.0  0.17000  0.25000  0.56000  1.0000
  Na  Na7       1.0  0.67000  0.25000  0.94000  1.0000
  Na  Na8       1.0  0.61000  0.75000  0.95600  1.0000
  Ni  Ni1       1.0  0.00000  0.75000  0.05980  1.0000
  Ni  Ni2       1.0  0.50000  0.75000  0.44000  1.0000
  Ni  Ni3       1.0  0.50000  0.25000  0.56000  1.0000
  Ni  Ni4       1.0  0.00045  0.25000  0.94000  1.0000
