data_image0
_chemical_formula_structural       Bi4Mg4O20V4
_chemical_formula_sum              "Bi4 Mg4 O20 V4"
_cell_length_a       7.52543
_cell_length_b       11.5646
_cell_length_c       5.27616
_cell_angle_alpha    90
_cell_angle_beta     107.019
_cell_angle_gamma    90

_space_group_name_H-M_alt    "P 1"
_space_group_IT_number       1

loop_
  _space_group_symop_operation_xyz
  'x, y, z'

loop_
  _atom_site_type_symbol
  _atom_site_label
  _atom_site_symmetry_multiplicity
  _atom_site_fract_x
  _atom_site_fract_y
  _atom_site_fract_z
  _atom_site_occupancy
  Bi  Bi1       1.0  0.18000  0.09810  0.10900  1.0000
  Bi  Bi2       1.0  0.32000  0.59800  0.39100  1.0000
  Bi  Bi3       1.0  0.68000  0.40200  0.60900  1.0000
  Bi  Bi4       1.0  0.82000  0.90200  0.89100  1.0000
  Mg  Mg1       1.0  0.67600  0.57900  0.12300  1.0000
  Mg  Mg2       1.0  0.82400  0.07880  0.37700  1.0000
  Mg  Mg3       1.0  0.17600  0.92100  0.62300  1.0000
  Mg  Mg4       1.0  0.32400  0.42100  0.87700  1.0000
  O   O1        1.0  0.87100  0.67700  0.02630  1.0000
  O   O2        1.0  0.32500  0.93100  0.02650  1.0000
  O   O3        1.0  0.82200  0.42700  0.08350  1.0000
  O   O4        1.0  0.51600  0.71300  0.18200  1.0000
  O   O5        1.0  0.48300  0.47200  0.24500  1.0000
  O   O6        1.0  0.01720  0.97200  0.25500  1.0000
  O   O7        1.0  0.98400  0.21300  0.31800  1.0000
  O   O8        1.0  0.67800  0.92700  0.41700  1.0000
  O   O9        1.0  0.17500  0.43100  0.47400  1.0000
  O   O10       1.0  0.62900  0.17700  0.47400  1.0000
  O   O11       1.0  0.37100  0.82300  0.52600  1.0000
  O   O12       1.0  0.82500  0.56900  0.52600  1.0000
  O   O13       1.0  0.32200  0.07260  0.58300  1.0000
  O   O14       1.0  0.01560  0.78700  0.68200  1.0000
  O   O15       1.0  0.98300  0.02770  0.74500  1.0000
  O   O16       1.0  0.51700  0.52800  0.75500  1.0000
  O   O17       1.0  0.48400  0.28700  0.81800  1.0000
  O   O18       1.0  0.17800  0.57300  0.91700  1.0000
  O   O19       1.0  0.67500  0.06920  0.97400  1.0000
  O   O20       1.0  0.12900  0.32300  0.97400  1.0000
  V   V1        1.0  0.02570  0.35100  0.21800  1.0000
  V   V2        1.0  0.47400  0.85100  0.28200  1.0000
  V   V3        1.0  0.52600  0.14900  0.71800  1.0000
  V   V4        1.0  0.97400  0.64900  0.78200  1.0000
