data_image0
_chemical_formula_structural       As2Co2N2O2
_chemical_formula_sum              "As2 Co2 N2 O2"
_cell_length_a       3.04104
_cell_length_b       5.24328
_cell_length_c       6.1187
_cell_angle_alpha    90
_cell_angle_beta     90
_cell_angle_gamma    90

_space_group_name_H-M_alt    "P 1"
_space_group_IT_number       1

loop_
  _space_group_symop_operation_xyz
  'x, y, z'

loop_
  _atom_site_type_symbol
  _atom_site_label
  _atom_site_symmetry_multiplicity
  _atom_site_fract_x
  _atom_site_fract_y
  _atom_site_fract_z
  _atom_site_occupancy
  As  As1       1.0  0.50000  0.03640  0.14000  1.0000
  As  As2       1.0  0.50000  0.53600  0.86000  1.0000
  Co  Co1       1.0  0.00000  0.53700  0.41100  1.0000
  Co  Co2       1.0  0.00000  0.03650  0.58900  1.0000
  N   N1        1.0  0.00000  0.88200  0.27500  1.0000
  N   N2        1.0  0.00000  0.38200  0.72500  1.0000
  O   O1        1.0  0.50000  0.29900  0.34100  1.0000
  O   O2        1.0  0.50000  0.79900  0.65900  1.0000
