data_image0
_chemical_formula_structural       H10Mg2Rb6
_chemical_formula_sum              "H10 Mg2 Rb6"
_cell_length_a       7.77247
_cell_length_b       7.77247
_cell_length_c       8.18297
_cell_angle_alpha    118.354
_cell_angle_beta     118.354
_cell_angle_gamma    90

_space_group_name_H-M_alt    "P 1"
_space_group_IT_number       1

loop_
  _space_group_symop_operation_xyz
  'x, y, z'

loop_
  _atom_site_type_symbol
  _atom_site_label
  _atom_site_symmetry_multiplicity
  _atom_site_fract_x
  _atom_site_fract_y
  _atom_site_fract_z
  _atom_site_occupancy
  H   H1        1.0  0.00000  0.00000  0.00000  1.0000
  H   H2        1.0  0.50000  0.50000  0.00000  1.0000
  H   H3        1.0  0.79000  0.02430  0.31400  1.0000
  H   H4        1.0  0.52400  0.29000  0.31400  1.0000
  H   H5        1.0  0.02430  0.52400  0.31400  1.0000
  H   H6        1.0  0.29000  0.79000  0.31400  1.0000
  H   H7        1.0  0.71000  0.21000  0.68600  1.0000
  H   H8        1.0  0.97600  0.47600  0.68600  1.0000
  H   H9        1.0  0.47600  0.71000  0.68600  1.0000
  H   H10       1.0  0.21000  0.97600  0.68600  1.0000
  Mg  Mg1       1.0  0.75000  0.25000  0.50000  1.0000
  Mg  Mg2       1.0  0.25000  0.75000  0.50000  1.0000
  Rb  Rb1       1.0  0.67900  0.17900  0.00000  1.0000
  Rb  Rb2       1.0  0.17900  0.32100  0.00000  1.0000
  Rb  Rb3       1.0  0.82100  0.67900  0.00000  1.0000
  Rb  Rb4       1.0  0.32100  0.82100  0.00000  1.0000
  Rb  Rb5       1.0  0.25000  0.25000  0.50000  1.0000
  Rb  Rb6       1.0  0.75000  0.75000  0.50000  1.0000
