data_image0
_chemical_formula_structural       Eu4H4O16Si4
_chemical_formula_sum              "Eu4 H4 O16 Si4"
_cell_length_a       6.86274
_cell_length_b       7.52471
_cell_length_c       6.60154
_cell_angle_alpha    90
_cell_angle_beta     109.435
_cell_angle_gamma    90

_space_group_name_H-M_alt    "P 1"
_space_group_IT_number       1

loop_
  _space_group_symop_operation_xyz
  'x, y, z'

loop_
  _atom_site_type_symbol
  _atom_site_label
  _atom_site_symmetry_multiplicity
  _atom_site_fract_x
  _atom_site_fract_y
  _atom_site_fract_z
  _atom_site_occupancy
  Eu  Eu1       1.0  0.21600  0.83500  0.21100  1.0000
  Eu  Eu2       1.0  0.78400  0.33500  0.28900  1.0000
  Eu  Eu3       1.0  0.21600  0.66500  0.71100  1.0000
  Eu  Eu4       1.0  0.78400  0.16500  0.78900  1.0000
  H   H1        1.0  0.59600  0.66100  0.07210  1.0000
  H   H2        1.0  0.40400  0.16100  0.42800  1.0000
  H   H3        1.0  0.59600  0.83900  0.57200  1.0000
  H   H4        1.0  0.40400  0.33900  0.92800  1.0000
  O   O1        1.0  0.30900  0.48200  0.02350  1.0000
  O   O2        1.0  0.04430  0.27100  0.10200  1.0000
  O   O3        1.0  0.79500  0.03970  0.12400  1.0000
  O   O4        1.0  0.55100  0.76700  0.14600  1.0000
  O   O5        1.0  0.44900  0.26700  0.35400  1.0000
  O   O6        1.0  0.20500  0.54000  0.37600  1.0000
  O   O7        1.0  0.95600  0.77100  0.39800  1.0000
  O   O8        1.0  0.69100  0.98200  0.47600  1.0000
  O   O9        1.0  0.30900  0.01800  0.52400  1.0000
  O   O10       1.0  0.04430  0.22900  0.60200  1.0000
  O   O11       1.0  0.79500  0.46000  0.62400  1.0000
  O   O12       1.0  0.55100  0.73300  0.64600  1.0000
  O   O13       1.0  0.44900  0.23300  0.85400  1.0000
  O   O14       1.0  0.20500  0.96000  0.87600  1.0000
  O   O15       1.0  0.95600  0.72900  0.89800  1.0000
  O   O16       1.0  0.69100  0.51800  0.97600  1.0000
  Si  Si1       1.0  0.24800  0.39100  0.21800  1.0000
  Si  Si2       1.0  0.75200  0.89100  0.28200  1.0000
  Si  Si3       1.0  0.24800  0.10900  0.71800  1.0000
  Si  Si4       1.0  0.75200  0.60900  0.78200  1.0000
