data_image0
_chemical_formula_structural       H2O8Pr2Si2
_chemical_formula_sum              "H2 O8 Pr2 Si2"
_cell_length_a       5.07512
_cell_length_b       6.71429
_cell_length_c       4.59699
_cell_angle_alpha    90
_cell_angle_beta     97.1502
_cell_angle_gamma    90

_space_group_name_H-M_alt    "P 1"
_space_group_IT_number       1

loop_
  _space_group_symop_operation_xyz
  'x, y, z'

loop_
  _atom_site_type_symbol
  _atom_site_label
  _atom_site_symmetry_multiplicity
  _atom_site_fract_x
  _atom_site_fract_y
  _atom_site_fract_z
  _atom_site_occupancy
  H   H1        1.0  0.00000  0.00000  0.50000  1.0000
  H   H2        1.0  0.00000  0.50000  0.50000  1.0000
  O   O1        1.0  0.70500  0.25000  0.20300  1.0000
  O   O2        1.0  0.11200  0.56000  0.29800  1.0000
  O   O3        1.0  0.11200  0.94000  0.29800  1.0000
  O   O4        1.0  0.60000  0.75000  0.37700  1.0000
  O   O5        1.0  0.40000  0.25000  0.62300  1.0000
  O   O6        1.0  0.88800  0.06000  0.70200  1.0000
  O   O7        1.0  0.88800  0.44000  0.70200  1.0000
  O   O8        1.0  0.29500  0.75000  0.79700  1.0000
  Pr  Pr1       1.0  0.21400  0.25000  0.06660  1.0000
  Pr  Pr2       1.0  0.78600  0.75000  0.93300  1.0000
  Si  Si1       1.0  0.29600  0.75000  0.44300  1.0000
  Si  Si2       1.0  0.70400  0.25000  0.55700  1.0000
