data_image0
_chemical_formula_structural       Ac2B2N2O2
_chemical_formula_sum              "Ac2 B2 N2 O2"
_cell_length_a       4.21795
_cell_length_b       5.03936
_cell_length_c       5.27638
_cell_angle_alpha    90
_cell_angle_beta     90
_cell_angle_gamma    90

_space_group_name_H-M_alt    "P 1"
_space_group_IT_number       1

loop_
  _space_group_symop_operation_xyz
  'x, y, z'

loop_
  _atom_site_type_symbol
  _atom_site_label
  _atom_site_symmetry_multiplicity
  _atom_site_fract_x
  _atom_site_fract_y
  _atom_site_fract_z
  _atom_site_occupancy
  Ac  Ac1       1.0  0.50000  0.00242  0.24300  1.0000
  Ac  Ac2       1.0  0.50000  0.50200  0.75700  1.0000
  B   B1        1.0  0.00000  0.49800  0.37100  1.0000
  B   B2        1.0  0.00000  0.99800  0.62900  1.0000
  N   N1        1.0  0.00000  0.75500  0.48700  1.0000
  N   N2        1.0  0.00000  0.25500  0.51300  1.0000
  O   O1        1.0  0.50000  0.49900  0.23300  1.0000
  O   O2        1.0  0.50000  0.99900  0.76700  1.0000
