data_image0
_chemical_formula_structural       Ge8O28Tm8
_chemical_formula_sum              "Ge8 O28 Tm8"
_cell_length_a       6.73446
_cell_length_b       6.73446
_cell_length_c       12.2527
_cell_angle_alpha    90
_cell_angle_beta     90
_cell_angle_gamma    90

_space_group_name_H-M_alt    "P 1"
_space_group_IT_number       1

loop_
  _space_group_symop_operation_xyz
  'x, y, z'

loop_
  _atom_site_type_symbol
  _atom_site_label
  _atom_site_symmetry_multiplicity
  _atom_site_fract_x
  _atom_site_fract_y
  _atom_site_fract_z
  _atom_site_occupancy
  Ge  Ge1       1.0  0.10200  0.84900  0.11800  1.0000
  Ge  Ge2       1.0  0.39800  0.34900  0.13200  1.0000
  Ge  Ge3       1.0  0.65100  0.60200  0.36800  1.0000
  Ge  Ge4       1.0  0.15100  0.89800  0.38200  1.0000
  Ge  Ge5       1.0  0.89800  0.15100  0.61800  1.0000
  Ge  Ge6       1.0  0.60200  0.65100  0.63200  1.0000
  Ge  Ge7       1.0  0.34900  0.39800  0.86800  1.0000
  Ge  Ge8       1.0  0.84900  0.10200  0.88200  1.0000
  O   O1        1.0  0.29900  0.29900  0.00000  1.0000
  O   O2        1.0  0.32200  0.85500  0.04300  1.0000
  O   O3        1.0  0.93400  0.66100  0.07060  1.0000
  O   O4        1.0  0.92200  0.03540  0.12200  1.0000
  O   O5        1.0  0.57800  0.53500  0.12800  1.0000
  O   O6        1.0  0.56600  0.16100  0.17900  1.0000
  O   O7        1.0  0.17800  0.35500  0.20700  1.0000
  O   O8        1.0  0.20100  0.79900  0.25000  1.0000
  O   O9        1.0  0.64500  0.82200  0.29300  1.0000
  O   O10       1.0  0.83900  0.43400  0.32100  1.0000
  O   O11       1.0  0.46500  0.42200  0.37200  1.0000
  O   O12       1.0  0.96500  0.07840  0.37800  1.0000
  O   O13       1.0  0.33900  0.06590  0.42900  1.0000
  O   O14       1.0  0.14500  0.67800  0.45700  1.0000
  O   O15       1.0  0.70100  0.70100  0.50000  1.0000
  O   O16       1.0  0.67800  0.14500  0.54300  1.0000
  O   O17       1.0  0.06590  0.33900  0.57100  1.0000
  O   O18       1.0  0.07840  0.96500  0.62200  1.0000
  O   O19       1.0  0.42200  0.46500  0.62800  1.0000
  O   O20       1.0  0.43400  0.83900  0.67900  1.0000
  O   O21       1.0  0.82200  0.64500  0.70700  1.0000
  O   O22       1.0  0.79900  0.20100  0.75000  1.0000
  O   O23       1.0  0.35500  0.17800  0.79300  1.0000
  O   O24       1.0  0.16100  0.56600  0.82100  1.0000
  O   O25       1.0  0.53500  0.57800  0.87200  1.0000
  O   O26       1.0  0.03540  0.92200  0.87800  1.0000
  O   O27       1.0  0.66100  0.93400  0.92900  1.0000
  O   O28       1.0  0.85500  0.32200  0.95700  1.0000
  Tm  Tm1       1.0  0.62700  0.85500  0.11400  1.0000
  Tm  Tm2       1.0  0.87300  0.35500  0.13600  1.0000
  Tm  Tm3       1.0  0.64500  0.12700  0.36400  1.0000
  Tm  Tm4       1.0  0.14500  0.37300  0.38600  1.0000
  Tm  Tm5       1.0  0.37300  0.14500  0.61400  1.0000
  Tm  Tm6       1.0  0.12700  0.64500  0.63600  1.0000
  Tm  Tm7       1.0  0.35500  0.87300  0.86400  1.0000
  Tm  Tm8       1.0  0.85500  0.62700  0.88600  1.0000
