data_image0
_chemical_formula_structural       Au2Ba2N2O2
_chemical_formula_sum              "Au2 Ba2 N2 O2"
_cell_length_a       3.78208
_cell_length_b       6.40482
_cell_length_c       6.29496
_cell_angle_alpha    90
_cell_angle_beta     90
_cell_angle_gamma    90

_space_group_name_H-M_alt    "P 1"
_space_group_IT_number       1

loop_
  _space_group_symop_operation_xyz
  'x, y, z'

loop_
  _atom_site_type_symbol
  _atom_site_label
  _atom_site_symmetry_multiplicity
  _atom_site_fract_x
  _atom_site_fract_y
  _atom_site_fract_z
  _atom_site_occupancy
  Au  Au1       1.0  0.50000  0.99500  0.33300  1.0000
  Au  Au2       1.0  0.50000  0.49500  0.66700  1.0000
  Ba  Ba1       1.0  0.00000  0.50200  0.16800  1.0000
  Ba  Ba2       1.0  0.00000  0.00239  0.83200  1.0000
  N   N1        1.0  0.00000  0.99800  0.34900  1.0000
  N   N2        1.0  1.00000  0.49800  0.65100  1.0000
  O   O1        1.0  0.50000  0.75800  0.00850  1.0000
  O   O2        1.0  0.50000  0.25800  0.99200  1.0000
