data_image0
_chemical_formula_structural       Ba2Co2N2O2
_chemical_formula_sum              "Ba2 Co2 N2 O2"
_cell_length_a       3.67903
_cell_length_b       5.75487
_cell_length_c       6.20101
_cell_angle_alpha    90
_cell_angle_beta     90
_cell_angle_gamma    90

_space_group_name_H-M_alt    "P 1"
_space_group_IT_number       1

loop_
  _space_group_symop_operation_xyz
  'x, y, z'

loop_
  _atom_site_type_symbol
  _atom_site_label
  _atom_site_symmetry_multiplicity
  _atom_site_fract_x
  _atom_site_fract_y
  _atom_site_fract_z
  _atom_site_occupancy
  Ba  Ba1       1.0  0.50000  0.00194  0.24300  1.0000
  Ba  Ba2       1.0  0.50000  0.50200  0.75700  1.0000
  Co  Co1       1.0  0.00000  0.49900  0.31800  1.0000
  Co  Co2       1.0  0.00000  0.99900  0.68200  1.0000
  N   N1        1.0  0.00000  0.75400  0.49000  1.0000
  N   N2        1.0  0.00000  0.25400  0.51000  1.0000
  O   O1        1.0  0.50000  0.49900  0.18000  1.0000
  O   O2        1.0  0.50000  0.99900  0.82000  1.0000
