data_image0
_chemical_formula_structural       B4Ta3
_chemical_formula_sum              "B4 Ta3"
_cell_length_a       3.14479
_cell_length_b       3.30164
_cell_length_c       7.39235
_cell_angle_alpha    102.904
_cell_angle_beta     102.281
_cell_angle_gamma    90

_space_group_name_H-M_alt    "P 1"
_space_group_IT_number       1

loop_
  _space_group_symop_operation_xyz
  'x, y, z'

loop_
  _atom_site_type_symbol
  _atom_site_label
  _atom_site_symmetry_multiplicity
  _atom_site_fract_x
  _atom_site_fract_y
  _atom_site_fract_z
  _atom_site_occupancy
  B   B1        1.0  0.06420  0.56400  0.12800  1.0000
  B   B2        1.0  0.63300  0.63300  0.26600  1.0000
  B   B3        1.0  0.36700  0.36700  0.73400  1.0000
  B   B4        1.0  0.93600  0.43600  0.87200  1.0000
  Ta  Ta1       1.0  0.50000  0.00000  0.00000  1.0000
  Ta  Ta2       1.0  0.18500  0.18500  0.37000  1.0000
  Ta  Ta3       1.0  0.81500  0.81500  0.63000  1.0000
