data_image0
_chemical_formula_structural       Ge8O28Tb8
_chemical_formula_sum              "Ge8 O28 Tb8"
_cell_length_a       6.81029
_cell_length_b       6.81029
_cell_length_c       12.4216
_cell_angle_alpha    90
_cell_angle_beta     90
_cell_angle_gamma    90

_space_group_name_H-M_alt    "P 1"
_space_group_IT_number       1

loop_
  _space_group_symop_operation_xyz
  'x, y, z'

loop_
  _atom_site_type_symbol
  _atom_site_label
  _atom_site_symmetry_multiplicity
  _atom_site_fract_x
  _atom_site_fract_y
  _atom_site_fract_z
  _atom_site_occupancy
  Ge  Ge1       1.0  0.10200  0.84700  0.12000  1.0000
  Ge  Ge2       1.0  0.39800  0.34700  0.13000  1.0000
  Ge  Ge3       1.0  0.65300  0.60200  0.37000  1.0000
  Ge  Ge4       1.0  0.15300  0.89800  0.38000  1.0000
  Ge  Ge5       1.0  0.89800  0.15300  0.62000  1.0000
  Ge  Ge6       1.0  0.60200  0.65300  0.63000  1.0000
  Ge  Ge7       1.0  0.34700  0.39800  0.87000  1.0000
  Ge  Ge8       1.0  0.84700  0.10200  0.88000  1.0000
  O   O1        1.0  0.29900  0.29900  0.00000  1.0000
  O   O2        1.0  0.31700  0.85600  0.04450  1.0000
  O   O3        1.0  0.93700  0.66200  0.07130  1.0000
  O   O4        1.0  0.92400  0.03180  0.12400  1.0000
  O   O5        1.0  0.57600  0.53200  0.12600  1.0000
  O   O6        1.0  0.56300  0.16200  0.17900  1.0000
  O   O7        1.0  0.18300  0.35600  0.20600  1.0000
  O   O8        1.0  0.20100  0.79900  0.25000  1.0000
  O   O9        1.0  0.64400  0.81700  0.29400  1.0000
  O   O10       1.0  0.83800  0.43700  0.32100  1.0000
  O   O11       1.0  0.46800  0.42400  0.37400  1.0000
  O   O12       1.0  0.96800  0.07560  0.37600  1.0000
  O   O13       1.0  0.33800  0.06290  0.42900  1.0000
  O   O14       1.0  0.14400  0.68300  0.45600  1.0000
  O   O15       1.0  0.70100  0.70100  0.50000  1.0000
  O   O16       1.0  0.68300  0.14400  0.54400  1.0000
  O   O17       1.0  0.06290  0.33800  0.57100  1.0000
  O   O18       1.0  0.07560  0.96800  0.62400  1.0000
  O   O19       1.0  0.42400  0.46800  0.62600  1.0000
  O   O20       1.0  0.43700  0.83800  0.67900  1.0000
  O   O21       1.0  0.81700  0.64400  0.70600  1.0000
  O   O22       1.0  0.79900  0.20100  0.75000  1.0000
  O   O23       1.0  0.35600  0.18300  0.79400  1.0000
  O   O24       1.0  0.16200  0.56300  0.82100  1.0000
  O   O25       1.0  0.53200  0.57600  0.87400  1.0000
  O   O26       1.0  0.03180  0.92400  0.87600  1.0000
  O   O27       1.0  0.66200  0.93700  0.92900  1.0000
  O   O28       1.0  0.85600  0.31700  0.95600  1.0000
  Tb  Tb1       1.0  0.62600  0.85300  0.11500  1.0000
  Tb  Tb2       1.0  0.87400  0.35300  0.13500  1.0000
  Tb  Tb3       1.0  0.64700  0.12600  0.36500  1.0000
  Tb  Tb4       1.0  0.14700  0.37400  0.38500  1.0000
  Tb  Tb5       1.0  0.37400  0.14700  0.61500  1.0000
  Tb  Tb6       1.0  0.12600  0.64700  0.63500  1.0000
  Tb  Tb7       1.0  0.35300  0.87400  0.86500  1.0000
  Tb  Tb8       1.0  0.85300  0.62600  0.88500  1.0000
