data_image0
_chemical_formula_structural       Er2H2O8Si2
_chemical_formula_sum              "Er2 H2 O8 Si2"
_cell_length_a       4.82018
_cell_length_b       6.59979
_cell_length_c       4.45735
_cell_angle_alpha    90
_cell_angle_beta     97.0827
_cell_angle_gamma    90

_space_group_name_H-M_alt    "P 1"
_space_group_IT_number       1

loop_
  _space_group_symop_operation_xyz
  'x, y, z'

loop_
  _atom_site_type_symbol
  _atom_site_label
  _atom_site_symmetry_multiplicity
  _atom_site_fract_x
  _atom_site_fract_y
  _atom_site_fract_z
  _atom_site_occupancy
  Er  Er1       1.0  0.19700  0.25000  0.07270  1.0000
  Er  Er2       1.0  0.80300  0.75000  0.92700  1.0000
  H   H1        1.0  0.00000  0.00000  0.50000  1.0000
  H   H2        1.0  0.00000  0.50000  0.50000  1.0000
  O   O1        1.0  0.68200  0.25000  0.20600  1.0000
  O   O2        1.0  0.11600  0.55600  0.28500  1.0000
  O   O3        1.0  0.11600  0.94400  0.28500  1.0000
  O   O4        1.0  0.63100  0.75000  0.36100  1.0000
  O   O5        1.0  0.36900  0.25000  0.63900  1.0000
  O   O6        1.0  0.88400  0.05580  0.71500  1.0000
  O   O7        1.0  0.88400  0.44400  0.71500  1.0000
  O   O8        1.0  0.31800  0.75000  0.79400  1.0000
  Si  Si1       1.0  0.31200  0.75000  0.42800  1.0000
  Si  Si2       1.0  0.68800  0.25000  0.57200  1.0000
