data_image0
_chemical_formula_structural       Ca2Cu2N2O2
_chemical_formula_sum              "Ca2 Cu2 N2 O2"
_cell_length_a       3.53012
_cell_length_b       5.5149
_cell_length_c       5.27049
_cell_angle_alpha    90
_cell_angle_beta     90
_cell_angle_gamma    90

_space_group_name_H-M_alt    "P 1"
_space_group_IT_number       1

loop_
  _space_group_symop_operation_xyz
  'x, y, z'

loop_
  _atom_site_type_symbol
  _atom_site_label
  _atom_site_symmetry_multiplicity
  _atom_site_fract_x
  _atom_site_fract_y
  _atom_site_fract_z
  _atom_site_occupancy
  Ca  Ca1       1.0  0.50000  0.03170  0.29200  1.0000
  Ca  Ca2       1.0  0.50000  0.53200  0.70800  1.0000
  Cu  Cu1       1.0  0.00000  0.49800  0.25400  1.0000
  Cu  Cu2       1.0  0.00000  0.99800  0.74600  1.0000
  N   N1        1.0  0.00000  0.76700  0.47100  1.0000
  N   N2        1.0  0.00000  0.26700  0.52900  1.0000
  O   O1        1.0  0.50000  0.45700  0.14000  1.0000
  O   O2        1.0  0.50000  0.95700  0.86000  1.0000
