data_image0
_chemical_formula_structural       H4Ho4O16Si4
_chemical_formula_sum              "H4 Ho4 O16 Si4"
_cell_length_a       7.66394
_cell_length_b       6.45258
_cell_length_c       6.75887
_cell_angle_alpha    90
_cell_angle_beta     112.6
_cell_angle_gamma    90

_space_group_name_H-M_alt    "P 1"
_space_group_IT_number       1

loop_
  _space_group_symop_operation_xyz
  'x, y, z'

loop_
  _atom_site_type_symbol
  _atom_site_label
  _atom_site_symmetry_multiplicity
  _atom_site_fract_x
  _atom_site_fract_y
  _atom_site_fract_z
  _atom_site_occupancy
  H   H1        1.0  0.53100  0.81400  0.11500  1.0000
  H   H2        1.0  0.46900  0.31400  0.38500  1.0000
  H   H3        1.0  0.53100  0.68600  0.61500  1.0000
  H   H4        1.0  0.46900  0.18600  0.88500  1.0000
  Ho  Ho1       1.0  0.20700  0.63900  0.11200  1.0000
  Ho  Ho2       1.0  0.79300  0.13900  0.38800  1.0000
  Ho  Ho3       1.0  0.20700  0.86100  0.61200  1.0000
  Ho  Ho4       1.0  0.79300  0.36100  0.88800  1.0000
  O   O1        1.0  0.72400  0.03410  0.04890  1.0000
  O   O2        1.0  0.09990  0.29900  0.05840  1.0000
  O   O3        1.0  0.79700  0.43700  0.21100  1.0000
  O   O4        1.0  0.53800  0.71200  0.22600  1.0000
  O   O5        1.0  0.46200  0.21200  0.27400  1.0000
  O   O6        1.0  0.20300  0.93700  0.28900  1.0000
  O   O7        1.0  0.90000  0.79900  0.44200  1.0000
  O   O8        1.0  0.27600  0.53400  0.45100  1.0000
  O   O9        1.0  0.72400  0.46600  0.54900  1.0000
  O   O10       1.0  0.09990  0.20100  0.55800  1.0000
  O   O11       1.0  0.79700  0.06300  0.71100  1.0000
  O   O12       1.0  0.53800  0.78800  0.72600  1.0000
  O   O13       1.0  0.46200  0.28800  0.77400  1.0000
  O   O14       1.0  0.20300  0.56300  0.78900  1.0000
  O   O15       1.0  0.90000  0.70100  0.94200  1.0000
  O   O16       1.0  0.27600  0.96600  0.95100  1.0000
  Si  Si1       1.0  0.24600  0.10700  0.13600  1.0000
  Si  Si2       1.0  0.75400  0.60700  0.36400  1.0000
  Si  Si3       1.0  0.24600  0.39300  0.63600  1.0000
  Si  Si4       1.0  0.75400  0.89300  0.86400  1.0000
