data_image0
_chemical_formula_structural       Ca2N2O2Rh2
_chemical_formula_sum              "Ca2 N2 O2 Rh2"
_cell_length_a       3.56005
_cell_length_b       5.35974
_cell_length_c       6.28639
_cell_angle_alpha    90
_cell_angle_beta     90
_cell_angle_gamma    90

_space_group_name_H-M_alt    "P 1"
_space_group_IT_number       1

loop_
  _space_group_symop_operation_xyz
  'x, y, z'

loop_
  _atom_site_type_symbol
  _atom_site_label
  _atom_site_symmetry_multiplicity
  _atom_site_fract_x
  _atom_site_fract_y
  _atom_site_fract_z
  _atom_site_occupancy
  Ca  Ca1       1.0  0.50000  0.01620  0.17300  1.0000
  Ca  Ca2       1.0  0.50000  0.51600  0.82700  1.0000
  N   N1        1.0  0.00000  0.82800  0.34500  1.0000
  N   N2        1.0  0.00000  0.32800  0.65500  1.0000
  O   O1        1.0  0.50000  0.43200  0.17100  1.0000
  O   O2        1.0  0.50000  0.93200  0.82900  1.0000
  Rh  Rh1       1.0  0.00000  0.47800  0.38900  1.0000
  Rh  Rh2       1.0  0.00000  0.97800  0.61100  1.0000
