data_image0
_chemical_formula_structural       Er8Ge8O28
_chemical_formula_sum              "Er8 Ge8 O28"
_cell_length_a       6.75684
_cell_length_b       6.75684
_cell_length_c       12.3002
_cell_angle_alpha    90
_cell_angle_beta     90
_cell_angle_gamma    90

_space_group_name_H-M_alt    "P 1"
_space_group_IT_number       1

loop_
  _space_group_symop_operation_xyz
  'x, y, z'

loop_
  _atom_site_type_symbol
  _atom_site_label
  _atom_site_symmetry_multiplicity
  _atom_site_fract_x
  _atom_site_fract_y
  _atom_site_fract_z
  _atom_site_occupancy
  Er  Er1       1.0  0.62600  0.85400  0.11400  1.0000
  Er  Er2       1.0  0.87400  0.35400  0.13600  1.0000
  Er  Er3       1.0  0.64600  0.12600  0.36400  1.0000
  Er  Er4       1.0  0.14600  0.37400  0.38600  1.0000
  Er  Er5       1.0  0.37400  0.14600  0.61400  1.0000
  Er  Er6       1.0  0.12600  0.64600  0.63600  1.0000
  Er  Er7       1.0  0.35400  0.87400  0.86400  1.0000
  Er  Er8       1.0  0.85400  0.62600  0.88600  1.0000
  Ge  Ge1       1.0  0.10200  0.84800  0.11900  1.0000
  Ge  Ge2       1.0  0.39800  0.34800  0.13100  1.0000
  Ge  Ge3       1.0  0.65200  0.60200  0.36900  1.0000
  Ge  Ge4       1.0  0.15200  0.89800  0.38100  1.0000
  Ge  Ge5       1.0  0.89800  0.15200  0.61900  1.0000
  Ge  Ge6       1.0  0.60200  0.65200  0.63100  1.0000
  Ge  Ge7       1.0  0.34800  0.39800  0.86900  1.0000
  Ge  Ge8       1.0  0.84800  0.10200  0.88100  1.0000
  O   O1        1.0  0.30000  0.30000  0.00000  1.0000
  O   O2        1.0  0.32100  0.85500  0.04340  1.0000
  O   O3        1.0  0.93500  0.66100  0.07070  1.0000
  O   O4        1.0  0.92200  0.03450  0.12200  1.0000
  O   O5        1.0  0.57800  0.53400  0.12800  1.0000
  O   O6        1.0  0.56500  0.16100  0.17900  1.0000
  O   O7        1.0  0.17900  0.35500  0.20700  1.0000
  O   O8        1.0  0.20000  0.80000  0.25000  1.0000
  O   O9        1.0  0.64500  0.82100  0.29300  1.0000
  O   O10       1.0  0.83900  0.43500  0.32100  1.0000
  O   O11       1.0  0.46600  0.42200  0.37200  1.0000
  O   O12       1.0  0.96600  0.07770  0.37800  1.0000
  O   O13       1.0  0.33900  0.06530  0.42900  1.0000
  O   O14       1.0  0.14500  0.67900  0.45700  1.0000
  O   O15       1.0  0.70000  0.70000  0.50000  1.0000
  O   O16       1.0  0.67900  0.14500  0.54300  1.0000
  O   O17       1.0  0.06530  0.33900  0.57100  1.0000
  O   O18       1.0  0.07770  0.96600  0.62200  1.0000
  O   O19       1.0  0.42200  0.46600  0.62800  1.0000
  O   O20       1.0  0.43500  0.83900  0.67900  1.0000
  O   O21       1.0  0.82100  0.64500  0.70700  1.0000
  O   O22       1.0  0.80000  0.20000  0.75000  1.0000
  O   O23       1.0  0.35500  0.17900  0.79300  1.0000
  O   O24       1.0  0.16100  0.56500  0.82100  1.0000
  O   O25       1.0  0.53400  0.57800  0.87200  1.0000
  O   O26       1.0  0.03450  0.92200  0.87800  1.0000
  O   O27       1.0  0.66100  0.93500  0.92900  1.0000
  O   O28       1.0  0.85500  0.32100  0.95700  1.0000
