data_image0
_chemical_formula_structural       Ce4Ge4O14
_chemical_formula_sum              "Ce4 Ge4 O14"
_cell_length_a       7.05264
_cell_length_b       7.07335
_cell_length_c       6.89836
_cell_angle_alpha    87.6543
_cell_angle_beta     91.2217
_cell_angle_gamma    115.73

_space_group_name_H-M_alt    "P 1"
_space_group_IT_number       1

loop_
  _space_group_symop_operation_xyz
  'x, y, z'

loop_
  _atom_site_type_symbol
  _atom_site_label
  _atom_site_symmetry_multiplicity
  _atom_site_fract_x
  _atom_site_fract_y
  _atom_site_fract_z
  _atom_site_occupancy
  Ce  Ce1       1.0  0.30500  0.36200  0.12600  1.0000
  Ce  Ce2       1.0  0.82900  0.36400  0.36500  1.0000
  Ce  Ce3       1.0  0.31700  0.84600  0.42500  1.0000
  Ce  Ce4       1.0  0.74200  0.00392  0.85700  1.0000
  Ge  Ge1       1.0  0.79500  0.87900  0.32000  1.0000
  Ge  Ge2       1.0  0.31400  0.34700  0.62400  1.0000
  Ge  Ge3       1.0  0.74300  0.50100  0.85500  1.0000
  Ge  Ge4       1.0  0.18300  0.81400  0.96200  1.0000
  O   O1        1.0  0.64700  0.36300  0.07340  1.0000
  O   O2        1.0  0.11200  0.57600  0.09770  1.0000
  O   O3        1.0  0.27900  0.00719  0.13300  1.0000
  O   O4        1.0  0.56600  0.75100  0.17500  1.0000
  O   O5        1.0  0.93000  0.11900  0.18000  1.0000
  O   O6        1.0  0.92800  0.73800  0.41300  1.0000
  O   O7        1.0  0.42800  0.24300  0.45600  1.0000
  O   O8        1.0  0.20200  0.47000  0.46000  1.0000
  O   O9        1.0  0.70000  0.98700  0.50600  1.0000
  O   O10       1.0  0.81800  0.34900  0.71600  1.0000
  O   O11       1.0  0.52500  0.54900  0.76200  1.0000
  O   O12       1.0  0.36300  0.87100  0.77400  1.0000
  O   O13       1.0  0.14300  0.19700  0.80700  1.0000
  O   O14       1.0  0.92400  0.77200  0.86800  1.0000
