data_image0
_chemical_formula_structural       Ge4O14Yb4
_chemical_formula_sum              "Ge4 O14 Yb4"
_cell_length_a       6.98147
_cell_length_b       6.98147
_cell_length_c       6.98147
_cell_angle_alpha    120
_cell_angle_beta     90
_cell_angle_gamma    120

_space_group_name_H-M_alt    "P 1"
_space_group_IT_number       1

loop_
  _space_group_symop_operation_xyz
  'x, y, z'

loop_
  _atom_site_type_symbol
  _atom_site_label
  _atom_site_symmetry_multiplicity
  _atom_site_fract_x
  _atom_site_fract_y
  _atom_site_fract_z
  _atom_site_occupancy
  Ge  Ge1       1.0  0.00000  0.00000  0.00000  1.0000
  Ge  Ge2       1.0  0.50000  0.00000  0.00000  1.0000
  Ge  Ge3       1.0  0.50000  0.50000  0.00000  1.0000
  Ge  Ge4       1.0  0.50000  0.50000  0.50000  1.0000
  O   O1        1.0  0.82600  0.15100  0.07560  1.0000
  O   O2        1.0  0.42400  0.75000  0.07560  1.0000
  O   O3        1.0  0.82600  0.75000  0.07560  1.0000
  O   O4        1.0  0.17400  0.25000  0.32600  1.0000
  O   O5        1.0  0.57600  0.25000  0.32600  1.0000
  O   O6        1.0  0.57600  0.65100  0.32600  1.0000
  O   O7        1.0  0.12500  0.75000  0.37500  1.0000
  O   O8        1.0  0.87500  0.25000  0.62500  1.0000
  O   O9        1.0  0.42400  0.34900  0.67400  1.0000
  O   O10       1.0  0.42400  0.75000  0.67400  1.0000
  O   O11       1.0  0.82600  0.75000  0.67400  1.0000
  O   O12       1.0  0.17400  0.25000  0.92400  1.0000
  O   O13       1.0  0.57600  0.25000  0.92400  1.0000
  O   O14       1.0  0.17400  0.84900  0.92400  1.0000
  Yb  Yb1       1.0  0.00000  0.50000  0.00000  1.0000
  Yb  Yb2       1.0  0.00000  0.00000  0.50000  1.0000
  Yb  Yb3       1.0  0.00000  0.50000  0.50000  1.0000
  Yb  Yb4       1.0  0.50000  0.00000  0.50000  1.0000
