data_image0
_chemical_formula_structural       Ge4Nd4O14
_chemical_formula_sum              "Ge4 Nd4 O14"
_cell_length_a       6.97253
_cell_length_b       7.00035
_cell_length_c       6.82945
_cell_angle_alpha    87.4491
_cell_angle_beta     91.4456
_cell_angle_gamma    115.616

_space_group_name_H-M_alt    "P 1"
_space_group_IT_number       1

loop_
  _space_group_symop_operation_xyz
  'x, y, z'

loop_
  _atom_site_type_symbol
  _atom_site_label
  _atom_site_symmetry_multiplicity
  _atom_site_fract_x
  _atom_site_fract_y
  _atom_site_fract_z
  _atom_site_occupancy
  Ge  Ge1       1.0  0.79500  0.87800  0.31900  1.0000
  Ge  Ge2       1.0  0.31200  0.34600  0.62500  1.0000
  Ge  Ge3       1.0  0.74400  0.50100  0.85900  1.0000
  Ge  Ge4       1.0  0.18700  0.81600  0.96100  1.0000
  Nd  Nd1       1.0  0.30300  0.36000  0.12800  1.0000
  Nd  Nd2       1.0  0.83100  0.36300  0.36600  1.0000
  Nd  Nd3       1.0  0.32000  0.84700  0.42500  1.0000
  Nd  Nd4       1.0  0.74400  0.00438  0.85500  1.0000
  O   O1        1.0  0.64600  0.36600  0.08010  1.0000
  O   O2        1.0  0.11100  0.57100  0.08980  1.0000
  O   O3        1.0  0.27900  0.00702  0.13700  1.0000
  O   O4        1.0  0.56300  0.74800  0.17300  1.0000
  O   O5        1.0  0.92900  0.12100  0.17800  1.0000
  O   O6        1.0  0.93200  0.73400  0.41200  1.0000
  O   O7        1.0  0.42600  0.24100  0.45400  1.0000
  O   O8        1.0  0.20000  0.47200  0.45800  1.0000
  O   O9        1.0  0.70200  0.98700  0.50700  1.0000
  O   O10       1.0  0.81300  0.34500  0.71600  1.0000
  O   O11       1.0  0.52400  0.55000  0.76300  1.0000
  O   O12       1.0  0.36800  0.87900  0.77100  1.0000
  O   O13       1.0  0.14100  0.19700  0.81000  1.0000
  O   O14       1.0  0.92400  0.77500  0.86600  1.0000
