data_image0
_chemical_formula_structural       ClCu3S3Te
_chemical_formula_sum              "Cl1 Cu3 S3 Te1"
_cell_length_a       5.48301
_cell_length_b       5.48301
_cell_length_c       5.48301
_cell_angle_alpha    94.9689
_cell_angle_beta     94.9689
_cell_angle_gamma    85.0311

_space_group_name_H-M_alt    "P 1"
_space_group_IT_number       1

loop_
  _space_group_symop_operation_xyz
  'x, y, z'

loop_
  _atom_site_type_symbol
  _atom_site_label
  _atom_site_symmetry_multiplicity
  _atom_site_fract_x
  _atom_site_fract_y
  _atom_site_fract_z
  _atom_site_occupancy
  Cl  Cl1       1.0  0.43200  0.43200  0.56800  1.0000
  Cu  Cu1       1.0  0.22900  0.22900  0.19500  1.0000
  Cu  Cu2       1.0  0.80500  0.22900  0.77100  1.0000
  Cu  Cu3       1.0  0.22900  0.80500  0.77100  1.0000
  S   S1        1.0  0.02860  0.02850  0.47200  1.0000
  S   S2        1.0  0.52800  0.02850  0.97100  1.0000
  S   S3        1.0  0.02860  0.52800  0.97100  1.0000
  Te  Te1       1.0  0.74700  0.74700  0.25300  1.0000
