data_image0
_chemical_formula_structural       Cs2N2O2Tb2
_chemical_formula_sum              "Cs2 N2 O2 Tb2"
_cell_length_a       3.75241
_cell_length_b       6.75267
_cell_length_c       7.91342
_cell_angle_alpha    90
_cell_angle_beta     90
_cell_angle_gamma    90

_space_group_name_H-M_alt    "P 1"
_space_group_IT_number       1

loop_
  _space_group_symop_operation_xyz
  'x, y, z'

loop_
  _atom_site_type_symbol
  _atom_site_label
  _atom_site_symmetry_multiplicity
  _atom_site_fract_x
  _atom_site_fract_y
  _atom_site_fract_z
  _atom_site_occupancy
  Cs  Cs1       1.0  0.50000  0.99700  0.16000  1.0000
  Cs  Cs2       1.0  0.50000  0.49700  0.84000  1.0000
  N   N1        1.0  0.00000  0.82100  0.40900  1.0000
  N   N2        1.0  0.00000  0.32100  0.59100  1.0000
  O   O1        1.0  0.50000  0.44100  0.21400  1.0000
  O   O2        1.0  0.50000  0.94100  0.78600  1.0000
  Tb  Tb1       1.0  0.00000  0.49500  0.34700  1.0000
  Tb  Tb2       1.0  0.00000  0.99500  0.65300  1.0000
