data_image0
_chemical_formula_structural       Cr2Cs2N2O2
_chemical_formula_sum              "Cr2 Cs2 N2 O2"
_cell_length_a       3.43416
_cell_length_b       6.0629
_cell_length_c       7.04193
_cell_angle_alpha    90
_cell_angle_beta     90
_cell_angle_gamma    90

_space_group_name_H-M_alt    "P 1"
_space_group_IT_number       1

loop_
  _space_group_symop_operation_xyz
  'x, y, z'

loop_
  _atom_site_type_symbol
  _atom_site_label
  _atom_site_symmetry_multiplicity
  _atom_site_fract_x
  _atom_site_fract_y
  _atom_site_fract_z
  _atom_site_occupancy
  Cr  Cr1       1.0  0.00000  0.50100  0.36100  1.0000
  Cr  Cr2       1.0  0.00000  0.00101  0.63900  1.0000
  Cs  Cs1       1.0  0.50000  0.00111  0.18900  1.0000
  Cs  Cs2       1.0  0.50000  0.50100  0.81100  1.0000
  N   N1        1.0  0.00000  0.75400  0.49400  1.0000
  N   N2        1.0  0.00000  0.25400  0.50600  1.0000
  O   O1        1.0  0.50000  0.49800  0.23200  1.0000
  O   O2        1.0  0.50000  0.99800  0.76800  1.0000
