data_image0
_chemical_formula_structural       Cs2N2O2Pa2
_chemical_formula_sum              "Cs2 N2 O2 Pa2"
_cell_length_a       4.0446
_cell_length_b       6.55132
_cell_length_c       7.81896
_cell_angle_alpha    90
_cell_angle_beta     90
_cell_angle_gamma    90

_space_group_name_H-M_alt    "P 1"
_space_group_IT_number       1

loop_
  _space_group_symop_operation_xyz
  'x, y, z'

loop_
  _atom_site_type_symbol
  _atom_site_label
  _atom_site_symmetry_multiplicity
  _atom_site_fract_x
  _atom_site_fract_y
  _atom_site_fract_z
  _atom_site_occupancy
  Cs  Cs1       1.0  0.50000  0.98800  0.16400  1.0000
  Cs  Cs2       1.0  0.50000  0.48800  0.83600  1.0000
  N   N1        1.0  0.00000  0.81800  0.41400  1.0000
  N   N2        1.0  0.00000  0.31800  0.58600  1.0000
  O   O1        1.0  0.50000  0.45100  0.22700  1.0000
  O   O2        1.0  0.50000  0.95100  0.77300  1.0000
  Pa  Pa1       1.0  0.00000  0.49700  0.35200  1.0000
  Pa  Pa2       1.0  0.00000  0.99700  0.64800  1.0000
