data_image0
_chemical_formula_structural       Cs2N2O2Os2
_chemical_formula_sum              "Cs2 N2 O2 Os2"
_cell_length_a       3.79572
_cell_length_b       6.46019
_cell_length_c       6.6343
_cell_angle_alpha    90
_cell_angle_beta     90
_cell_angle_gamma    90

_space_group_name_H-M_alt    "P 1"
_space_group_IT_number       1

loop_
  _space_group_symop_operation_xyz
  'x, y, z'

loop_
  _atom_site_type_symbol
  _atom_site_label
  _atom_site_symmetry_multiplicity
  _atom_site_fract_x
  _atom_site_fract_y
  _atom_site_fract_z
  _atom_site_occupancy
  Cs  Cs1       1.0  0.50000  0.00406  0.17400  1.0000
  Cs  Cs2       1.0  0.50000  0.50400  0.82600  1.0000
  N   N1        1.0  0.00000  0.75400  0.49300  1.0000
  N   N2        1.0  0.00000  0.25400  0.50700  1.0000
  O   O1        1.0  0.50000  0.49600  0.27600  1.0000
  O   O2        1.0  0.50000  0.99600  0.72400  1.0000
  Os  Os1       1.0  0.00000  0.50000  0.37000  1.0000
  Os  Os2       1.0  0.00000  0.00000  0.63000  1.0000
