data_image0
_chemical_formula_structural       F4K2Mg
_chemical_formula_sum              "F4 K2 Mg1"
_cell_length_a       3.8873
_cell_length_b       3.8873
_cell_length_c       6.99442
_cell_angle_alpha    106.134
_cell_angle_beta     106.134
_cell_angle_gamma    90

_space_group_name_H-M_alt    "P 1"
_space_group_IT_number       1

loop_
  _space_group_symop_operation_xyz
  'x, y, z'

loop_
  _atom_site_type_symbol
  _atom_site_label
  _atom_site_symmetry_multiplicity
  _atom_site_fract_x
  _atom_site_fract_y
  _atom_site_fract_z
  _atom_site_occupancy
  F   F1        1.0  0.50000  0.00000  0.00000  1.0000
  F   F2        1.0  0.00000  0.50000  0.00000  1.0000
  F   F3        1.0  0.15400  0.15400  0.30800  1.0000
  F   F4        1.0  0.84600  0.84600  0.69200  1.0000
  K   K1        1.0  0.64900  0.64900  0.29800  1.0000
  K   K2        1.0  0.35100  0.35100  0.70200  1.0000
  Mg  Mg1       1.0  0.00000  0.00000  0.00000  1.0000
