data_image0
_chemical_formula_structural       Cu2N2O2Te2
_chemical_formula_sum              "Cu2 N2 O2 Te2"
_cell_length_a       3.83465
_cell_length_b       5.39991
_cell_length_c       5.20734
_cell_angle_alpha    90
_cell_angle_beta     90
_cell_angle_gamma    90

_space_group_name_H-M_alt    "P 1"
_space_group_IT_number       1

loop_
  _space_group_symop_operation_xyz
  'x, y, z'

loop_
  _atom_site_type_symbol
  _atom_site_label
  _atom_site_symmetry_multiplicity
  _atom_site_fract_x
  _atom_site_fract_y
  _atom_site_fract_z
  _atom_site_occupancy
  Cu  Cu1       1.0  0.50000  0.97600  0.23900  1.0000
  Cu  Cu2       1.0  0.50000  0.47600  0.76100  1.0000
  N   N1        1.0  0.00000  0.89500  0.37100  1.0000
  N   N2        1.0  0.00000  0.39500  0.62900  1.0000
  O   O1        1.0  0.50000  0.36000  0.18700  1.0000
  O   O2        1.0  0.50000  0.86000  0.81300  1.0000
  Te  Te1       1.0  0.00000  0.52200  0.26200  1.0000
  Te  Te2       1.0  0.00000  0.02240  0.73800  1.0000
