data_image0
_chemical_formula_structural       Dy2Gd2N2O2
_chemical_formula_sum              "Dy2 Gd2 N2 O2"
_cell_length_a       4.27001
_cell_length_b       4.27001
_cell_length_c       8.08436
_cell_angle_alpha    90.0001
_cell_angle_beta     90.0001
_cell_angle_gamma    90

_space_group_name_H-M_alt    "P 1"
_space_group_IT_number       1

loop_
  _space_group_symop_operation_xyz
  'x, y, z'

loop_
  _atom_site_type_symbol
  _atom_site_label
  _atom_site_symmetry_multiplicity
  _atom_site_fract_x
  _atom_site_fract_y
  _atom_site_fract_z
  _atom_site_occupancy
  Dy  Dy1       1.0  0.75000  0.25000  0.50000  1.0000
  Dy  Dy2       1.0  0.25000  0.75000  0.50000  1.0000
  Gd  Gd1       1.0  0.25000  0.25000  0.10700  1.0000
  Gd  Gd2       1.0  0.75000  0.75000  0.89300  1.0000
  N   N1        1.0  0.75000  0.75000  0.38600  1.0000
  N   N2        1.0  0.25000  0.25000  0.61400  1.0000
  O   O1        1.0  0.75000  0.25000  0.00000  1.0000
  O   O2        1.0  0.25000  0.75000  0.00000  1.0000
