data_image0
_chemical_formula_structural       Al2Er2N2O2
_chemical_formula_sum              "Al2 Er2 N2 O2"
_cell_length_a       3.3506
_cell_length_b       5.16988
_cell_length_c       6.25886
_cell_angle_alpha    90
_cell_angle_beta     90
_cell_angle_gamma    90

_space_group_name_H-M_alt    "P 1"
_space_group_IT_number       1

loop_
  _space_group_symop_operation_xyz
  'x, y, z'

loop_
  _atom_site_type_symbol
  _atom_site_label
  _atom_site_symmetry_multiplicity
  _atom_site_fract_x
  _atom_site_fract_y
  _atom_site_fract_z
  _atom_site_occupancy
  Al  Al1       1.0  0.00000  0.50300  0.35200  1.0000
  Al  Al2       1.0  0.00000  0.00298  0.64800  1.0000
  Er  Er1       1.0  0.50000  0.96800  0.16300  1.0000
  Er  Er2       1.0  0.50000  0.46800  0.83700  1.0000
  N   N1        1.0  0.00000  0.86100  0.37900  1.0000
  N   N2        1.0  0.00000  0.36100  0.62100  1.0000
  O   O1        1.0  0.50000  0.42200  0.22000  1.0000
  O   O2        1.0  0.50000  0.92200  0.78000  1.0000
