data_image0
_chemical_formula_structural       Ge8Ho8O28
_chemical_formula_sum              "Ge8 Ho8 O28"
_cell_length_a       6.77455
_cell_length_b       6.77455
_cell_length_c       12.3359
_cell_angle_alpha    90
_cell_angle_beta     90
_cell_angle_gamma    90

_space_group_name_H-M_alt    "P 1"
_space_group_IT_number       1

loop_
  _space_group_symop_operation_xyz
  'x, y, z'

loop_
  _atom_site_type_symbol
  _atom_site_label
  _atom_site_symmetry_multiplicity
  _atom_site_fract_x
  _atom_site_fract_y
  _atom_site_fract_z
  _atom_site_occupancy
  Ge  Ge1       1.0  0.10200  0.84800  0.11900  1.0000
  Ge  Ge2       1.0  0.39800  0.34800  0.13100  1.0000
  Ge  Ge3       1.0  0.65200  0.60200  0.36900  1.0000
  Ge  Ge4       1.0  0.15200  0.89800  0.38100  1.0000
  Ge  Ge5       1.0  0.89800  0.15200  0.61900  1.0000
  Ge  Ge6       1.0  0.60200  0.65200  0.63100  1.0000
  Ge  Ge7       1.0  0.34800  0.39800  0.86900  1.0000
  Ge  Ge8       1.0  0.84800  0.10200  0.88100  1.0000
  Ho  Ho1       1.0  0.62600  0.85400  0.11400  1.0000
  Ho  Ho2       1.0  0.87400  0.35400  0.13600  1.0000
  Ho  Ho3       1.0  0.64600  0.12600  0.36400  1.0000
  Ho  Ho4       1.0  0.14600  0.37400  0.38600  1.0000
  Ho  Ho5       1.0  0.37400  0.14600  0.61400  1.0000
  Ho  Ho6       1.0  0.12600  0.64600  0.63600  1.0000
  Ho  Ho7       1.0  0.35400  0.87400  0.86400  1.0000
  Ho  Ho8       1.0  0.85400  0.62600  0.88600  1.0000
  O   O1        1.0  0.29900  0.29900  0.00000  1.0000
  O   O2        1.0  0.32000  0.85600  0.04370  1.0000
  O   O3        1.0  0.93500  0.66200  0.07100  1.0000
  O   O4        1.0  0.92300  0.03400  0.12300  1.0000
  O   O5        1.0  0.57700  0.53400  0.12700  1.0000
  O   O6        1.0  0.56500  0.16200  0.17900  1.0000
  O   O7        1.0  0.18000  0.35600  0.20600  1.0000
  O   O8        1.0  0.20100  0.79900  0.25000  1.0000
  O   O9        1.0  0.64400  0.82000  0.29400  1.0000
  O   O10       1.0  0.83800  0.43500  0.32100  1.0000
  O   O11       1.0  0.46600  0.42300  0.37300  1.0000
  O   O12       1.0  0.96600  0.07700  0.37700  1.0000
  O   O13       1.0  0.33800  0.06450  0.42900  1.0000
  O   O14       1.0  0.14400  0.68000  0.45600  1.0000
  O   O15       1.0  0.70100  0.70100  0.50000  1.0000
  O   O16       1.0  0.68000  0.14400  0.54400  1.0000
  O   O17       1.0  0.06450  0.33800  0.57100  1.0000
  O   O18       1.0  0.07700  0.96600  0.62300  1.0000
  O   O19       1.0  0.42300  0.46600  0.62700  1.0000
  O   O20       1.0  0.43500  0.83800  0.67900  1.0000
  O   O21       1.0  0.82000  0.64400  0.70600  1.0000
  O   O22       1.0  0.79900  0.20100  0.75000  1.0000
  O   O23       1.0  0.35600  0.18000  0.79400  1.0000
  O   O24       1.0  0.16200  0.56500  0.82100  1.0000
  O   O25       1.0  0.53400  0.57700  0.87300  1.0000
  O   O26       1.0  0.03400  0.92300  0.87700  1.0000
  O   O27       1.0  0.66200  0.93500  0.92900  1.0000
  O   O28       1.0  0.85600  0.32000  0.95600  1.0000
