data_image0
_chemical_formula_structural       Cs2Er2N2O2
_chemical_formula_sum              "Cs2 Er2 N2 O2"
_cell_length_a       3.92964
_cell_length_b       6.38643
_cell_length_c       7.90979
_cell_angle_alpha    90
_cell_angle_beta     90
_cell_angle_gamma    90

_space_group_name_H-M_alt    "P 1"
_space_group_IT_number       1

loop_
  _space_group_symop_operation_xyz
  'x, y, z'

loop_
  _atom_site_type_symbol
  _atom_site_label
  _atom_site_symmetry_multiplicity
  _atom_site_fract_x
  _atom_site_fract_y
  _atom_site_fract_z
  _atom_site_occupancy
  Cs  Cs1       1.0  0.00000  0.48100  0.33100  1.0000
  Cs  Cs2       1.0  0.00000  0.98100  0.66900  1.0000
  Er  Er1       1.0  0.50000  0.00132  0.14000  1.0000
  Er  Er2       1.0  0.50000  0.50100  0.86000  1.0000
  N   N1        1.0  0.00000  0.95000  0.27500  1.0000
  N   N2        1.0  0.00000  0.45000  0.72500  1.0000
  O   O1        1.0  0.50000  0.32200  0.08420  1.0000
  O   O2        1.0  0.50000  0.82200  0.91600  1.0000
