data_image0
_chemical_formula_structural       Cu2Ga2N2O2
_chemical_formula_sum              "Cu2 Ga2 N2 O2"
_cell_length_a       3.01944
_cell_length_b       5.32547
_cell_length_c       5.66079
_cell_angle_alpha    90
_cell_angle_beta     90
_cell_angle_gamma    90

_space_group_name_H-M_alt    "P 1"
_space_group_IT_number       1

loop_
  _space_group_symop_operation_xyz
  'x, y, z'

loop_
  _atom_site_type_symbol
  _atom_site_label
  _atom_site_symmetry_multiplicity
  _atom_site_fract_x
  _atom_site_fract_y
  _atom_site_fract_z
  _atom_site_occupancy
  Cu  Cu1       1.0  0.50000  0.98700  0.17600  1.0000
  Cu  Cu2       1.0  0.50000  0.48700  0.82400  1.0000
  Ga  Ga1       1.0  0.00000  0.50700  0.34300  1.0000
  Ga  Ga2       1.0  0.00000  0.00716  0.65700  1.0000
  N   N1        1.0  0.00000  0.86800  0.34400  1.0000
  N   N2        1.0  1.00000  0.36800  0.65600  1.0000
  O   O1        1.0  0.50000  0.39200  0.17600  1.0000
  O   O2        1.0  0.50000  0.89200  0.82400  1.0000
