data_image0
_chemical_formula_structural       Ba2HfS4
_chemical_formula_sum              "Ba2 Hf1 S4"
_cell_length_a       4.95621
_cell_length_b       4.95621
_cell_length_c       8.65046
_cell_angle_alpha    106.647
_cell_angle_beta     106.647
_cell_angle_gamma    90

_space_group_name_H-M_alt    "P 1"
_space_group_IT_number       1

loop_
  _space_group_symop_operation_xyz
  'x, y, z'

loop_
  _atom_site_type_symbol
  _atom_site_label
  _atom_site_symmetry_multiplicity
  _atom_site_fract_x
  _atom_site_fract_y
  _atom_site_fract_z
  _atom_site_occupancy
  Ba  Ba1       1.0  0.64300  0.64300  0.28500  1.0000
  Ba  Ba2       1.0  0.35700  0.35700  0.71500  1.0000
  Hf  Hf1       1.0  0.00000  0.00000  0.00000  1.0000
  S   S1        1.0  0.50000  0.00000  0.00000  1.0000
  S   S2        1.0  0.00000  0.50000  0.00000  1.0000
  S   S3        1.0  0.16200  0.16200  0.32400  1.0000
  S   S4        1.0  0.83800  0.83800  0.67600  1.0000
