data_image0
_chemical_formula_structural       Ge4O14Pm4
_chemical_formula_sum              "Ge4 O14 Pm4"
_cell_length_a       6.91788
_cell_length_b       6.95188
_cell_length_c       6.79131
_cell_angle_alpha    87.3065
_cell_angle_beta     91.6674
_cell_angle_gamma    115.509

_space_group_name_H-M_alt    "P 1"
_space_group_IT_number       1

loop_
  _space_group_symop_operation_xyz
  'x, y, z'

loop_
  _atom_site_type_symbol
  _atom_site_label
  _atom_site_symmetry_multiplicity
  _atom_site_fract_x
  _atom_site_fract_y
  _atom_site_fract_z
  _atom_site_occupancy
  Ge  Ge1       1.0  0.79500  0.87600  0.31800  1.0000
  Ge  Ge2       1.0  0.31200  0.34600  0.62500  1.0000
  Ge  Ge3       1.0  0.74500  0.50000  0.86100  1.0000
  Ge  Ge4       1.0  0.18800  0.81700  0.96000  1.0000
  O   O1        1.0  0.64600  0.36700  0.08420  1.0000
  O   O2        1.0  0.11000  0.56700  0.08440  1.0000
  O   O3        1.0  0.27900  0.00633  0.14000  1.0000
  O   O4        1.0  0.56100  0.74700  0.17300  1.0000
  O   O5        1.0  0.92800  0.12200  0.17700  1.0000
  O   O6        1.0  0.93300  0.73200  0.41100  1.0000
  O   O7        1.0  0.42500  0.24000  0.45400  1.0000
  O   O8        1.0  0.20000  0.47400  0.45700  1.0000
  O   O9        1.0  0.70200  0.98700  0.50700  1.0000
  O   O10       1.0  0.81000  0.34200  0.71500  1.0000
  O   O11       1.0  0.52400  0.55100  0.76400  1.0000
  O   O12       1.0  0.37100  0.88400  0.76900  1.0000
  O   O13       1.0  0.14000  0.19600  0.81100  1.0000
  O   O14       1.0  0.92500  0.77700  0.86500  1.0000
  Pm  Pm1       1.0  0.30300  0.35900  0.12900  1.0000
  Pm  Pm2       1.0  0.83100  0.36200  0.36700  1.0000
  Pm  Pm3       1.0  0.32100  0.84800  0.42700  1.0000
  Pm  Pm4       1.0  0.74500  0.00450  0.85400  1.0000
