data_image0
_chemical_formula_structural       Ge4O20Tb8
_chemical_formula_sum              "Ge4 O20 Tb8"
_cell_length_a       6.79489
_cell_length_b       8.19685
_cell_length_c       9.66305
_cell_angle_alpha    109.267
_cell_angle_beta     69.4153
_cell_angle_gamma    114.487

_space_group_name_H-M_alt    "P 1"
_space_group_IT_number       1

loop_
  _space_group_symop_operation_xyz
  'x, y, z'

loop_
  _atom_site_type_symbol
  _atom_site_label
  _atom_site_symmetry_multiplicity
  _atom_site_fract_x
  _atom_site_fract_y
  _atom_site_fract_z
  _atom_site_occupancy
  Ge  Ge1       1.0  0.77900  0.55700  0.18700  1.0000
  Ge  Ge2       1.0  0.40900  0.94300  0.31300  1.0000
  Ge  Ge3       1.0  0.59100  0.05710  0.68700  1.0000
  Ge  Ge4       1.0  0.22100  0.44300  0.81300  1.0000
  O   O1        1.0  0.63600  0.44800  0.04240  1.0000
  O   O2        1.0  0.11700  0.13700  0.09920  1.0000
  O   O3        1.0  0.40700  0.98000  0.14300  1.0000
  O   O4        1.0  0.95500  0.77900  0.17200  1.0000
  O   O5        1.0  0.91700  0.41200  0.18300  1.0000
  O   O6        1.0  0.68900  0.08780  0.31700  1.0000
  O   O7        1.0  0.34700  0.72100  0.32800  1.0000
  O   O8        1.0  0.57000  0.52000  0.35700  1.0000
  O   O9        1.0  0.07930  0.36300  0.40100  1.0000
  O   O10       1.0  0.23100  0.05220  0.45800  1.0000
  O   O11       1.0  0.76900  0.94800  0.54200  1.0000
  O   O12       1.0  0.92100  0.63700  0.59900  1.0000
  O   O13       1.0  0.43000  0.48000  0.64300  1.0000
  O   O14       1.0  0.65300  0.27900  0.67200  1.0000
  O   O15       1.0  0.31100  0.91200  0.68300  1.0000
  O   O16       1.0  0.08270  0.58800  0.81700  1.0000
  O   O17       1.0  0.04540  0.22100  0.82800  1.0000
  O   O18       1.0  0.59300  0.02000  0.85700  1.0000
  O   O19       1.0  0.88300  0.86300  0.90100  1.0000
  O   O20       1.0  0.36400  0.55200  0.95800  1.0000
  Tb  Tb1       1.0  0.79100  0.10900  0.04000  1.0000
  Tb  Tb2       1.0  0.27400  0.43900  0.16600  1.0000
  Tb  Tb3       1.0  0.00197  0.06110  0.33400  1.0000
  Tb  Tb4       1.0  0.72200  0.39100  0.46000  1.0000
  Tb  Tb5       1.0  0.27800  0.60900  0.54000  1.0000
  Tb  Tb6       1.0  0.99800  0.93900  0.66600  1.0000
  Tb  Tb7       1.0  0.72600  0.56100  0.83400  1.0000
  Tb  Tb8       1.0  0.20900  0.89100  0.96000  1.0000
