data_image0
_chemical_formula_structural       La2O8Si2
_chemical_formula_sum              "La2 O8 Si2"
_cell_length_a       6.0244
_cell_length_b       6.0244
_cell_length_c       6.0244
_cell_angle_alpha    106.873
_cell_angle_beta     114.803
_cell_angle_gamma    106.873

_space_group_name_H-M_alt    "P 1"
_space_group_IT_number       1

loop_
  _space_group_symop_operation_xyz
  'x, y, z'

loop_
  _atom_site_type_symbol
  _atom_site_label
  _atom_site_symmetry_multiplicity
  _atom_site_fract_x
  _atom_site_fract_y
  _atom_site_fract_z
  _atom_site_occupancy
  La  La1       1.0  0.87500  0.25000  0.12500  1.0000
  La  La2       1.0  0.12500  0.75000  0.87500  1.0000
  O   O1        1.0  0.28900  0.57500  0.21400  1.0000
  O   O2        1.0  0.63900  0.92500  0.21400  1.0000
  O   O3        1.0  0.21400  0.07470  0.28900  1.0000
  O   O4        1.0  0.78600  0.57500  0.36100  1.0000
  O   O5        1.0  0.21400  0.42500  0.63900  1.0000
  O   O6        1.0  0.78600  0.92500  0.71100  1.0000
  O   O7        1.0  0.36100  0.07470  0.78600  1.0000
  O   O8        1.0  0.71100  0.42500  0.78600  1.0000
  Si  Si1       1.0  0.62500  0.75000  0.37500  1.0000
  Si  Si2       1.0  0.37500  0.25000  0.62500  1.0000
