data_image0
_chemical_formula_structural       O8Si2Tm2
_chemical_formula_sum              "O8 Si2 Tm2"
_cell_length_a       5.74454
_cell_length_b       5.74454
_cell_length_c       5.74454
_cell_angle_alpha    106.698
_cell_angle_beta     115.172
_cell_angle_gamma    106.698

_space_group_name_H-M_alt    "P 1"
_space_group_IT_number       1

loop_
  _space_group_symop_operation_xyz
  'x, y, z'

loop_
  _atom_site_type_symbol
  _atom_site_label
  _atom_site_symmetry_multiplicity
  _atom_site_fract_x
  _atom_site_fract_y
  _atom_site_fract_z
  _atom_site_occupancy
  O   O1        1.0  0.27300  0.56600  0.20700  1.0000
  O   O2        1.0  0.64000  0.93400  0.20700  1.0000
  O   O3        1.0  0.20700  0.06650  0.27300  1.0000
  O   O4        1.0  0.79300  0.56600  0.36000  1.0000
  O   O5        1.0  0.20700  0.43400  0.64000  1.0000
  O   O6        1.0  0.79300  0.93400  0.72700  1.0000
  O   O7        1.0  0.36000  0.06650  0.79300  1.0000
  O   O8        1.0  0.72700  0.43400  0.79300  1.0000
  Si  Si1       1.0  0.62500  0.75000  0.37500  1.0000
  Si  Si2       1.0  0.37500  0.25000  0.62500  1.0000
  Tm  Tm1       1.0  0.87500  0.25000  0.12500  1.0000
  Tm  Tm2       1.0  0.12500  0.75000  0.87500  1.0000
