data_image0
_chemical_formula_structural       Dy8Ge4O20
_chemical_formula_sum              "Dy8 Ge4 O20"
_cell_length_a       9.46434
_cell_length_b       8.10965
_cell_length_c       9.46434
_cell_angle_alpha    109.481
_cell_angle_beta     138.945
_cell_angle_gamma    87.3358

_space_group_name_H-M_alt    "P 1"
_space_group_IT_number       1

loop_
  _space_group_symop_operation_xyz
  'x, y, z'

loop_
  _atom_site_type_symbol
  _atom_site_label
  _atom_site_symmetry_multiplicity
  _atom_site_fract_x
  _atom_site_fract_y
  _atom_site_fract_z
  _atom_site_occupancy
  Dy  Dy1       1.0  0.28200  0.93700  0.95200  1.0000
  Dy  Dy2       1.0  0.01510  0.56300  0.84500  1.0000
  Dy  Dy3       1.0  0.71800  0.06290  0.04780  1.0000
  Dy  Dy4       1.0  0.98500  0.43700  0.15500  1.0000
  Dy  Dy5       1.0  0.79000  0.61100  0.33300  1.0000
  Dy  Dy6       1.0  0.72300  0.88900  0.68000  1.0000
  Dy  Dy7       1.0  0.21000  0.38900  0.66700  1.0000
  Dy  Dy8       1.0  0.27700  0.11100  0.32000  1.0000
  Ge  Ge1       1.0  0.40900  0.44700  0.22800  1.0000
  Ge  Ge2       1.0  0.78100  0.05290  0.46200  1.0000
  Ge  Ge3       1.0  0.59100  0.55300  0.77200  1.0000
  Ge  Ge4       1.0  0.21900  0.94700  0.53800  1.0000
  O   O1        1.0  0.35800  0.06800  0.82800  1.0000
  O   O2        1.0  0.76000  0.43200  0.79000  1.0000
  O   O3        1.0  0.64200  0.93200  0.17200  1.0000
  O   O4        1.0  0.24000  0.56800  0.21000  1.0000
  O   O5        1.0  0.44600  0.99400  0.59900  1.0000
  O   O6        1.0  0.60500  0.50600  0.95100  1.0000
  O   O7        1.0  0.55400  0.00598  0.40100  1.0000
  O   O8        1.0  0.39500  0.49400  0.04850  1.0000
  O   O9        1.0  0.34100  0.22300  0.17200  1.0000
  O   O10       1.0  0.94900  0.27700  0.61800  1.0000
  O   O11       1.0  0.66000  0.77700  0.82800  1.0000
  O   O12       1.0  0.05090  0.72300  0.38200  1.0000
  O   O13       1.0  0.92200  0.91300  0.61000  1.0000
  O   O14       1.0  0.69700  0.58700  0.50900  1.0000
  O   O15       1.0  0.07810  0.08700  0.39000  1.0000
  O   O16       1.0  0.30300  0.41300  0.49100  1.0000
  O   O17       1.0  0.12300  0.63900  0.71800  1.0000
  O   O18       1.0  0.07950  0.86100  0.98400  1.0000
  O   O19       1.0  0.87700  0.36100  0.28200  1.0000
  O   O20       1.0  0.92000  0.13900  0.01590  1.0000
