data_image0
_chemical_formula_structural       Cs2Gd2N2O2
_chemical_formula_sum              "Cs2 Gd2 N2 O2"
_cell_length_a       4.00117
_cell_length_b       6.42821
_cell_length_c       7.93905
_cell_angle_alpha    90
_cell_angle_beta     90
_cell_angle_gamma    90

_space_group_name_H-M_alt    "P 1"
_space_group_IT_number       1

loop_
  _space_group_symop_operation_xyz
  'x, y, z'

loop_
  _atom_site_type_symbol
  _atom_site_label
  _atom_site_symmetry_multiplicity
  _atom_site_fract_x
  _atom_site_fract_y
  _atom_site_fract_z
  _atom_site_occupancy
  Cs  Cs1       1.0  0.00000  0.47700  0.33300  1.0000
  Cs  Cs2       1.0  1.00000  0.97700  0.66700  1.0000
  Gd  Gd1       1.0  0.50000  0.00119  0.14300  1.0000
  Gd  Gd2       1.0  0.50000  0.50100  0.85700  1.0000
  N   N1        1.0  1.00000  0.94700  0.28000  1.0000
  N   N2        1.0  1.00000  0.44700  0.72000  1.0000
  O   O1        1.0  0.50000  0.32800  0.09040  1.0000
  O   O2        1.0  0.50000  0.82800  0.91000  1.0000
