data_image0
_chemical_formula_structural       Al2Ba3Si2
_chemical_formula_sum              "Al2 Ba3 Si2"
_cell_length_a       4.31249
_cell_length_b       5.1252
_cell_length_c       10.5696
_cell_angle_alpha    104.031
_cell_angle_beta     101.771
_cell_angle_gamma    90

_space_group_name_H-M_alt    "P 1"
_space_group_IT_number       1

loop_
  _space_group_symop_operation_xyz
  'x, y, z'

loop_
  _atom_site_type_symbol
  _atom_site_label
  _atom_site_symmetry_multiplicity
  _atom_site_fract_x
  _atom_site_fract_y
  _atom_site_fract_z
  _atom_site_occupancy
  Al  Al1       1.0  0.06540  0.56500  0.13100  1.0000
  Al  Al2       1.0  0.93500  0.43500  0.86900  1.0000
  Ba  Ba1       1.0  0.50000  0.00000  0.00000  1.0000
  Ba  Ba2       1.0  0.18500  0.18500  0.37000  1.0000
  Ba  Ba3       1.0  0.81500  0.81500  0.63000  1.0000
  Si  Si1       1.0  0.63400  0.63400  0.26700  1.0000
  Si  Si2       1.0  0.36600  0.36600  0.73300  1.0000
