data_image0
_chemical_formula_structural       Ge4O20Sm8
_chemical_formula_sum              "Ge4 O20 Sm8"
_cell_length_a       9.3561
_cell_length_b       7.13857
_cell_length_c       6.86376
_cell_angle_alpha    90
_cell_angle_beta     105.634
_cell_angle_gamma    90

_space_group_name_H-M_alt    "P 1"
_space_group_IT_number       1

loop_
  _space_group_symop_operation_xyz
  'x, y, z'

loop_
  _atom_site_type_symbol
  _atom_site_label
  _atom_site_symmetry_multiplicity
  _atom_site_fract_x
  _atom_site_fract_y
  _atom_site_fract_z
  _atom_site_occupancy
  Ge  Ge1       1.0  0.30200  0.90800  0.02820  1.0000
  Ge  Ge2       1.0  0.69800  0.40800  0.47200  1.0000
  Ge  Ge3       1.0  0.30200  0.59200  0.52800  1.0000
  Ge  Ge4       1.0  0.69800  0.09160  0.97200  1.0000
  O   O1        1.0  0.89100  0.13300  0.00458  1.0000
  O   O2        1.0  0.61300  0.29700  0.00902  1.0000
  O   O3        1.0  0.88800  0.61700  0.06300  1.0000
  O   O4        1.0  0.71400  0.91600  0.16600  1.0000
  O   O5        1.0  0.39700  0.05710  0.22600  1.0000
  O   O6        1.0  0.60300  0.55700  0.27400  1.0000
  O   O7        1.0  0.28600  0.41600  0.33400  1.0000
  O   O8        1.0  0.11200  0.11700  0.43700  1.0000
  O   O9        1.0  0.38700  0.79700  0.49100  1.0000
  O   O10       1.0  0.10900  0.63300  0.49500  1.0000
  O   O11       1.0  0.89100  0.36700  0.50500  1.0000
  O   O12       1.0  0.61300  0.20300  0.50900  1.0000
  O   O13       1.0  0.88800  0.88300  0.56300  1.0000
  O   O14       1.0  0.71400  0.58400  0.66600  1.0000
  O   O15       1.0  0.39700  0.44300  0.72600  1.0000
  O   O16       1.0  0.60300  0.94300  0.77400  1.0000
  O   O17       1.0  0.28600  0.08380  0.83400  1.0000
  O   O18       1.0  0.11200  0.38300  0.93700  1.0000
  O   O19       1.0  0.38700  0.70300  0.99100  1.0000
  O   O20       1.0  0.10900  0.86700  0.99500  1.0000
  Sm  Sm1       1.0  0.37000  0.36400  0.05260  1.0000
  Sm  Sm2       1.0  0.02550  0.37300  0.23200  1.0000
  Sm  Sm3       1.0  0.97500  0.87300  0.26800  1.0000
  Sm  Sm4       1.0  0.63000  0.86400  0.44700  1.0000
  Sm  Sm5       1.0  0.37000  0.13600  0.55300  1.0000
  Sm  Sm6       1.0  0.02550  0.12700  0.73200  1.0000
  Sm  Sm7       1.0  0.97500  0.62700  0.76800  1.0000
  Sm  Sm8       1.0  0.63000  0.63600  0.94700  1.0000
