data_image0
_chemical_formula_structural       Ge4Ho8O20
_chemical_formula_sum              "Ge4 Ho8 O20"
_cell_length_a       9.19111
_cell_length_b       6.96769
_cell_length_c       6.69039
_cell_angle_alpha    90
_cell_angle_beta     104.164
_cell_angle_gamma    90

_space_group_name_H-M_alt    "P 1"
_space_group_IT_number       1

loop_
  _space_group_symop_operation_xyz
  'x, y, z'

loop_
  _atom_site_type_symbol
  _atom_site_label
  _atom_site_symmetry_multiplicity
  _atom_site_fract_x
  _atom_site_fract_y
  _atom_site_fract_z
  _atom_site_occupancy
  Ge  Ge1       1.0  0.30300  0.90600  0.02040  1.0000
  Ge  Ge2       1.0  0.69700  0.40600  0.48000  1.0000
  Ge  Ge3       1.0  0.30300  0.59400  0.52000  1.0000
  Ge  Ge4       1.0  0.69700  0.09390  0.98000  1.0000
  Ho  Ho1       1.0  0.36200  0.36300  0.03150  1.0000
  Ho  Ho2       1.0  0.02670  0.37300  0.22900  1.0000
  Ho  Ho3       1.0  0.97300  0.87300  0.27100  1.0000
  Ho  Ho4       1.0  0.63800  0.86300  0.46800  1.0000
  Ho  Ho5       1.0  0.36200  0.13700  0.53200  1.0000
  Ho  Ho6       1.0  0.02670  0.12700  0.72900  1.0000
  Ho  Ho7       1.0  0.97300  0.62700  0.77100  1.0000
  Ho  Ho8       1.0  0.63800  0.63700  0.96800  1.0000
  O   O1        1.0  0.89300  0.13800  0.00623  1.0000
  O   O2        1.0  0.61000  0.30500  0.01870  1.0000
  O   O3        1.0  0.89100  0.61600  0.07310  1.0000
  O   O4        1.0  0.71800  0.91700  0.18300  1.0000
  O   O5        1.0  0.39500  0.06810  0.21100  1.0000
  O   O6        1.0  0.60500  0.56800  0.28900  1.0000
  O   O7        1.0  0.28200  0.41700  0.31700  1.0000
  O   O8        1.0  0.10900  0.11600  0.42700  1.0000
  O   O9        1.0  0.39000  0.80500  0.48100  1.0000
  O   O10       1.0  0.10700  0.63800  0.49400  1.0000
  O   O11       1.0  0.89300  0.36200  0.50600  1.0000
  O   O12       1.0  0.61000  0.19500  0.51900  1.0000
  O   O13       1.0  0.89100  0.88400  0.57300  1.0000
  O   O14       1.0  0.71800  0.58300  0.68300  1.0000
  O   O15       1.0  0.39500  0.43200  0.71100  1.0000
  O   O16       1.0  0.60500  0.93200  0.78900  1.0000
  O   O17       1.0  0.28200  0.08250  0.81700  1.0000
  O   O18       1.0  0.10900  0.38400  0.92700  1.0000
  O   O19       1.0  0.39000  0.69500  0.98100  1.0000
  O   O20       1.0  0.10700  0.86200  0.99400  1.0000
