data_image0
_chemical_formula_structural       Eu8Ge8O28
_chemical_formula_sum              "Eu8 Ge8 O28"
_cell_length_a       6.84474
_cell_length_b       6.84474
_cell_length_c       12.6891
_cell_angle_alpha    90
_cell_angle_beta     90
_cell_angle_gamma    90

_space_group_name_H-M_alt    "P 1"
_space_group_IT_number       1

loop_
  _space_group_symop_operation_xyz
  'x, y, z'

loop_
  _atom_site_type_symbol
  _atom_site_label
  _atom_site_symmetry_multiplicity
  _atom_site_fract_x
  _atom_site_fract_y
  _atom_site_fract_z
  _atom_site_occupancy
  Eu  Eu1       1.0  0.64800  0.88400  0.10900  1.0000
  Eu  Eu2       1.0  0.85200  0.38400  0.14100  1.0000
  Eu  Eu3       1.0  0.61600  0.14800  0.35900  1.0000
  Eu  Eu4       1.0  0.11600  0.35200  0.39100  1.0000
  Eu  Eu5       1.0  0.35200  0.11600  0.60900  1.0000
  Eu  Eu6       1.0  0.14800  0.61600  0.64100  1.0000
  Eu  Eu7       1.0  0.38400  0.85200  0.85900  1.0000
  Eu  Eu8       1.0  0.88400  0.64800  0.89100  1.0000
  Ge  Ge1       1.0  0.12300  0.84500  0.12400  1.0000
  Ge  Ge2       1.0  0.37700  0.34500  0.12600  1.0000
  Ge  Ge3       1.0  0.65500  0.62300  0.37400  1.0000
  Ge  Ge4       1.0  0.15500  0.87700  0.37600  1.0000
  Ge  Ge5       1.0  0.87700  0.15500  0.62400  1.0000
  Ge  Ge6       1.0  0.62300  0.65500  0.62600  1.0000
  Ge  Ge7       1.0  0.34500  0.37700  0.87400  1.0000
  Ge  Ge8       1.0  0.84500  0.12300  0.87600  1.0000
  O   O1        1.0  0.28400  0.28400  0.00000  1.0000
  O   O2        1.0  0.33000  0.82300  0.04290  1.0000
  O   O3        1.0  0.94000  0.69000  0.07820  1.0000
  O   O4        1.0  0.50900  0.56800  0.12300  1.0000
  O   O5        1.0  0.99100  0.06830  0.12700  1.0000
  O   O6        1.0  0.56000  0.19000  0.17200  1.0000
  O   O7        1.0  0.17000  0.32300  0.20700  1.0000
  O   O8        1.0  0.21600  0.78400  0.25000  1.0000
  O   O9        1.0  0.67700  0.83000  0.29300  1.0000
  O   O10       1.0  0.81000  0.44000  0.32800  1.0000
  O   O11       1.0  0.93200  0.00913  0.37300  1.0000
  O   O12       1.0  0.43200  0.49100  0.37700  1.0000
  O   O13       1.0  0.31000  0.06030  0.42200  1.0000
  O   O14       1.0  0.17700  0.67000  0.45700  1.0000
  O   O15       1.0  0.71600  0.71600  0.50000  1.0000
  O   O16       1.0  0.67000  0.17700  0.54300  1.0000
  O   O17       1.0  0.06030  0.31000  0.57800  1.0000
  O   O18       1.0  0.49100  0.43200  0.62300  1.0000
  O   O19       1.0  0.00913  0.93200  0.62700  1.0000
  O   O20       1.0  0.44000  0.81000  0.67200  1.0000
  O   O21       1.0  0.83000  0.67700  0.70700  1.0000
  O   O22       1.0  0.78400  0.21600  0.75000  1.0000
  O   O23       1.0  0.32300  0.17000  0.79300  1.0000
  O   O24       1.0  0.19000  0.56000  0.82800  1.0000
  O   O25       1.0  0.06830  0.99100  0.87300  1.0000
  O   O26       1.0  0.56800  0.50900  0.87700  1.0000
  O   O27       1.0  0.69000  0.94000  0.92200  1.0000
  O   O28       1.0  0.82300  0.33000  0.95700  1.0000
