data_image0
_chemical_formula_structural       Ge4O14Pr4
_chemical_formula_sum              "Ge4 O14 Pr4"
_cell_length_a       7.00799
_cell_length_b       7.03372
_cell_length_c       6.8617
_cell_angle_alpha    87.564
_cell_angle_beta     91.3068
_cell_angle_gamma    115.653

_space_group_name_H-M_alt    "P 1"
_space_group_IT_number       1

loop_
  _space_group_symop_operation_xyz
  'x, y, z'

loop_
  _atom_site_type_symbol
  _atom_site_label
  _atom_site_symmetry_multiplicity
  _atom_site_fract_x
  _atom_site_fract_y
  _atom_site_fract_z
  _atom_site_occupancy
  Ge  Ge1       1.0  0.79500  0.87800  0.32000  1.0000
  Ge  Ge2       1.0  0.31300  0.34600  0.62400  1.0000
  Ge  Ge3       1.0  0.74400  0.50100  0.85700  1.0000
  Ge  Ge4       1.0  0.18500  0.81600  0.96200  1.0000
  O   O1        1.0  0.64700  0.36400  0.07690  1.0000
  O   O2        1.0  0.11200  0.57300  0.09320  1.0000
  O   O3        1.0  0.27900  0.00726  0.13500  1.0000
  O   O4        1.0  0.56400  0.74900  0.17400  1.0000
  O   O5        1.0  0.92900  0.12000  0.17900  1.0000
  O   O6        1.0  0.93000  0.73500  0.41200  1.0000
  O   O7        1.0  0.42700  0.24200  0.45500  1.0000
  O   O8        1.0  0.20100  0.47100  0.45900  1.0000
  O   O9        1.0  0.70100  0.98700  0.50700  1.0000
  O   O10       1.0  0.81500  0.34700  0.71600  1.0000
  O   O11       1.0  0.52400  0.54900  0.76300  1.0000
  O   O12       1.0  0.36500  0.87600  0.77200  1.0000
  O   O13       1.0  0.14200  0.19600  0.80900  1.0000
  O   O14       1.0  0.92400  0.77400  0.86700  1.0000
  Pr  Pr1       1.0  0.30400  0.36100  0.12700  1.0000
  Pr  Pr2       1.0  0.83000  0.36300  0.36600  1.0000
  Pr  Pr3       1.0  0.31900  0.84600  0.42500  1.0000
  Pr  Pr4       1.0  0.74300  0.00427  0.85600  1.0000
