data_image0
_chemical_formula_structural       Eu8Ge4O20
_chemical_formula_sum              "Eu8 Ge4 O20"
_cell_length_a       9.5817
_cell_length_b       7.09577
_cell_length_c       6.85525
_cell_angle_alpha    90
_cell_angle_beta     105.615
_cell_angle_gamma    90

_space_group_name_H-M_alt    "P 1"
_space_group_IT_number       1

loop_
  _space_group_symop_operation_xyz
  'x, y, z'

loop_
  _atom_site_type_symbol
  _atom_site_label
  _atom_site_symmetry_multiplicity
  _atom_site_fract_x
  _atom_site_fract_y
  _atom_site_fract_z
  _atom_site_occupancy
  Eu  Eu1       1.0  0.37500  0.36000  0.06680  1.0000
  Eu  Eu2       1.0  0.97700  0.87200  0.24800  1.0000
  Eu  Eu3       1.0  0.02270  0.37200  0.25200  1.0000
  Eu  Eu4       1.0  0.62500  0.86000  0.43300  1.0000
  Eu  Eu5       1.0  0.37500  0.14000  0.56700  1.0000
  Eu  Eu6       1.0  0.97700  0.62800  0.74800  1.0000
  Eu  Eu7       1.0  0.02270  0.12800  0.75200  1.0000
  Eu  Eu8       1.0  0.62500  0.64000  0.93300  1.0000
  Ge  Ge1       1.0  0.28900  0.89800  0.01330  1.0000
  Ge  Ge2       1.0  0.71100  0.39800  0.48700  1.0000
  Ge  Ge3       1.0  0.28900  0.60200  0.51300  1.0000
  Ge  Ge4       1.0  0.71100  0.10200  0.98700  1.0000
  O   O1        1.0  0.60600  0.30300  0.00281  1.0000
  O   O2        1.0  0.89200  0.14900  0.00916  1.0000
  O   O3        1.0  0.88600  0.60800  0.05690  1.0000
  O   O4        1.0  0.71100  0.91200  0.15200  1.0000
  O   O5        1.0  0.38700  0.00993  0.24100  1.0000
  O   O6        1.0  0.61300  0.51000  0.25900  1.0000
  O   O7        1.0  0.28900  0.41200  0.34800  1.0000
  O   O8        1.0  0.11400  0.10800  0.44300  1.0000
  O   O9        1.0  0.10800  0.64900  0.49100  1.0000
  O   O10       1.0  0.39400  0.80300  0.49700  1.0000
  O   O11       1.0  0.60600  0.19700  0.50300  1.0000
  O   O12       1.0  0.89200  0.35100  0.50900  1.0000
  O   O13       1.0  0.88600  0.89200  0.55700  1.0000
  O   O14       1.0  0.71100  0.58800  0.65200  1.0000
  O   O15       1.0  0.38700  0.49000  0.74100  1.0000
  O   O16       1.0  0.61300  0.99000  0.75900  1.0000
  O   O17       1.0  0.28900  0.08820  0.84800  1.0000
  O   O18       1.0  0.11400  0.39200  0.94300  1.0000
  O   O19       1.0  0.10800  0.85100  0.99100  1.0000
  O   O20       1.0  0.39400  0.69700  0.99700  1.0000
