data_image0
_chemical_formula_structural       Eu2O8Si2
_chemical_formula_sum              "Eu2 O8 Si2"
_cell_length_a       5.98927
_cell_length_b       5.98927
_cell_length_c       5.98927
_cell_angle_alpha    106.748
_cell_angle_beta     115.066
_cell_angle_gamma    106.748

_space_group_name_H-M_alt    "P 1"
_space_group_IT_number       1

loop_
  _space_group_symop_operation_xyz
  'x, y, z'

loop_
  _atom_site_type_symbol
  _atom_site_label
  _atom_site_symmetry_multiplicity
  _atom_site_fract_x
  _atom_site_fract_y
  _atom_site_fract_z
  _atom_site_occupancy
  Eu  Eu1       1.0  0.87500  0.25000  0.12500  1.0000
  Eu  Eu2       1.0  0.12500  0.75000  0.87500  1.0000
  O   O1        1.0  0.29000  0.57100  0.21900  1.0000
  O   O2        1.0  0.64800  0.92900  0.21900  1.0000
  O   O3        1.0  0.21900  0.07130  0.29000  1.0000
  O   O4        1.0  0.78100  0.57100  0.35200  1.0000
  O   O5        1.0  0.21900  0.42900  0.64800  1.0000
  O   O6        1.0  0.78100  0.92900  0.71000  1.0000
  O   O7        1.0  0.35200  0.07130  0.78100  1.0000
  O   O8        1.0  0.71000  0.42900  0.78100  1.0000
  Si  Si1       1.0  0.62500  0.75000  0.37500  1.0000
  Si  Si2       1.0  0.37500  0.25000  0.62500  1.0000
