data_image0
_chemical_formula_structural       Lu2O8Si2
_chemical_formula_sum              "Lu2 O8 Si2"
_cell_length_a       5.69747
_cell_length_b       5.69747
_cell_length_c       5.69747
_cell_angle_alpha    106.78
_cell_angle_beta     115
_cell_angle_gamma    106.78

_space_group_name_H-M_alt    "P 1"
_space_group_IT_number       1

loop_
  _space_group_symop_operation_xyz
  'x, y, z'

loop_
  _atom_site_type_symbol
  _atom_site_label
  _atom_site_symmetry_multiplicity
  _atom_site_fract_x
  _atom_site_fract_y
  _atom_site_fract_z
  _atom_site_occupancy
  Lu  Lu1       1.0  0.87500  0.25000  0.12500  1.0000
  Lu  Lu2       1.0  0.12500  0.75000  0.87500  1.0000
  O   O1        1.0  0.27100  0.56500  0.20600  1.0000
  O   O2        1.0  0.64100  0.93500  0.20600  1.0000
  O   O3        1.0  0.20600  0.06520  0.27100  1.0000
  O   O4        1.0  0.79400  0.56500  0.35900  1.0000
  O   O5        1.0  0.20600  0.43500  0.64100  1.0000
  O   O6        1.0  0.79400  0.93500  0.72900  1.0000
  O   O7        1.0  0.35900  0.06520  0.79400  1.0000
  O   O8        1.0  0.72900  0.43500  0.79400  1.0000
  Si  Si1       1.0  0.62500  0.75000  0.37500  1.0000
  Si  Si2       1.0  0.37500  0.25000  0.62500  1.0000
