data_image0
_chemical_formula_structural       Ca4Mg2O12W2
_chemical_formula_sum              "Ca4 Mg2 O12 W2"
_cell_length_a       5.39865
_cell_length_b       5.54691
_cell_length_c       7.69456
_cell_angle_alpha    90
_cell_angle_beta     89.8066
_cell_angle_gamma    90

_space_group_name_H-M_alt    "P 1"
_space_group_IT_number       1

loop_
  _space_group_symop_operation_xyz
  'x, y, z'

loop_
  _atom_site_type_symbol
  _atom_site_label
  _atom_site_symmetry_multiplicity
  _atom_site_fract_x
  _atom_site_fract_y
  _atom_site_fract_z
  _atom_site_occupancy
  Ca  Ca1       1.0  0.98800  0.05120  0.24800  1.0000
  Ca  Ca2       1.0  0.51200  0.55100  0.25200  1.0000
  Ca  Ca3       1.0  0.48800  0.44900  0.74800  1.0000
  Ca  Ca4       1.0  0.01160  0.94900  0.75200  1.0000
  Mg  Mg1       1.0  0.00000  0.50000  0.00000  1.0000
  Mg  Mg2       1.0  0.50000  0.00000  0.50000  1.0000
  O   O1        1.0  0.78900  0.80400  0.04490  1.0000
  O   O2        1.0  0.69200  0.28700  0.05010  1.0000
  O   O3        1.0  0.40800  0.97200  0.24200  1.0000
  O   O4        1.0  0.09180  0.47200  0.25800  1.0000
  O   O5        1.0  0.80800  0.78700  0.45000  1.0000
  O   O6        1.0  0.71100  0.30400  0.45500  1.0000
  O   O7        1.0  0.28900  0.69600  0.54500  1.0000
  O   O8        1.0  0.19200  0.21300  0.55000  1.0000
  O   O9        1.0  0.90800  0.52800  0.74200  1.0000
  O   O10       1.0  0.59200  0.02820  0.75800  1.0000
  O   O11       1.0  0.30800  0.71300  0.95000  1.0000
  O   O12       1.0  0.21100  0.19600  0.95500  1.0000
  W   W1        1.0  0.50000  0.00000  0.00000  1.0000
  W   W2        1.0  0.00000  0.50000  0.50000  1.0000
