data_image0
_chemical_formula_structural       Hg2N2O2Sc2
_chemical_formula_sum              "Hg2 N2 O2 Sc2"
_cell_length_a       4.13787
_cell_length_b       4.13787
_cell_length_c       7.54499
_cell_angle_alpha    89.9999
_cell_angle_beta     89.9999
_cell_angle_gamma    90.0001

_space_group_name_H-M_alt    "P 1"
_space_group_IT_number       1

loop_
  _space_group_symop_operation_xyz
  'x, y, z'

loop_
  _atom_site_type_symbol
  _atom_site_label
  _atom_site_symmetry_multiplicity
  _atom_site_fract_x
  _atom_site_fract_y
  _atom_site_fract_z
  _atom_site_occupancy
  Hg  Hg1       1.0  0.75000  0.25000  0.50000  1.0000
  Hg  Hg2       1.0  0.25000  0.75000  0.50000  1.0000
  N   N1        1.0  0.75000  0.75000  0.34700  1.0000
  N   N2        1.0  0.25000  0.25000  0.65300  1.0000
  O   O1        1.0  0.75000  0.25000  0.00000  1.0000
  O   O2        1.0  0.25000  0.75000  0.00000  1.0000
  Sc  Sc1       1.0  0.75000  0.75000  0.08530  1.0000
  Sc  Sc2       1.0  0.25000  0.25000  0.91500  1.0000
