data_image0
_chemical_formula_structural       O8Si2Sm2
_chemical_formula_sum              "O8 Si2 Sm2"
_cell_length_a       5.88646
_cell_length_b       5.88646
_cell_length_c       5.88646
_cell_angle_alpha    106.612
_cell_angle_beta     115.354
_cell_angle_gamma    106.612

_space_group_name_H-M_alt    "P 1"
_space_group_IT_number       1

loop_
  _space_group_symop_operation_xyz
  'x, y, z'

loop_
  _atom_site_type_symbol
  _atom_site_label
  _atom_site_symmetry_multiplicity
  _atom_site_fract_x
  _atom_site_fract_y
  _atom_site_fract_z
  _atom_site_occupancy
  O   O1        1.0  0.28200  0.57100  0.21100  1.0000
  O   O2        1.0  0.64100  0.92900  0.21100  1.0000
  O   O3        1.0  0.21100  0.07060  0.28200  1.0000
  O   O4        1.0  0.78900  0.57100  0.35900  1.0000
  O   O5        1.0  0.21100  0.42900  0.64100  1.0000
  O   O6        1.0  0.78900  0.92900  0.71800  1.0000
  O   O7        1.0  0.35900  0.07060  0.78900  1.0000
  O   O8        1.0  0.71800  0.42900  0.78900  1.0000
  Si  Si1       1.0  0.62500  0.75000  0.37500  1.0000
  Si  Si2       1.0  0.37500  0.25000  0.62500  1.0000
  Sm  Sm1       1.0  0.87500  0.25000  0.12500  1.0000
  Sm  Sm2       1.0  0.12500  0.75000  0.87500  1.0000
