data_image0
_chemical_formula_structural       Ge4O20Pm8
_chemical_formula_sum              "Ge4 O20 Pm8"
_cell_length_a       9.39534
_cell_length_b       7.1643
_cell_length_c       6.89967
_cell_angle_alpha    90
_cell_angle_beta     105.665
_cell_angle_gamma    90

_space_group_name_H-M_alt    "P 1"
_space_group_IT_number       1

loop_
  _space_group_symop_operation_xyz
  'x, y, z'

loop_
  _atom_site_type_symbol
  _atom_site_label
  _atom_site_symmetry_multiplicity
  _atom_site_fract_x
  _atom_site_fract_y
  _atom_site_fract_z
  _atom_site_occupancy
  Ge  Ge1       1.0  0.30200  0.90800  0.02750  1.0000
  Ge  Ge2       1.0  0.69800  0.40800  0.47200  1.0000
  Ge  Ge3       1.0  0.30200  0.59200  0.52800  1.0000
  Ge  Ge4       1.0  0.69800  0.09160  0.97200  1.0000
  O   O1        1.0  0.89100  0.13300  0.00495  1.0000
  O   O2        1.0  0.61200  0.29600  0.00570  1.0000
  O   O3        1.0  0.88800  0.61700  0.06230  1.0000
  O   O4        1.0  0.71400  0.91800  0.16600  1.0000
  O   O5        1.0  0.39400  0.05650  0.22500  1.0000
  O   O6        1.0  0.60600  0.55600  0.27500  1.0000
  O   O7        1.0  0.28600  0.41800  0.33400  1.0000
  O   O8        1.0  0.11200  0.11700  0.43800  1.0000
  O   O9        1.0  0.38800  0.79600  0.49400  1.0000
  O   O10       1.0  0.10900  0.63300  0.49500  1.0000
  O   O11       1.0  0.89100  0.36700  0.50500  1.0000
  O   O12       1.0  0.61200  0.20400  0.50600  1.0000
  O   O13       1.0  0.88800  0.88300  0.56200  1.0000
  O   O14       1.0  0.71400  0.58200  0.66600  1.0000
  O   O15       1.0  0.39400  0.44400  0.72500  1.0000
  O   O16       1.0  0.60600  0.94400  0.77500  1.0000
  O   O17       1.0  0.28600  0.08200  0.83400  1.0000
  O   O18       1.0  0.11200  0.38300  0.93800  1.0000
  O   O19       1.0  0.38800  0.70400  0.99400  1.0000
  O   O20       1.0  0.10900  0.86700  0.99500  1.0000
  Pm  Pm1       1.0  0.37000  0.36400  0.05300  1.0000
  Pm  Pm2       1.0  0.02490  0.37300  0.23200  1.0000
  Pm  Pm3       1.0  0.97500  0.87300  0.26800  1.0000
  Pm  Pm4       1.0  0.63000  0.86400  0.44700  1.0000
  Pm  Pm5       1.0  0.37000  0.13600  0.55300  1.0000
  Pm  Pm6       1.0  0.02490  0.12700  0.73200  1.0000
  Pm  Pm7       1.0  0.97500  0.62700  0.76800  1.0000
  Pm  Pm8       1.0  0.63000  0.63600  0.94700  1.0000
