data_image0
_chemical_formula_structural       Nd2O8Si2
_chemical_formula_sum              "Nd2 O8 Si2"
_cell_length_a       5.95876
_cell_length_b       5.95876
_cell_length_c       5.95876
_cell_angle_alpha    106.636
_cell_angle_beta     115.304
_cell_angle_gamma    106.636

_space_group_name_H-M_alt    "P 1"
_space_group_IT_number       1

loop_
  _space_group_symop_operation_xyz
  'x, y, z'

loop_
  _atom_site_type_symbol
  _atom_site_label
  _atom_site_symmetry_multiplicity
  _atom_site_fract_x
  _atom_site_fract_y
  _atom_site_fract_z
  _atom_site_occupancy
  Nd  Nd1       1.0  0.87500  0.25000  0.12500  1.0000
  Nd  Nd2       1.0  0.12500  0.75000  0.87500  1.0000
  O   O1        1.0  0.28600  0.57200  0.21300  1.0000
  O   O2        1.0  0.64100  0.92800  0.21300  1.0000
  O   O3        1.0  0.21300  0.07240  0.28500  1.0000
  O   O4        1.0  0.78700  0.57200  0.35900  1.0000
  O   O5        1.0  0.21300  0.42800  0.64100  1.0000
  O   O6        1.0  0.78700  0.92800  0.71500  1.0000
  O   O7        1.0  0.35900  0.07240  0.78700  1.0000
  O   O8        1.0  0.71500  0.42800  0.78700  1.0000
  Si  Si1       1.0  0.62500  0.75000  0.37500  1.0000
  Si  Si2       1.0  0.37500  0.25000  0.62500  1.0000
