data_image0
_chemical_formula_structural       Ge4O14Sm4
_chemical_formula_sum              "Ge4 O14 Sm4"
_cell_length_a       6.89313
_cell_length_b       6.92769
_cell_length_c       6.76816
_cell_angle_alpha    87.2081
_cell_angle_beta     91.8777
_cell_angle_gamma    115.535

_space_group_name_H-M_alt    "P 1"
_space_group_IT_number       1

loop_
  _space_group_symop_operation_xyz
  'x, y, z'

loop_
  _atom_site_type_symbol
  _atom_site_label
  _atom_site_symmetry_multiplicity
  _atom_site_fract_x
  _atom_site_fract_y
  _atom_site_fract_z
  _atom_site_occupancy
  Ge  Ge1       1.0  0.79600  0.87600  0.31800  1.0000
  Ge  Ge2       1.0  0.31200  0.34600  0.62500  1.0000
  Ge  Ge3       1.0  0.74600  0.50000  0.86200  1.0000
  Ge  Ge4       1.0  0.19000  0.81700  0.96000  1.0000
  O   O1        1.0  0.10700  0.56400  0.08260  1.0000
  O   O2        1.0  0.64500  0.36700  0.08600  1.0000
  O   O3        1.0  0.28000  0.00651  0.14100  1.0000
  O   O4        1.0  0.56000  0.74700  0.17100  1.0000
  O   O5        1.0  0.92800  0.12200  0.17600  1.0000
  O   O6        1.0  0.93400  0.73100  0.41200  1.0000
  O   O7        1.0  0.42400  0.24000  0.45300  1.0000
  O   O8        1.0  0.19900  0.47600  0.45600  1.0000
  O   O9        1.0  0.70200  0.98700  0.50600  1.0000
  O   O10       1.0  0.81000  0.34100  0.71500  1.0000
  O   O11       1.0  0.52400  0.55200  0.76400  1.0000
  O   O12       1.0  0.37300  0.88500  0.76900  1.0000
  O   O13       1.0  0.14000  0.19700  0.81300  1.0000
  O   O14       1.0  0.92500  0.77800  0.86500  1.0000
  Sm  Sm1       1.0  0.30200  0.35800  0.12900  1.0000
  Sm  Sm2       1.0  0.83100  0.36200  0.36800  1.0000
  Sm  Sm3       1.0  0.32200  0.84900  0.42700  1.0000
  Sm  Sm4       1.0  0.74600  0.00413  0.85300  1.0000
