data_image0
_chemical_formula_structural       Mn2Si4Sm2
_chemical_formula_sum              "Mn2 Si4 Sm2"
_cell_length_a       3.97309
_cell_length_b       4.0085
_cell_length_c       8.95468
_cell_angle_alpha    77.0664
_cell_angle_beta     90
_cell_angle_gamma    90

_space_group_name_H-M_alt    "P 1"
_space_group_IT_number       1

loop_
  _space_group_symop_operation_xyz
  'x, y, z'

loop_
  _atom_site_type_symbol
  _atom_site_label
  _atom_site_symmetry_multiplicity
  _atom_site_fract_x
  _atom_site_fract_y
  _atom_site_fract_z
  _atom_site_occupancy
  Mn  Mn1       1.0  0.25000  0.25000  0.49900  1.0000
  Mn  Mn2       1.0  0.75000  0.75000  0.50100  1.0000
  Si  Si1       1.0  0.75000  0.46400  0.07240  1.0000
  Si  Si2       1.0  0.75000  0.32300  0.35300  1.0000
  Si  Si3       1.0  0.25000  0.67700  0.64700  1.0000
  Si  Si4       1.0  0.25000  0.53600  0.92800  1.0000
  Sm  Sm1       1.0  0.25000  0.89900  0.20300  1.0000
  Sm  Sm2       1.0  0.75000  0.10100  0.79700  1.0000
