data_image0
_chemical_formula_structural       H6Mg4Na2O16S4
_chemical_formula_sum              "H6 Mg4 Na2 O16 S4"
_cell_length_a       8.83597
_cell_length_b       7.68427
_cell_length_c       6.29926
_cell_angle_alpha    113.86
_cell_angle_beta     110.689
_cell_angle_gamma    98.283

_space_group_name_H-M_alt    "P 1"
_space_group_IT_number       1

loop_
  _space_group_symop_operation_xyz
  'x, y, z'

loop_
  _atom_site_type_symbol
  _atom_site_label
  _atom_site_symmetry_multiplicity
  _atom_site_fract_x
  _atom_site_fract_y
  _atom_site_fract_z
  _atom_site_occupancy
  H   H1        1.0  0.27600  0.56200  0.29100  1.0000
  H   H2        1.0  0.49900  0.29000  0.39200  1.0000
  H   H3        1.0  0.72500  0.43900  0.45500  1.0000
  H   H4        1.0  0.27500  0.56100  0.54500  1.0000
  H   H5        1.0  0.50100  0.71000  0.60800  1.0000
  H   H6        1.0  0.72400  0.43800  0.70900  1.0000
  Mg  Mg1       1.0  0.50000  0.00000  0.00000  1.0000
  Mg  Mg2       1.0  0.18900  0.17400  0.18100  1.0000
  Mg  Mg3       1.0  0.50000  0.00000  0.50000  1.0000
  Mg  Mg4       1.0  0.81100  0.82600  0.81900  1.0000
  Na  Na1       1.0  0.09290  0.82200  0.45400  1.0000
  Na  Na2       1.0  0.90700  0.17800  0.54600  1.0000
  O   O1        1.0  0.92700  0.14200  0.03330  1.0000
  O   O2        1.0  0.82900  0.78900  0.12400  1.0000
  O   O3        1.0  0.72700  0.25700  0.19000  1.0000
  O   O4        1.0  0.27400  0.74200  0.20500  1.0000
  O   O5        1.0  0.62600  0.91200  0.26900  1.0000
  O   O6        1.0  0.42800  0.14600  0.28600  1.0000
  O   O7        1.0  0.29400  0.48700  0.39000  1.0000
  O   O8        1.0  0.16600  0.20200  0.49800  1.0000
  O   O9        1.0  0.83400  0.79800  0.50200  1.0000
  O   O10       1.0  0.70600  0.51300  0.61000  1.0000
  O   O11       1.0  0.57200  0.85400  0.71400  1.0000
  O   O12       1.0  0.37400  0.08830  0.73100  1.0000
  O   O13       1.0  0.72600  0.25800  0.79500  1.0000
  O   O14       1.0  0.27300  0.74300  0.81000  1.0000
  O   O15       1.0  0.17100  0.21100  0.87600  1.0000
  O   O16       1.0  0.07260  0.85800  0.96700  1.0000
  S   S1        1.0  0.84500  0.30900  0.07610  1.0000
  S   S2        1.0  0.70500  0.73700  0.22500  1.0000
  S   S3        1.0  0.29500  0.26300  0.77500  1.0000
  S   S4        1.0  0.15500  0.69100  0.92400  1.0000
