data_image0
_chemical_formula_structural       In2N2O2Sn2
_chemical_formula_sum              "In2 N2 O2 Sn2"
_cell_length_a       3.43697
_cell_length_b       5.69902
_cell_length_c       7.31106
_cell_angle_alpha    90
_cell_angle_beta     90
_cell_angle_gamma    90

_space_group_name_H-M_alt    "P 1"
_space_group_IT_number       1

loop_
  _space_group_symop_operation_xyz
  'x, y, z'

loop_
  _atom_site_type_symbol
  _atom_site_label
  _atom_site_symmetry_multiplicity
  _atom_site_fract_x
  _atom_site_fract_y
  _atom_site_fract_z
  _atom_site_occupancy
  In  In1       1.0  1.00000  0.52700  0.39600  1.0000
  In  In2       1.0  1.00000  0.02680  0.60400  1.0000
  N   N1        1.0  0.00000  0.88800  0.32700  1.0000
  N   N2        1.0  0.00000  0.38800  0.67300  1.0000
  O   O1        1.0  0.50000  0.33100  0.31600  1.0000
  O   O2        1.0  0.50000  0.83100  0.68400  1.0000
  Sn  Sn1       1.0  0.50000  0.00812  0.16400  1.0000
  Sn  Sn2       1.0  0.50000  0.50800  0.83700  1.0000
