data_image0
_chemical_formula_structural       Bi2Pd
_chemical_formula_sum              "Bi2 Pd1"
_cell_length_a       3.39089
_cell_length_b       3.39089
_cell_length_c       6.95846
_cell_angle_alpha    104.102
_cell_angle_beta     104.102
_cell_angle_gamma    90

_space_group_name_H-M_alt    "P 1"
_space_group_IT_number       1

loop_
  _space_group_symop_operation_xyz
  'x, y, z'

loop_
  _atom_site_type_symbol
  _atom_site_label
  _atom_site_symmetry_multiplicity
  _atom_site_fract_x
  _atom_site_fract_y
  _atom_site_fract_z
  _atom_site_occupancy
  Bi  Bi1       1.0  0.63700  0.63700  0.27400  1.0000
  Bi  Bi2       1.0  0.36300  0.36300  0.72600  1.0000
  Pd  Pd1       1.0  0.00000  0.00000  0.00000  1.0000
