data_image0
_chemical_formula_structural       Be2Li2N2O2
_chemical_formula_sum              "Be2 Li2 N2 O2"
_cell_length_a       3.00599
_cell_length_b       4.05886
_cell_length_c       4.93579
_cell_angle_alpha    90
_cell_angle_beta     90
_cell_angle_gamma    90

_space_group_name_H-M_alt    "P 1"
_space_group_IT_number       1

loop_
  _space_group_symop_operation_xyz
  'x, y, z'

loop_
  _atom_site_type_symbol
  _atom_site_label
  _atom_site_symmetry_multiplicity
  _atom_site_fract_x
  _atom_site_fract_y
  _atom_site_fract_z
  _atom_site_occupancy
  Be  Be1       1.0  0.50000  0.00070  0.26600  1.0000
  Be  Be2       1.0  0.50000  0.50100  0.73400  1.0000
  Li  Li1       1.0  0.00000  0.50200  0.16900  1.0000
  Li  Li2       1.0  0.00000  0.00241  0.83100  1.0000
  N   N1        1.0  0.00000  0.99900  0.42300  1.0000
  N   N2        1.0  0.00000  0.49900  0.57700  1.0000
  O   O1        1.0  0.50000  0.25200  0.00079  1.0000
  O   O2        1.0  0.50000  0.75200  0.99900  1.0000
