data_image0
_chemical_formula_structural       Er8Ge4O20
_chemical_formula_sum              "Er8 Ge4 O20"
_cell_length_a       6.76257
_cell_length_b       8.12553
_cell_length_c       9.58887
_cell_angle_alpha    109.365
_cell_angle_beta     69.352
_cell_angle_gamma    114.591

_space_group_name_H-M_alt    "P 1"
_space_group_IT_number       1

loop_
  _space_group_symop_operation_xyz
  'x, y, z'

loop_
  _atom_site_type_symbol
  _atom_site_label
  _atom_site_symmetry_multiplicity
  _atom_site_fract_x
  _atom_site_fract_y
  _atom_site_fract_z
  _atom_site_occupancy
  Er  Er1       1.0  0.79200  0.10600  0.03670  1.0000
  Er  Er2       1.0  0.26700  0.43700  0.16300  1.0000
  Er  Er3       1.0  0.99300  0.06290  0.33700  1.0000
  Er  Er4       1.0  0.72300  0.39400  0.46300  1.0000
  Er  Er5       1.0  0.27700  0.60600  0.53700  1.0000
  Er  Er6       1.0  0.00663  0.93700  0.66300  1.0000
  Er  Er7       1.0  0.73300  0.56300  0.83700  1.0000
  Er  Er8       1.0  0.20800  0.89400  0.96300  1.0000
  Ge  Ge1       1.0  0.77900  0.56100  0.19000  1.0000
  Ge  Ge2       1.0  0.40800  0.93900  0.31000  1.0000
  Ge  Ge3       1.0  0.59200  0.06110  0.69000  1.0000
  Ge  Ge4       1.0  0.22100  0.43900  0.81000  1.0000
  O   O1        1.0  0.62900  0.45600  0.04870  1.0000
  O   O2        1.0  0.11500  0.13600  0.10100  1.0000
  O   O3        1.0  0.41800  0.96900  0.13400  1.0000
  O   O4        1.0  0.95900  0.78500  0.17500  1.0000
  O   O5        1.0  0.91700  0.40900  0.17800  1.0000
  O   O6        1.0  0.68500  0.09100  0.32200  1.0000
  O   O7        1.0  0.34900  0.71500  0.32500  1.0000
  O   O8        1.0  0.58300  0.53100  0.36600  1.0000
  O   O9        1.0  0.08050  0.36400  0.39900  1.0000
  O   O10       1.0  0.22200  0.04430  0.45100  1.0000
  O   O11       1.0  0.77800  0.95600  0.54900  1.0000
  O   O12       1.0  0.91900  0.63600  0.60100  1.0000
  O   O13       1.0  0.41700  0.46900  0.63400  1.0000
  O   O14       1.0  0.65100  0.28500  0.67500  1.0000
  O   O15       1.0  0.31500  0.90900  0.67800  1.0000
  O   O16       1.0  0.08340  0.59100  0.82200  1.0000
  O   O17       1.0  0.04060  0.21500  0.82500  1.0000
  O   O18       1.0  0.58200  0.03060  0.86600  1.0000
  O   O19       1.0  0.88500  0.86400  0.89900  1.0000
  O   O20       1.0  0.37100  0.54400  0.95100  1.0000
