data_image0
_chemical_formula_structural       Ge4O20Pr8
_chemical_formula_sum              "Ge4 O20 Pr8"
_cell_length_a       9.51713
_cell_length_b       7.30419
_cell_length_c       7.02719
_cell_angle_alpha    90
_cell_angle_beta     106.473
_cell_angle_gamma    90

_space_group_name_H-M_alt    "P 1"
_space_group_IT_number       1

loop_
  _space_group_symop_operation_xyz
  'x, y, z'

loop_
  _atom_site_type_symbol
  _atom_site_label
  _atom_site_symmetry_multiplicity
  _atom_site_fract_x
  _atom_site_fract_y
  _atom_site_fract_z
  _atom_site_occupancy
  Ge  Ge1       1.0  0.30100  0.91000  0.03040  1.0000
  Ge  Ge2       1.0  0.69900  0.41000  0.47000  1.0000
  Ge  Ge3       1.0  0.30100  0.59000  0.53000  1.0000
  Ge  Ge4       1.0  0.69900  0.09000  0.97000  1.0000
  O   O1        1.0  0.61300  0.29100  0.00044  1.0000
  O   O2        1.0  0.88900  0.13100  0.00296  1.0000
  O   O3        1.0  0.88700  0.61800  0.05800  1.0000
  O   O4        1.0  0.71200  0.91800  0.15800  1.0000
  O   O5        1.0  0.39400  0.05180  0.23100  1.0000
  O   O6        1.0  0.60600  0.55200  0.26900  1.0000
  O   O7        1.0  0.28800  0.41800  0.34200  1.0000
  O   O8        1.0  0.11300  0.11800  0.44200  1.0000
  O   O9        1.0  0.11100  0.63100  0.49700  1.0000
  O   O10       1.0  0.38700  0.79100  0.50000  1.0000
  O   O11       1.0  0.61300  0.20900  0.50000  1.0000
  O   O12       1.0  0.88900  0.36900  0.50300  1.0000
  O   O13       1.0  0.88700  0.88200  0.55800  1.0000
  O   O14       1.0  0.71200  0.58200  0.65800  1.0000
  O   O15       1.0  0.39400  0.44800  0.73100  1.0000
  O   O16       1.0  0.60600  0.94800  0.76900  1.0000
  O   O17       1.0  0.28800  0.08250  0.84200  1.0000
  O   O18       1.0  0.11300  0.38200  0.94200  1.0000
  O   O19       1.0  0.11100  0.86900  0.99700  1.0000
  O   O20       1.0  0.38700  0.70900  0.00000  1.0000
  Pr  Pr1       1.0  0.37400  0.36400  0.06210  1.0000
  Pr  Pr2       1.0  0.02310  0.37200  0.23200  1.0000
  Pr  Pr3       1.0  0.97700  0.87200  0.26800  1.0000
  Pr  Pr4       1.0  0.62600  0.86400  0.43800  1.0000
  Pr  Pr5       1.0  0.37400  0.13600  0.56200  1.0000
  Pr  Pr6       1.0  0.02310  0.12800  0.73200  1.0000
  Pr  Pr7       1.0  0.97700  0.62800  0.76800  1.0000
  Pr  Pr8       1.0  0.62600  0.63600  0.93800  1.0000
