data_image0
_chemical_formula_structural       Gd8Ge4O20
_chemical_formula_sum              "Gd8 Ge4 O20"
_cell_length_a       9.28353
_cell_length_b       7.06044
_cell_length_c       6.78744
_cell_angle_alpha    90
_cell_angle_beta     105.106
_cell_angle_gamma    90

_space_group_name_H-M_alt    "P 1"
_space_group_IT_number       1

loop_
  _space_group_symop_operation_xyz
  'x, y, z'

loop_
  _atom_site_type_symbol
  _atom_site_label
  _atom_site_symmetry_multiplicity
  _atom_site_fract_x
  _atom_site_fract_y
  _atom_site_fract_z
  _atom_site_occupancy
  Gd  Gd1       1.0  0.36700  0.36400  0.04610  1.0000
  Gd  Gd2       1.0  0.02660  0.37300  0.23100  1.0000
  Gd  Gd3       1.0  0.97300  0.87300  0.26900  1.0000
  Gd  Gd4       1.0  0.63300  0.86400  0.45400  1.0000
  Gd  Gd5       1.0  0.36700  0.13600  0.54600  1.0000
  Gd  Gd6       1.0  0.02660  0.12700  0.73100  1.0000
  Gd  Gd7       1.0  0.97300  0.62700  0.76900  1.0000
  Gd  Gd8       1.0  0.63300  0.63600  0.95400  1.0000
  Ge  Ge1       1.0  0.30200  0.90700  0.02620  1.0000
  Ge  Ge2       1.0  0.69800  0.40700  0.47400  1.0000
  Ge  Ge3       1.0  0.30200  0.59300  0.52600  1.0000
  Ge  Ge4       1.0  0.69800  0.09260  0.97400  1.0000
  O   O1        1.0  0.89300  0.13500  0.00624  1.0000
  O   O2        1.0  0.61100  0.30000  0.01080  1.0000
  O   O3        1.0  0.88800  0.61600  0.06660  1.0000
  O   O4        1.0  0.71500  0.91600  0.17100  1.0000
  O   O5        1.0  0.39500  0.06150  0.22200  1.0000
  O   O6        1.0  0.60500  0.56200  0.27800  1.0000
  O   O7        1.0  0.28500  0.41600  0.32900  1.0000
  O   O8        1.0  0.11200  0.11600  0.43300  1.0000
  O   O9        1.0  0.38900  0.80000  0.48900  1.0000
  O   O10       1.0  0.10700  0.63500  0.49400  1.0000
  O   O11       1.0  0.89300  0.36500  0.50600  1.0000
  O   O12       1.0  0.61100  0.20000  0.51100  1.0000
  O   O13       1.0  0.88800  0.88400  0.56700  1.0000
  O   O14       1.0  0.71500  0.58400  0.67100  1.0000
  O   O15       1.0  0.39500  0.43800  0.72200  1.0000
  O   O16       1.0  0.60500  0.93800  0.77800  1.0000
  O   O17       1.0  0.28500  0.08410  0.82900  1.0000
  O   O18       1.0  0.11200  0.38400  0.93300  1.0000
  O   O19       1.0  0.38900  0.70000  0.98900  1.0000
  O   O20       1.0  0.10700  0.86500  0.99400  1.0000
