data_image0
_chemical_formula_structural       Ge4O20Tm8
_chemical_formula_sum              "Ge4 O20 Tm8"
_cell_length_a       6.73715
_cell_length_b       8.1012
_cell_length_c       9.54453
_cell_angle_alpha    109.43
_cell_angle_beta     69.3332
_cell_angle_gamma    114.57

_space_group_name_H-M_alt    "P 1"
_space_group_IT_number       1

loop_
  _space_group_symop_operation_xyz
  'x, y, z'

loop_
  _atom_site_type_symbol
  _atom_site_label
  _atom_site_symmetry_multiplicity
  _atom_site_fract_x
  _atom_site_fract_y
  _atom_site_fract_z
  _atom_site_occupancy
  Ge  Ge1       1.0  0.78000  0.56200  0.19000  1.0000
  Ge  Ge2       1.0  0.40900  0.93800  0.31000  1.0000
  Ge  Ge3       1.0  0.59100  0.06150  0.69000  1.0000
  Ge  Ge4       1.0  0.22000  0.43800  0.81000  1.0000
  O   O1        1.0  0.62900  0.45600  0.04840  1.0000
  O   O2        1.0  0.11600  0.13600  0.10100  1.0000
  O   O3        1.0  0.42000  0.97000  0.13300  1.0000
  O   O4        1.0  0.96000  0.78700  0.17500  1.0000
  O   O5        1.0  0.91700  0.40800  0.17700  1.0000
  O   O6        1.0  0.68600  0.09180  0.32300  1.0000
  O   O7        1.0  0.34800  0.71300  0.32500  1.0000
  O   O8        1.0  0.58400  0.53000  0.36700  1.0000
  O   O9        1.0  0.08080  0.36400  0.39900  1.0000
  O   O10       1.0  0.22100  0.04410  0.45200  1.0000
  O   O11       1.0  0.77900  0.95600  0.54800  1.0000
  O   O12       1.0  0.91900  0.63600  0.60100  1.0000
  O   O13       1.0  0.41600  0.47000  0.63300  1.0000
  O   O14       1.0  0.65200  0.28700  0.67500  1.0000
  O   O15       1.0  0.31400  0.90800  0.67700  1.0000
  O   O16       1.0  0.08270  0.59200  0.82300  1.0000
  O   O17       1.0  0.03970  0.21300  0.82500  1.0000
  O   O18       1.0  0.58000  0.03050  0.86700  1.0000
  O   O19       1.0  0.88400  0.86400  0.89900  1.0000
  O   O20       1.0  0.37100  0.54400  0.95200  1.0000
  Tm  Tm1       1.0  0.79200  0.10600  0.03640  1.0000
  Tm  Tm2       1.0  0.26700  0.43600  0.16300  1.0000
  Tm  Tm3       1.0  0.99300  0.06370  0.33700  1.0000
  Tm  Tm4       1.0  0.72300  0.39400  0.46400  1.0000
  Tm  Tm5       1.0  0.27700  0.60600  0.53600  1.0000
  Tm  Tm6       1.0  0.00666  0.93600  0.66300  1.0000
  Tm  Tm7       1.0  0.73300  0.56400  0.83700  1.0000
  Tm  Tm8       1.0  0.20800  0.89400  0.96400  1.0000
