data_image0
_chemical_formula_structural       Dy2O7Si2
_chemical_formula_sum              "Dy2 O7 Si2"
_cell_length_a       4.70777
_cell_length_b       5.65498
_cell_length_c       5.65498
_cell_angle_alpha    105.411
_cell_angle_beta     97.3132
_cell_angle_gamma    97.3132

_space_group_name_H-M_alt    "P 1"
_space_group_IT_number       1

loop_
  _space_group_symop_operation_xyz
  'x, y, z'

loop_
  _atom_site_type_symbol
  _atom_site_label
  _atom_site_symmetry_multiplicity
  _atom_site_fract_x
  _atom_site_fract_y
  _atom_site_fract_z
  _atom_site_occupancy
  Dy  Dy1       1.0  0.00000  0.69400  0.30600  1.0000
  Dy  Dy2       1.0  0.00000  0.30600  0.69400  1.0000
  O   O1        1.0  0.50000  0.00000  0.00000  1.0000
  O   O2        1.0  0.22000  0.38600  0.08610  1.0000
  O   O3        1.0  0.71500  0.38300  0.38300  1.0000
  O   O4        1.0  0.22000  0.08610  0.38600  1.0000
  O   O5        1.0  0.78000  0.91400  0.61400  1.0000
  O   O6        1.0  0.28500  0.61700  0.61700  1.0000
  O   O7        1.0  0.78000  0.61400  0.91400  1.0000
  Si  Si1       1.0  0.41000  0.21900  0.21900  1.0000
  Si  Si2       1.0  0.59000  0.78100  0.78100  1.0000
