data_image0
_chemical_formula_structural       Gd8Ge8O28
_chemical_formula_sum              "Gd8 Ge8 O28"
_cell_length_a       6.83329
_cell_length_b       6.83329
_cell_length_c       12.4658
_cell_angle_alpha    90
_cell_angle_beta     90
_cell_angle_gamma    90

_space_group_name_H-M_alt    "P 1"
_space_group_IT_number       1

loop_
  _space_group_symop_operation_xyz
  'x, y, z'

loop_
  _atom_site_type_symbol
  _atom_site_label
  _atom_site_symmetry_multiplicity
  _atom_site_fract_x
  _atom_site_fract_y
  _atom_site_fract_z
  _atom_site_occupancy
  Gd  Gd1       1.0  0.62500  0.85200  0.11500  1.0000
  Gd  Gd2       1.0  0.87500  0.35200  0.13500  1.0000
  Gd  Gd3       1.0  0.64800  0.12500  0.36500  1.0000
  Gd  Gd4       1.0  0.14800  0.37500  0.38500  1.0000
  Gd  Gd5       1.0  0.37500  0.14800  0.61500  1.0000
  Gd  Gd6       1.0  0.12500  0.64800  0.63500  1.0000
  Gd  Gd7       1.0  0.35200  0.87500  0.86500  1.0000
  Gd  Gd8       1.0  0.85200  0.62500  0.88500  1.0000
  Ge  Ge1       1.0  0.10200  0.84700  0.12000  1.0000
  Ge  Ge2       1.0  0.39800  0.34700  0.13000  1.0000
  Ge  Ge3       1.0  0.65300  0.60200  0.37000  1.0000
  Ge  Ge4       1.0  0.15300  0.89800  0.38000  1.0000
  Ge  Ge5       1.0  0.89800  0.15300  0.62000  1.0000
  Ge  Ge6       1.0  0.60200  0.65300  0.63000  1.0000
  Ge  Ge7       1.0  0.34700  0.39800  0.87000  1.0000
  Ge  Ge8       1.0  0.84700  0.10200  0.88000  1.0000
  O   O1        1.0  0.29900  0.29900  0.00000  1.0000
  O   O2        1.0  0.31600  0.85600  0.04470  1.0000
  O   O3        1.0  0.93800  0.66200  0.07160  1.0000
  O   O4        1.0  0.92500  0.03120  0.12400  1.0000
  O   O5        1.0  0.57500  0.53100  0.12600  1.0000
  O   O6        1.0  0.56200  0.16200  0.17800  1.0000
  O   O7        1.0  0.18400  0.35600  0.20500  1.0000
  O   O8        1.0  0.20100  0.79900  0.25000  1.0000
  O   O9        1.0  0.64400  0.81600  0.29500  1.0000
  O   O10       1.0  0.83800  0.43800  0.32200  1.0000
  O   O11       1.0  0.46900  0.42500  0.37400  1.0000
  O   O12       1.0  0.96900  0.07500  0.37600  1.0000
  O   O13       1.0  0.33800  0.06250  0.42800  1.0000
  O   O14       1.0  0.14400  0.68400  0.45500  1.0000
  O   O15       1.0  0.70100  0.70100  0.50000  1.0000
  O   O16       1.0  0.68400  0.14400  0.54500  1.0000
  O   O17       1.0  0.06250  0.33800  0.57200  1.0000
  O   O18       1.0  0.07500  0.96900  0.62400  1.0000
  O   O19       1.0  0.42500  0.46900  0.62600  1.0000
  O   O20       1.0  0.43800  0.83800  0.67800  1.0000
  O   O21       1.0  0.81600  0.64400  0.70500  1.0000
  O   O22       1.0  0.79900  0.20100  0.75000  1.0000
  O   O23       1.0  0.35600  0.18400  0.79500  1.0000
  O   O24       1.0  0.16200  0.56200  0.82200  1.0000
  O   O25       1.0  0.53100  0.57500  0.87400  1.0000
  O   O26       1.0  0.03120  0.92500  0.87600  1.0000
  O   O27       1.0  0.66200  0.93800  0.92800  1.0000
  O   O28       1.0  0.85600  0.31600  0.95500  1.0000
