data_image0
_chemical_formula_structural       Ce2Ni2Si4
_chemical_formula_sum              "Ce2 Ni2 Si4"
_cell_length_a       4.10221
_cell_length_b       4.2136
_cell_length_c       8.51835
_cell_angle_alpha    75.6807
_cell_angle_beta     90
_cell_angle_gamma    90

_space_group_name_H-M_alt    "P 1"
_space_group_IT_number       1

loop_
  _space_group_symop_operation_xyz
  'x, y, z'

loop_
  _atom_site_type_symbol
  _atom_site_label
  _atom_site_symmetry_multiplicity
  _atom_site_fract_x
  _atom_site_fract_y
  _atom_site_fract_z
  _atom_site_occupancy
  Ce  Ce1       1.0  0.25000  0.89400  0.21300  1.0000
  Ce  Ce2       1.0  0.75000  0.10600  0.78700  1.0000
  Ni  Ni1       1.0  0.75000  0.31700  0.36500  1.0000
  Ni  Ni2       1.0  0.25000  0.68300  0.63500  1.0000
  Si  Si1       1.0  0.75000  0.45900  0.08190  1.0000
  Si  Si2       1.0  0.75000  0.75000  0.50000  1.0000
  Si  Si3       1.0  0.25000  0.25000  0.50000  1.0000
  Si  Si4       1.0  0.25000  0.54100  0.91800  1.0000
