data_image0
_chemical_formula_structural       O2S2Tl2Yb2
_chemical_formula_sum              "O2 S2 Tl2 Yb2"
_cell_length_a       4.41161
_cell_length_b       6.91124
_cell_length_c       6.24023
_cell_angle_alpha    90
_cell_angle_beta     90
_cell_angle_gamma    90

_space_group_name_H-M_alt    "P 1"
_space_group_IT_number       1

loop_
  _space_group_symop_operation_xyz
  'x, y, z'

loop_
  _atom_site_type_symbol
  _atom_site_label
  _atom_site_symmetry_multiplicity
  _atom_site_fract_x
  _atom_site_fract_y
  _atom_site_fract_z
  _atom_site_occupancy
  O   O1        1.0  0.50000  0.14000  0.17800  1.0000
  O   O2        1.0  0.50000  0.86000  0.67800  1.0000
  S   S1        1.0  0.00000  0.66200  0.17600  1.0000
  S   S2        1.0  0.00000  0.33800  0.67600  1.0000
  Tl  Tl1       1.0  0.00000  0.27300  0.10700  1.0000
  Tl  Tl2       1.0  0.00000  0.72700  0.60700  1.0000
  Yb  Yb1       1.0  0.50000  0.85000  0.03080  1.0000
  Yb  Yb2       1.0  0.50000  0.15000  0.53100  1.0000
