data_image0
_chemical_formula_structural       Dy2Ge2H4O8
_chemical_formula_sum              "Dy2 Ge2 H4 O8"
_cell_length_a       6.24
_cell_length_b       6.24
_cell_length_c       6.24
_cell_angle_alpha    114.887
_cell_angle_beta     99.1105
_cell_angle_gamma    114.887

_space_group_name_H-M_alt    "P 1"
_space_group_IT_number       1

loop_
  _space_group_symop_operation_xyz
  'x, y, z'

loop_
  _atom_site_type_symbol
  _atom_site_label
  _atom_site_symmetry_multiplicity
  _atom_site_fract_x
  _atom_site_fract_y
  _atom_site_fract_z
  _atom_site_occupancy
  Dy  Dy1       1.0  0.50000  0.00000  0.50000  1.0000
  Dy  Dy2       1.0  0.25000  0.50000  0.75000  1.0000
  Ge  Ge1       1.0  0.00000  0.00000  0.00000  1.0000
  Ge  Ge2       1.0  0.75000  0.50000  0.25000  1.0000
  H   H1        1.0  0.51900  0.50000  0.01880  1.0000
  H   H2        1.0  0.23100  0.00000  0.23100  1.0000
  H   H3        1.0  0.98100  0.50000  0.48100  1.0000
  H   H4        1.0  0.76900  0.00000  0.76900  1.0000
  O   O1        1.0  0.19600  0.82000  0.02760  1.0000
  O   O2        1.0  0.54300  0.66800  0.22200  1.0000
  O   O3        1.0  0.20700  0.18000  0.37600  1.0000
  O   O4        1.0  0.77800  0.32000  0.44600  1.0000
  O   O5        1.0  0.12600  0.68000  0.45700  1.0000
  O   O6        1.0  0.97200  0.16800  0.79300  1.0000
  O   O7        1.0  0.62400  0.83200  0.80400  1.0000
  O   O8        1.0  0.55400  0.33200  0.87400  1.0000
