data_image0
_chemical_formula_structural       FeO4Sr2
_chemical_formula_sum              "Fe1 O4 Sr2"
_cell_length_a       3.84731
_cell_length_b       3.84731
_cell_length_c       6.77264
_cell_angle_alpha    106.501
_cell_angle_beta     106.501
_cell_angle_gamma    90

_space_group_name_H-M_alt    "P 1"
_space_group_IT_number       1

loop_
  _space_group_symop_operation_xyz
  'x, y, z'

loop_
  _atom_site_type_symbol
  _atom_site_label
  _atom_site_symmetry_multiplicity
  _atom_site_fract_x
  _atom_site_fract_y
  _atom_site_fract_z
  _atom_site_occupancy
  Fe  Fe1       1.0  0.00000  0.00000  0.00000  1.0000
  O   O1        1.0  0.50000  0.00000  0.00000  1.0000
  O   O2        1.0  0.00000  0.50000  0.00000  1.0000
  O   O3        1.0  0.15800  0.15800  0.31600  1.0000
  O   O4        1.0  0.84200  0.84200  0.68400  1.0000
  Sr  Sr1       1.0  0.64300  0.64300  0.28600  1.0000
  Sr  Sr2       1.0  0.35700  0.35700  0.71400  1.0000
