data_image0
_chemical_formula_structural       As2GeTe4
_chemical_formula_sum              "As2 Ge1 Te4"
_cell_length_a       4.15233
_cell_length_b       4.15233
_cell_length_c       13.3889
_cell_angle_alpha    98.9207
_cell_angle_beta     81.0793
_cell_angle_gamma    120

_space_group_name_H-M_alt    "P 1"
_space_group_IT_number       1

loop_
  _space_group_symop_operation_xyz
  'x, y, z'

loop_
  _atom_site_type_symbol
  _atom_site_label
  _atom_site_symmetry_multiplicity
  _atom_site_fract_x
  _atom_site_fract_y
  _atom_site_fract_z
  _atom_site_occupancy
  As  As1       1.0  0.57500  0.42500  0.27500  1.0000
  As  As2       1.0  0.42500  0.57500  0.72500  1.0000
  Ge  Ge1       1.0  0.00000  0.00000  0.00000  1.0000
  Te  Te1       1.0  0.28900  0.71100  0.13400  1.0000
  Te  Te2       1.0  0.86900  0.13100  0.39300  1.0000
  Te  Te3       1.0  0.13100  0.86900  0.60700  1.0000
  Te  Te4       1.0  0.71100  0.28900  0.86600  1.0000
