data_image0
_chemical_formula_structural       Er2Ge2H2O8
_chemical_formula_sum              "Er2 Ge2 H2 O8"
_cell_length_a       5.11653
_cell_length_b       6.51051
_cell_length_c       4.5182
_cell_angle_alpha    90
_cell_angle_beta     97.6422
_cell_angle_gamma    90

_space_group_name_H-M_alt    "P 1"
_space_group_IT_number       1

loop_
  _space_group_symop_operation_xyz
  'x, y, z'

loop_
  _atom_site_type_symbol
  _atom_site_label
  _atom_site_symmetry_multiplicity
  _atom_site_fract_x
  _atom_site_fract_y
  _atom_site_fract_z
  _atom_site_occupancy
  Er  Er1       1.0  0.20300  0.25000  0.05750  1.0000
  Er  Er2       1.0  0.79700  0.75000  0.94300  1.0000
  Ge  Ge1       1.0  0.31800  0.75000  0.43300  1.0000
  Ge  Ge2       1.0  0.68200  0.25000  0.56700  1.0000
  H   H1        1.0  0.00000  0.00000  0.50000  1.0000
  H   H2        1.0  0.00000  0.50000  0.50000  1.0000
  O   O1        1.0  0.65600  0.25000  0.17600  1.0000
  O   O2        1.0  0.10000  0.54700  0.27900  1.0000
  O   O3        1.0  0.10000  0.95300  0.27900  1.0000
  O   O4        1.0  0.64300  0.75000  0.37300  1.0000
  O   O5        1.0  0.35700  0.25000  0.62700  1.0000
  O   O6        1.0  0.90000  0.04750  0.72100  1.0000
  O   O7        1.0  0.90000  0.45300  0.72100  1.0000
  O   O8        1.0  0.34400  0.75000  0.82400  1.0000
