data_image0
_chemical_formula_structural       Li8Mg4Mn12O32
_chemical_formula_sum              "Li8 Mg4 Mn12 O32"
_cell_length_a       8.18322
_cell_length_b       8.18322
_cell_length_c       8.18322
_cell_angle_alpha    90
_cell_angle_beta     90
_cell_angle_gamma    90

_space_group_name_H-M_alt    "P 1"
_space_group_IT_number       1

loop_
  _space_group_symop_operation_xyz
  'x, y, z'

loop_
  _atom_site_type_symbol
  _atom_site_label
  _atom_site_symmetry_multiplicity
  _atom_site_fract_x
  _atom_site_fract_y
  _atom_site_fract_z
  _atom_site_occupancy
  Li  Li1       1.0  0.00318  0.00318  0.00318  1.0000
  Li  Li2       1.0  0.24700  0.24700  0.24700  1.0000
  Li  Li3       1.0  0.75300  0.74700  0.25300  1.0000
  Li  Li4       1.0  0.99700  0.50300  0.49700  1.0000
  Li  Li5       1.0  0.49700  0.99700  0.50300  1.0000
  Li  Li6       1.0  0.25300  0.75300  0.74700  1.0000
  Li  Li7       1.0  0.74700  0.25300  0.75300  1.0000
  Li  Li8       1.0  0.50300  0.49700  0.99700  1.0000
  Mg  Mg1       1.0  0.87500  0.37500  0.12500  1.0000
  Mg  Mg2       1.0  0.12500  0.87500  0.37500  1.0000
  Mg  Mg3       1.0  0.62500  0.62500  0.62500  1.0000
  Mg  Mg4       1.0  0.37500  0.12500  0.87500  1.0000
  Mn  Mn1       1.0  0.12900  0.62500  0.12100  1.0000
  Mn  Mn2       1.0  0.37900  0.87100  0.12500  1.0000
  Mn  Mn3       1.0  0.62500  0.12100  0.12900  1.0000
  Mn  Mn4       1.0  0.37500  0.62100  0.37100  1.0000
  Mn  Mn5       1.0  0.62100  0.37100  0.37500  1.0000
  Mn  Mn6       1.0  0.87100  0.12500  0.37900  1.0000
  Mn  Mn7       1.0  0.37100  0.37500  0.62100  1.0000
  Mn  Mn8       1.0  0.12100  0.12900  0.62500  1.0000
  Mn  Mn9       1.0  0.87500  0.87900  0.62900  1.0000
  Mn  Mn10      1.0  0.12500  0.37900  0.87100  1.0000
  Mn  Mn11      1.0  0.87900  0.62900  0.87500  1.0000
  Mn  Mn12      1.0  0.62900  0.87500  0.87900  1.0000
  O   O1        1.0  0.12500  0.39100  0.10200  1.0000
  O   O2        1.0  0.89800  0.62500  0.10900  1.0000
  O   O3        1.0  0.61600  0.88400  0.11600  1.0000
  O   O4        1.0  0.14800  0.85900  0.12500  1.0000
  O   O5        1.0  0.39100  0.10200  0.12500  1.0000
  O   O6        1.0  0.36600  0.63400  0.13400  1.0000
  O   O7        1.0  0.62500  0.35200  0.14100  1.0000
  O   O8        1.0  0.85900  0.12500  0.14800  1.0000
  O   O9        1.0  0.14100  0.62500  0.35200  1.0000
  O   O10       1.0  0.37500  0.85200  0.35900  1.0000
  O   O11       1.0  0.63400  0.13400  0.36600  1.0000
  O   O12       1.0  0.60900  0.60200  0.37500  1.0000
  O   O13       1.0  0.85200  0.35900  0.37500  1.0000
  O   O14       1.0  0.38400  0.38400  0.38400  1.0000
  O   O15       1.0  0.10200  0.12500  0.39100  1.0000
  O   O16       1.0  0.87500  0.89100  0.39800  1.0000
  O   O17       1.0  0.37500  0.60900  0.60200  1.0000
  O   O18       1.0  0.60200  0.37500  0.60900  1.0000
  O   O19       1.0  0.88400  0.11600  0.61600  1.0000
  O   O20       1.0  0.35200  0.14100  0.62500  1.0000
  O   O21       1.0  0.10900  0.89800  0.62500  1.0000
  O   O22       1.0  0.13400  0.36600  0.63400  1.0000
  O   O23       1.0  0.87500  0.64800  0.64100  1.0000
  O   O24       1.0  0.64100  0.87500  0.64800  1.0000
  O   O25       1.0  0.35900  0.37500  0.85200  1.0000
  O   O26       1.0  0.12500  0.14800  0.85900  1.0000
  O   O27       1.0  0.86600  0.86600  0.86600  1.0000
  O   O28       1.0  0.89100  0.39800  0.87500  1.0000
  O   O29       1.0  0.64800  0.64100  0.87500  1.0000
  O   O30       1.0  0.11600  0.61600  0.88400  1.0000
  O   O31       1.0  0.39800  0.87500  0.89100  1.0000
  O   O32       1.0  0.62500  0.10900  0.89800  1.0000
