data_image0
_chemical_formula_structural       Lu8O16Si4
_chemical_formula_sum              "Lu8 O16 Si4"
_cell_length_a       6.39355
_cell_length_b       5.44824
_cell_length_c       9.5756
_cell_angle_alpha    90
_cell_angle_beta     90
_cell_angle_gamma    90

_space_group_name_H-M_alt    "P 1"
_space_group_IT_number       1

loop_
  _space_group_symop_operation_xyz
  'x, y, z'

loop_
  _atom_site_type_symbol
  _atom_site_label
  _atom_site_symmetry_multiplicity
  _atom_site_fract_x
  _atom_site_fract_y
  _atom_site_fract_z
  _atom_site_occupancy
  Lu  Lu1       1.0  0.10700  0.25000  0.04450  1.0000
  Lu  Lu2       1.0  0.47100  0.75000  0.18900  1.0000
  Lu  Lu3       1.0  0.97100  0.75000  0.31100  1.0000
  Lu  Lu4       1.0  0.60700  0.25000  0.45600  1.0000
  Lu  Lu5       1.0  0.39300  0.75000  0.54400  1.0000
  Lu  Lu6       1.0  0.02920  0.25000  0.68900  1.0000
  Lu  Lu7       1.0  0.52900  0.25000  0.81100  1.0000
  Lu  Lu8       1.0  0.89300  0.75000  0.95600  1.0000
  O   O1        1.0  0.45900  0.25000  0.05080  1.0000
  O   O2        1.0  0.15900  0.75000  0.12200  1.0000
  O   O3        1.0  0.81400  0.00374  0.12900  1.0000
  O   O4        1.0  0.81400  0.49600  0.12900  1.0000
  O   O5        1.0  0.31400  0.00374  0.37100  1.0000
  O   O6        1.0  0.31400  0.49600  0.37100  1.0000
  O   O7        1.0  0.65900  0.75000  0.37800  1.0000
  O   O8        1.0  0.95900  0.25000  0.44900  1.0000
  O   O9        1.0  0.04140  0.75000  0.55100  1.0000
  O   O10       1.0  0.34100  0.25000  0.62200  1.0000
  O   O11       1.0  0.68600  0.50400  0.62900  1.0000
  O   O12       1.0  0.68600  0.99600  0.62900  1.0000
  O   O13       1.0  0.18600  0.50400  0.87100  1.0000
  O   O14       1.0  0.18600  0.99600  0.87100  1.0000
  O   O15       1.0  0.84100  0.25000  0.87800  1.0000
  O   O16       1.0  0.54100  0.75000  0.94900  1.0000
  Si  Si1       1.0  0.66000  0.25000  0.16500  1.0000
  Si  Si2       1.0  0.16000  0.25000  0.33500  1.0000
  Si  Si3       1.0  0.84000  0.75000  0.66500  1.0000
  Si  Si4       1.0  0.34000  0.75000  0.83500  1.0000
