data_image0
_chemical_formula_structural       O2S2Tb2Tl2
_chemical_formula_sum              "O2 S2 Tb2 Tl2"
_cell_length_a       4.42069
_cell_length_b       7.97996
_cell_length_c       6.47618
_cell_angle_alpha    90
_cell_angle_beta     90
_cell_angle_gamma    90

_space_group_name_H-M_alt    "P 1"
_space_group_IT_number       1

loop_
  _space_group_symop_operation_xyz
  'x, y, z'

loop_
  _atom_site_type_symbol
  _atom_site_label
  _atom_site_symmetry_multiplicity
  _atom_site_fract_x
  _atom_site_fract_y
  _atom_site_fract_z
  _atom_site_occupancy
  O   O1        1.0  0.50000  0.08320  0.22400  1.0000
  O   O2        1.0  0.50000  0.91700  0.72400  1.0000
  S   S1        1.0  0.00000  0.68800  0.11600  1.0000
  S   S2        1.0  0.00000  0.31200  0.61600  1.0000
  Tb  Tb1       1.0  0.50000  0.86300  0.04350  1.0000
  Tb  Tb2       1.0  0.50000  0.13700  0.54300  1.0000
  Tl  Tl1       1.0  0.00000  0.30000  0.10700  1.0000
  Tl  Tl2       1.0  0.00000  0.70000  0.60700  1.0000
