data_image0
_chemical_formula_structural       Fe2Hg2O2S2
_chemical_formula_sum              "Fe2 Hg2 O2 S2"
_cell_length_a       3.53617
_cell_length_b       3.54193
_cell_length_c       12.4124
_cell_angle_alpha    90
_cell_angle_beta     90
_cell_angle_gamma    119.946

_space_group_name_H-M_alt    "P 1"
_space_group_IT_number       1

loop_
  _space_group_symop_operation_xyz
  'x, y, z'

loop_
  _atom_site_type_symbol
  _atom_site_label
  _atom_site_symmetry_multiplicity
  _atom_site_fract_x
  _atom_site_fract_y
  _atom_site_fract_z
  _atom_site_occupancy
  Fe  Fe1       1.0  0.33200  0.66400  0.25700  1.0000
  Fe  Fe2       1.0  0.66800  0.33600  0.75700  1.0000
  Hg  Hg1       1.0  0.00240  0.00481  0.49100  1.0000
  Hg  Hg2       1.0  0.99800  0.99500  0.99100  1.0000
  O   O1        1.0  0.00443  0.00885  0.31600  1.0000
  O   O2        1.0  0.99600  0.99100  0.81600  1.0000
  S   S1        1.0  0.66500  0.33000  0.12400  1.0000
  S   S2        1.0  0.33500  0.67000  0.62400  1.0000
