data_image0
_chemical_formula_structural       H2Nd2O8Si2
_chemical_formula_sum              "H2 Nd2 O8 Si2"
_cell_length_a       5.0148
_cell_length_b       6.73593
_cell_length_c       4.57075
_cell_angle_alpha    90
_cell_angle_beta     96.95
_cell_angle_gamma    90

_space_group_name_H-M_alt    "P 1"
_space_group_IT_number       1

loop_
  _space_group_symop_operation_xyz
  'x, y, z'

loop_
  _atom_site_type_symbol
  _atom_site_label
  _atom_site_symmetry_multiplicity
  _atom_site_fract_x
  _atom_site_fract_y
  _atom_site_fract_z
  _atom_site_occupancy
  H   H1        1.0  0.00000  0.00000  0.50000  1.0000
  H   H2        1.0  0.00000  0.50000  0.50000  1.0000
  Nd  Nd1       1.0  0.20900  0.25000  0.06910  1.0000
  Nd  Nd2       1.0  0.79100  0.75000  0.93100  1.0000
  O   O1        1.0  0.70300  0.25000  0.20400  1.0000
  O   O2        1.0  0.11300  0.56000  0.29600  1.0000
  O   O3        1.0  0.11300  0.94000  0.29600  1.0000
  O   O4        1.0  0.60600  0.75000  0.37500  1.0000
  O   O5        1.0  0.39400  0.25000  0.62500  1.0000
  O   O6        1.0  0.88700  0.05990  0.70400  1.0000
  O   O7        1.0  0.88700  0.44000  0.70400  1.0000
  O   O8        1.0  0.29700  0.75000  0.79600  1.0000
  Si  Si1       1.0  0.29800  0.75000  0.44100  1.0000
  Si  Si2       1.0  0.70200  0.25000  0.55900  1.0000
