data_image0
_chemical_formula_structural       Dy2O2S2Tl2
_chemical_formula_sum              "Dy2 O2 S2 Tl2"
_cell_length_a       4.38441
_cell_length_b       8.02019
_cell_length_c       6.45369
_cell_angle_alpha    90
_cell_angle_beta     90
_cell_angle_gamma    90

_space_group_name_H-M_alt    "P 1"
_space_group_IT_number       1

loop_
  _space_group_symop_operation_xyz
  'x, y, z'

loop_
  _atom_site_type_symbol
  _atom_site_label
  _atom_site_symmetry_multiplicity
  _atom_site_fract_x
  _atom_site_fract_y
  _atom_site_fract_z
  _atom_site_occupancy
  Dy  Dy1       1.0  0.50000  0.86600  0.04440  1.0000
  Dy  Dy2       1.0  0.50000  0.13400  0.54400  1.0000
  O   O1        1.0  0.50000  0.08450  0.22500  1.0000
  O   O2        1.0  0.50000  0.91600  0.72500  1.0000
  S   S1        1.0  0.00000  0.69000  0.11000  1.0000
  S   S2        1.0  0.00000  0.31000  0.61000  1.0000
  Tl  Tl1       1.0  0.00000  0.30400  0.11100  1.0000
  Tl  Tl2       1.0  0.00000  0.69600  0.61100  1.0000
