data_image0
_chemical_formula_structural       Ce8Ge4O20
_chemical_formula_sum              "Ce8 Ge4 O20"
_cell_length_a       9.58359
_cell_length_b       7.37084
_cell_length_c       7.09418
_cell_angle_alpha    90
_cell_angle_beta     106.765
_cell_angle_gamma    90

_space_group_name_H-M_alt    "P 1"
_space_group_IT_number       1

loop_
  _space_group_symop_operation_xyz
  'x, y, z'

loop_
  _atom_site_type_symbol
  _atom_site_label
  _atom_site_symmetry_multiplicity
  _atom_site_fract_x
  _atom_site_fract_y
  _atom_site_fract_z
  _atom_site_occupancy
  Ce  Ce1       1.0  0.37600  0.36300  0.06700  1.0000
  Ce  Ce2       1.0  0.02250  0.37200  0.23300  1.0000
  Ce  Ce3       1.0  0.97800  0.87200  0.26700  1.0000
  Ce  Ce4       1.0  0.62400  0.86300  0.43300  1.0000
  Ce  Ce5       1.0  0.37600  0.13700  0.56700  1.0000
  Ce  Ce6       1.0  0.02250  0.12800  0.73300  1.0000
  Ce  Ce7       1.0  0.97800  0.62800  0.76700  1.0000
  Ce  Ce8       1.0  0.62400  0.63700  0.93300  1.0000
  Ge  Ge1       1.0  0.30100  0.91100  0.03200  1.0000
  Ge  Ge2       1.0  0.69900  0.41100  0.46800  1.0000
  Ge  Ge3       1.0  0.30100  0.58900  0.53200  1.0000
  Ge  Ge4       1.0  0.69900  0.08940  0.96800  1.0000
  O   O1        1.0  0.88900  0.13100  0.00251  1.0000
  O   O2        1.0  0.38800  0.71100  0.00612  1.0000
  O   O3        1.0  0.88600  0.61800  0.05610  1.0000
  O   O4        1.0  0.71200  0.91900  0.15500  1.0000
  O   O5        1.0  0.39100  0.04990  0.23300  1.0000
  O   O6        1.0  0.60900  0.55000  0.26700  1.0000
  O   O7        1.0  0.28800  0.41900  0.34500  1.0000
  O   O8        1.0  0.11400  0.11800  0.44400  1.0000
  O   O9        1.0  0.61200  0.21100  0.49400  1.0000
  O   O10       1.0  0.11100  0.63100  0.49700  1.0000
  O   O11       1.0  0.88900  0.36900  0.50300  1.0000
  O   O12       1.0  0.38800  0.78900  0.50600  1.0000
  O   O13       1.0  0.88600  0.88200  0.55600  1.0000
  O   O14       1.0  0.71200  0.58100  0.65500  1.0000
  O   O15       1.0  0.39100  0.45000  0.73300  1.0000
  O   O16       1.0  0.60900  0.95000  0.76700  1.0000
  O   O17       1.0  0.28800  0.08130  0.84500  1.0000
  O   O18       1.0  0.11400  0.38200  0.94400  1.0000
  O   O19       1.0  0.61200  0.28900  0.99400  1.0000
  O   O20       1.0  0.11100  0.86900  0.99700  1.0000
