data_image0
_chemical_formula_structural       Ge4Lu8O20
_chemical_formula_sum              "Ge4 Lu8 O20"
_cell_length_a       6.68038
_cell_length_b       8.04322
_cell_length_c       9.46069
_cell_angle_alpha    109.644
_cell_angle_beta     69.3254
_cell_angle_gamma    114.537

_space_group_name_H-M_alt    "P 1"
_space_group_IT_number       1

loop_
  _space_group_symop_operation_xyz
  'x, y, z'

loop_
  _atom_site_type_symbol
  _atom_site_label
  _atom_site_symmetry_multiplicity
  _atom_site_fract_x
  _atom_site_fract_y
  _atom_site_fract_z
  _atom_site_occupancy
  Ge  Ge1       1.0  0.78100  0.56200  0.19000  1.0000
  Ge  Ge2       1.0  0.40900  0.93800  0.31000  1.0000
  Ge  Ge3       1.0  0.59100  0.06220  0.69000  1.0000
  Ge  Ge4       1.0  0.21900  0.43800  0.81000  1.0000
  Lu  Lu1       1.0  0.79300  0.10500  0.03550  1.0000
  Lu  Lu2       1.0  0.26600  0.43500  0.16300  1.0000
  Lu  Lu3       1.0  0.99400  0.06520  0.33700  1.0000
  Lu  Lu4       1.0  0.72400  0.39500  0.46500  1.0000
  Lu  Lu5       1.0  0.27600  0.60500  0.53500  1.0000
  Lu  Lu6       1.0  0.00594  0.93500  0.66300  1.0000
  Lu  Lu7       1.0  0.73400  0.56500  0.83700  1.0000
  Lu  Lu8       1.0  0.20700  0.89500  0.96500  1.0000
  O   O1        1.0  0.62800  0.45600  0.04750  1.0000
  O   O2        1.0  0.11700  0.13700  0.10100  1.0000
  O   O3        1.0  0.42200  0.97000  0.13200  1.0000
  O   O4        1.0  0.91900  0.40700  0.17500  1.0000
  O   O5        1.0  0.96200  0.78900  0.17500  1.0000
  O   O6        1.0  0.34800  0.71100  0.32500  1.0000
  O   O7        1.0  0.68700  0.09290  0.32500  1.0000
  O   O8        1.0  0.58400  0.53000  0.36800  1.0000
  O   O9        1.0  0.08180  0.36300  0.39900  1.0000
  O   O10       1.0  0.21900  0.04400  0.45200  1.0000
  O   O11       1.0  0.78100  0.95600  0.54700  1.0000
  O   O12       1.0  0.91800  0.63700  0.60100  1.0000
  O   O13       1.0  0.41600  0.47000  0.63200  1.0000
  O   O14       1.0  0.31300  0.90700  0.67500  1.0000
  O   O15       1.0  0.65200  0.28900  0.67500  1.0000
  O   O16       1.0  0.03810  0.21100  0.82500  1.0000
  O   O17       1.0  0.08120  0.59300  0.82500  1.0000
  O   O18       1.0  0.57800  0.03050  0.86800  1.0000
  O   O19       1.0  0.88300  0.86300  0.89900  1.0000
  O   O20       1.0  0.37200  0.54400  0.95200  1.0000
