data_image0
_chemical_formula_structural       Br6W
_chemical_formula_sum              "Br6 W1"
_cell_length_a       6.43731
_cell_length_b       6.43731
_cell_length_c       6.95416
_cell_angle_alpha    117.57
_cell_angle_beta     62.4296
_cell_angle_gamma    120

_space_group_name_H-M_alt    "P 1"
_space_group_IT_number       1

loop_
  _space_group_symop_operation_xyz
  'x, y, z'

loop_
  _atom_site_type_symbol
  _atom_site_label
  _atom_site_symmetry_multiplicity
  _atom_site_fract_x
  _atom_site_fract_y
  _atom_site_fract_z
  _atom_site_occupancy
  Br  Br1       1.0  0.23600  0.08590  0.24300  1.0000
  Br  Br2       1.0  0.91400  0.39300  0.24300  1.0000
  Br  Br3       1.0  0.60700  0.76400  0.24300  1.0000
  Br  Br4       1.0  0.39300  0.23600  0.75700  1.0000
  Br  Br5       1.0  0.08590  0.60700  0.75700  1.0000
  Br  Br6       1.0  0.76400  0.91400  0.75700  1.0000
  W   W1        1.0  0.00000  0.00000  0.00000  1.0000
