data_image0
_chemical_formula_structural       Nd8O16Si4
_chemical_formula_sum              "Nd8 O16 Si4"
_cell_length_a       5.76277
_cell_length_b       6.96481
_cell_length_c       11.6029
_cell_angle_alpha    90
_cell_angle_beta     125.149
_cell_angle_gamma    90

_space_group_name_H-M_alt    "P 1"
_space_group_IT_number       1

loop_
  _space_group_symop_operation_xyz
  'x, y, z'

loop_
  _atom_site_type_symbol
  _atom_site_label
  _atom_site_symmetry_multiplicity
  _atom_site_fract_x
  _atom_site_fract_y
  _atom_site_fract_z
  _atom_site_occupancy
  Nd  Nd1       1.0  0.31200  0.85200  0.06840  1.0000
  Nd  Nd2       1.0  0.90400  0.48900  0.20600  1.0000
  Nd  Nd3       1.0  0.09580  0.98900  0.29400  1.0000
  Nd  Nd4       1.0  0.68800  0.35200  0.43200  1.0000
  Nd  Nd5       1.0  0.31200  0.64800  0.56800  1.0000
  Nd  Nd6       1.0  0.90400  0.01050  0.70600  1.0000
  Nd  Nd7       1.0  0.09580  0.51100  0.79400  1.0000
  Nd  Nd8       1.0  0.68800  0.14800  0.93200  1.0000
  O   O1        1.0  0.32200  0.52400  0.03920  1.0000
  O   O2        1.0  0.88600  0.81500  0.05530  1.0000
  O   O3        1.0  0.63200  0.14000  0.13000  1.0000
  O   O4        1.0  0.17900  0.24200  0.18000  1.0000
  O   O5        1.0  0.82100  0.74200  0.32000  1.0000
  O   O6        1.0  0.36800  0.64000  0.37000  1.0000
  O   O7        1.0  0.11400  0.31500  0.44500  1.0000
  O   O8        1.0  0.67800  0.02390  0.46100  1.0000
  O   O9        1.0  0.32200  0.97600  0.53900  1.0000
  O   O10       1.0  0.88600  0.68500  0.55500  1.0000
  O   O11       1.0  0.63200  0.36000  0.63000  1.0000
  O   O12       1.0  0.17900  0.25800  0.68000  1.0000
  O   O13       1.0  0.82100  0.75800  0.82000  1.0000
  O   O14       1.0  0.36800  0.86000  0.87000  1.0000
  O   O15       1.0  0.11400  0.18500  0.94500  1.0000
  O   O16       1.0  0.67800  0.47600  0.96100  1.0000
  Si  Si1       1.0  0.37900  0.30500  0.11800  1.0000
  Si  Si2       1.0  0.62100  0.80500  0.38200  1.0000
  Si  Si3       1.0  0.37900  0.19500  0.61800  1.0000
  Si  Si4       1.0  0.62100  0.69500  0.88200  1.0000
