data_image0
_chemical_formula_structural       O2S2Tl2Tm2
_chemical_formula_sum              "O2 S2 Tl2 Tm2"
_cell_length_a       4.28878
_cell_length_b       8.03054
_cell_length_c       6.42019
_cell_angle_alpha    90
_cell_angle_beta     90
_cell_angle_gamma    90

_space_group_name_H-M_alt    "P 1"
_space_group_IT_number       1

loop_
  _space_group_symop_operation_xyz
  'x, y, z'

loop_
  _atom_site_type_symbol
  _atom_site_label
  _atom_site_symmetry_multiplicity
  _atom_site_fract_x
  _atom_site_fract_y
  _atom_site_fract_z
  _atom_site_occupancy
  O   O1        1.0  0.50000  0.08300  0.22200  1.0000
  O   O2        1.0  0.50000  0.91700  0.72200  1.0000
  S   S1        1.0  0.00000  0.69900  0.11800  1.0000
  S   S2        1.0  0.00000  0.30100  0.61800  1.0000
  Tl  Tl1       1.0  0.00000  0.30600  0.11000  1.0000
  Tl  Tl2       1.0  0.00000  0.69400  0.61000  1.0000
  Tm  Tm1       1.0  0.50000  0.87100  0.03990  1.0000
  Tm  Tm2       1.0  0.50000  0.12900  0.54000  1.0000
