data_image0
_chemical_formula_structural       O28Si8Tm8
_chemical_formula_sum              "O28 Si8 Tm8"
_cell_length_a       6.45862
_cell_length_b       6.48659
_cell_length_c       11.7556
_cell_angle_alpha    94.7898
_cell_angle_beta     90.8002
_cell_angle_gamma    91.7908

_space_group_name_H-M_alt    "P 1"
_space_group_IT_number       1

loop_
  _space_group_symop_operation_xyz
  'x, y, z'

loop_
  _atom_site_type_symbol
  _atom_site_label
  _atom_site_symmetry_multiplicity
  _atom_site_fract_x
  _atom_site_fract_y
  _atom_site_fract_z
  _atom_site_occupancy
  O   O1        1.0  0.54800  0.72500  0.56700  1.0000
  O   O2        1.0  0.45200  0.27500  0.43300  1.0000
  O   O3        1.0  0.22300  0.71500  0.68900  1.0000
  O   O4        1.0  0.77700  0.28500  0.31100  1.0000
  O   O5        1.0  0.20800  0.93200  0.51300  1.0000
  O   O6        1.0  0.79200  0.06840  0.48700  1.0000
  O   O7        1.0  0.72400  0.40200  0.62900  1.0000
  O   O8        1.0  0.27600  0.59800  0.37100  1.0000
  O   O9        1.0  0.08400  0.33900  0.55600  1.0000
  O   O10       1.0  0.91600  0.66100  0.44400  1.0000
  O   O11       1.0  0.90000  0.05190  0.69600  1.0000
  O   O12       1.0  0.10000  0.94800  0.30400  1.0000
  O   O13       1.0  0.79300  0.21100  0.91000  1.0000
  O   O14       1.0  0.20700  0.78900  0.09000  1.0000
  O   O15       1.0  0.11700  0.35800  0.78400  1.0000
  O   O16       1.0  0.88300  0.64200  0.21600  1.0000
  O   O17       1.0  0.14600  0.00701  0.88100  1.0000
  O   O18       1.0  0.85400  0.99300  0.11900  1.0000
  O   O19       1.0  0.50100  0.51600  0.18400  1.0000
  O   O20       1.0  0.49900  0.48400  0.81600  1.0000
  O   O21       1.0  0.49600  0.16200  0.08240  1.0000
  O   O22       1.0  0.50400  0.83800  0.91800  1.0000
  O   O23       1.0  0.14000  0.29300  0.18800  1.0000
  O   O24       1.0  0.86000  0.70700  0.81200  1.0000
  O   O25       1.0  0.25600  0.40800  0.99300  1.0000
  O   O26       1.0  0.74400  0.59200  0.00747  1.0000
  O   O27       1.0  0.43800  0.08560  0.69000  1.0000
  O   O28       1.0  0.56200  0.91400  0.31000  1.0000
  Si  Si1       1.0  0.98600  0.16100  0.82800  1.0000
  Si  Si2       1.0  0.01420  0.83900  0.17200  1.0000
  Si  Si3       1.0  0.33700  0.35100  0.11600  1.0000
  Si  Si4       1.0  0.66300  0.64900  0.88400  1.0000
  Si  Si5       1.0  0.87900  0.22000  0.59900  1.0000
  Si  Si6       1.0  0.12100  0.78000  0.40100  1.0000
  Si  Si7       1.0  0.36500  0.87300  0.61800  1.0000
  Si  Si8       1.0  0.63500  0.12700  0.38200  1.0000
  Tm  Tm1       1.0  0.44800  0.17000  0.88500  1.0000
  Tm  Tm2       1.0  0.55200  0.83000  0.11500  1.0000
  Tm  Tm3       1.0  0.38500  0.40600  0.64100  1.0000
  Tm  Tm4       1.0  0.61500  0.59400  0.35900  1.0000
  Tm  Tm5       1.0  0.11700  0.29500  0.36900  1.0000
  Tm  Tm6       1.0  0.88300  0.70500  0.63100  1.0000
  Tm  Tm7       1.0  0.18000  0.67000  0.89000  1.0000
  Tm  Tm8       1.0  0.82000  0.33000  0.11000  1.0000
