data_image0
_chemical_formula_structural       O2Pr2S2Tl2
_chemical_formula_sum              "O2 Pr2 S2 Tl2"
_cell_length_a       4.62509
_cell_length_b       8.00263
_cell_length_c       6.57318
_cell_angle_alpha    90
_cell_angle_beta     90
_cell_angle_gamma    90

_space_group_name_H-M_alt    "P 1"
_space_group_IT_number       1

loop_
  _space_group_symop_operation_xyz
  'x, y, z'

loop_
  _atom_site_type_symbol
  _atom_site_label
  _atom_site_symmetry_multiplicity
  _atom_site_fract_x
  _atom_site_fract_y
  _atom_site_fract_z
  _atom_site_occupancy
  O   O1        1.0  0.50000  0.09610  0.20600  1.0000
  O   O2        1.0  0.50000  0.90400  0.70600  1.0000
  Pr  Pr1       1.0  0.50000  0.85600  0.03860  1.0000
  Pr  Pr2       1.0  0.50000  0.14400  0.53900  1.0000
  S   S1        1.0  0.00000  0.68700  0.14100  1.0000
  S   S2        1.0  0.00000  0.31300  0.64100  1.0000
  Tl  Tl1       1.0  0.00000  0.30500  0.10500  1.0000
  Tl  Tl2       1.0  0.00000  0.69500  0.60500  1.0000
