data_image0
_chemical_formula_structural       Ce2O2S2Tl2
_chemical_formula_sum              "Ce2 O2 S2 Tl2"
_cell_length_a       4.6833
_cell_length_b       7.988
_cell_length_c       6.59863
_cell_angle_alpha    90
_cell_angle_beta     90
_cell_angle_gamma    90

_space_group_name_H-M_alt    "P 1"
_space_group_IT_number       1

loop_
  _space_group_symop_operation_xyz
  'x, y, z'

loop_
  _atom_site_type_symbol
  _atom_site_label
  _atom_site_symmetry_multiplicity
  _atom_site_fract_x
  _atom_site_fract_y
  _atom_site_fract_z
  _atom_site_occupancy
  Ce  Ce1       1.0  0.50000  0.85400  0.03770  1.0000
  Ce  Ce2       1.0  0.50000  0.14600  0.53800  1.0000
  O   O1        1.0  0.50000  0.09770  0.20300  1.0000
  O   O2        1.0  0.50000  0.90200  0.70300  1.0000
  S   S1        1.0  0.00000  0.68600  0.14600  1.0000
  S   S2        1.0  0.00000  0.31400  0.64600  1.0000
  Tl  Tl1       1.0  0.00000  0.30400  0.10400  1.0000
  Tl  Tl2       1.0  0.00000  0.69600  0.60400  1.0000
