data_image0
_chemical_formula_structural       O16Pm8Si4
_chemical_formula_sum              "O16 Pm8 Si4"
_cell_length_a       5.74667
_cell_length_b       6.92957
_cell_length_c       11.5434
_cell_angle_alpha    90
_cell_angle_beta     125.405
_cell_angle_gamma    90

_space_group_name_H-M_alt    "P 1"
_space_group_IT_number       1

loop_
  _space_group_symop_operation_xyz
  'x, y, z'

loop_
  _atom_site_type_symbol
  _atom_site_label
  _atom_site_symmetry_multiplicity
  _atom_site_fract_x
  _atom_site_fract_y
  _atom_site_fract_z
  _atom_site_occupancy
  O   O1        1.0  0.32100  0.52400  0.03880  1.0000
  O   O2        1.0  0.88800  0.81700  0.05440  1.0000
  O   O3        1.0  0.63400  0.13800  0.13000  1.0000
  O   O4        1.0  0.17500  0.24200  0.18100  1.0000
  O   O5        1.0  0.82500  0.74200  0.31900  1.0000
  O   O6        1.0  0.36600  0.63800  0.37000  1.0000
  O   O7        1.0  0.11200  0.31700  0.44600  1.0000
  O   O8        1.0  0.67900  0.02390  0.46100  1.0000
  O   O9        1.0  0.32100  0.97600  0.53900  1.0000
  O   O10       1.0  0.88800  0.68300  0.55400  1.0000
  O   O11       1.0  0.63400  0.36200  0.63000  1.0000
  O   O12       1.0  0.17500  0.25800  0.68100  1.0000
  O   O13       1.0  0.82500  0.75800  0.81900  1.0000
  O   O14       1.0  0.36600  0.86200  0.87000  1.0000
  O   O15       1.0  0.11200  0.18300  0.94600  1.0000
  O   O16       1.0  0.67900  0.47600  0.96100  1.0000
  Pm  Pm1       1.0  0.31200  0.85100  0.06710  1.0000
  Pm  Pm2       1.0  0.90300  0.48700  0.20700  1.0000
  Pm  Pm3       1.0  0.09690  0.98700  0.29300  1.0000
  Pm  Pm4       1.0  0.68800  0.35100  0.43300  1.0000
  Pm  Pm5       1.0  0.31200  0.64900  0.56700  1.0000
  Pm  Pm6       1.0  0.90300  0.01320  0.70700  1.0000
  Pm  Pm7       1.0  0.09690  0.51300  0.79300  1.0000
  Pm  Pm8       1.0  0.68800  0.14900  0.93300  1.0000
  Si  Si1       1.0  0.37900  0.30300  0.11900  1.0000
  Si  Si2       1.0  0.62100  0.80300  0.38100  1.0000
  Si  Si3       1.0  0.37900  0.19700  0.61900  1.0000
  Si  Si4       1.0  0.62100  0.69700  0.88100  1.0000
