data_image0
_chemical_formula_structural       Eu8O16Si4
_chemical_formula_sum              "Eu8 O16 Si4"
_cell_length_a       6.85678
_cell_length_b       5.41168
_cell_length_c       9.50201
_cell_angle_alpha    90
_cell_angle_beta     90
_cell_angle_gamma    90

_space_group_name_H-M_alt    "P 1"
_space_group_IT_number       1

loop_
  _space_group_symop_operation_xyz
  'x, y, z'

loop_
  _atom_site_type_symbol
  _atom_site_label
  _atom_site_symmetry_multiplicity
  _atom_site_fract_x
  _atom_site_fract_y
  _atom_site_fract_z
  _atom_site_occupancy
  Eu  Eu1       1.0  0.14800  0.25000  0.07030  1.0000
  Eu  Eu2       1.0  0.50500  0.75000  0.19500  1.0000
  Eu  Eu3       1.0  0.00451  0.75000  0.30500  1.0000
  Eu  Eu4       1.0  0.64800  0.25000  0.43000  1.0000
  Eu  Eu5       1.0  0.35200  0.75000  0.57000  1.0000
  Eu  Eu6       1.0  0.99500  0.25000  0.69500  1.0000
  Eu  Eu7       1.0  0.49500  0.25000  0.80500  1.0000
  Eu  Eu8       1.0  0.85200  0.75000  0.93000  1.0000
  O   O1        1.0  0.48300  0.25000  0.07400  1.0000
  O   O2        1.0  0.18100  0.75000  0.07850  1.0000
  O   O3        1.0  0.80500  0.00377  0.15600  1.0000
  O   O4        1.0  0.80500  0.49600  0.15600  1.0000
  O   O5        1.0  0.30500  0.00377  0.34400  1.0000
  O   O6        1.0  0.30500  0.49600  0.34400  1.0000
  O   O7        1.0  0.68100  0.75000  0.42100  1.0000
  O   O8        1.0  0.98300  0.25000  0.42600  1.0000
  O   O9        1.0  0.01740  0.75000  0.57400  1.0000
  O   O10       1.0  0.31900  0.25000  0.57900  1.0000
  O   O11       1.0  0.69500  0.50400  0.65600  1.0000
  O   O12       1.0  0.69500  0.99600  0.65600  1.0000
  O   O13       1.0  0.19500  0.50400  0.84400  1.0000
  O   O14       1.0  0.19500  0.99600  0.84400  1.0000
  O   O15       1.0  0.81900  0.25000  0.92100  1.0000
  O   O16       1.0  0.51700  0.75000  0.92600  1.0000
  Si  Si1       1.0  0.71900  0.25000  0.07960  1.0000
  Si  Si2       1.0  0.21900  0.25000  0.42000  1.0000
  Si  Si3       1.0  0.78100  0.75000  0.58000  1.0000
  Si  Si4       1.0  0.28100  0.75000  0.92000  1.0000
