data_image0
_chemical_formula_structural       O16Pr8Si4
_chemical_formula_sum              "O16 Pr8 Si4"
_cell_length_a       7.71436
_cell_length_b       5.2654
_cell_length_c       9.95498
_cell_angle_alpha    90
_cell_angle_beta     90
_cell_angle_gamma    90

_space_group_name_H-M_alt    "P 1"
_space_group_IT_number       1

loop_
  _space_group_symop_operation_xyz
  'x, y, z'

loop_
  _atom_site_type_symbol
  _atom_site_label
  _atom_site_symmetry_multiplicity
  _atom_site_fract_x
  _atom_site_fract_y
  _atom_site_fract_z
  _atom_site_occupancy
  O   O1        1.0  0.19800  0.75000  0.00350  1.0000
  O   O2        1.0  0.47000  0.25000  0.07480  1.0000
  O   O3        1.0  0.70000  0.00021  0.22400  1.0000
  O   O4        1.0  0.70000  0.50000  0.22400  1.0000
  O   O5        1.0  0.20000  0.00021  0.27600  1.0000
  O   O6        1.0  0.20000  0.50000  0.27600  1.0000
  O   O7        1.0  0.97000  0.25000  0.42500  1.0000
  O   O8        1.0  0.69800  0.75000  0.49700  1.0000
  O   O9        1.0  0.30200  0.25000  0.50300  1.0000
  O   O10       1.0  0.02980  0.75000  0.57500  1.0000
  O   O11       1.0  0.80000  0.50000  0.72400  1.0000
  O   O12       1.0  0.80000  0.00000  0.72400  1.0000
  O   O13       1.0  0.30000  0.50000  0.77600  1.0000
  O   O14       1.0  0.30000  0.00000  0.77600  1.0000
  O   O15       1.0  0.53000  0.75000  0.92500  1.0000
  O   O16       1.0  0.80200  0.25000  0.99700  1.0000
  Pr  Pr1       1.0  0.14600  0.25000  0.04570  1.0000
  Pr  Pr2       1.0  0.43400  0.75000  0.18000  1.0000
  Pr  Pr3       1.0  0.93400  0.75000  0.32000  1.0000
  Pr  Pr4       1.0  0.64600  0.25000  0.45400  1.0000
  Pr  Pr5       1.0  0.35400  0.75000  0.54600  1.0000
  Pr  Pr6       1.0  0.06620  0.25000  0.68000  1.0000
  Pr  Pr7       1.0  0.56600  0.25000  0.82000  1.0000
  Pr  Pr8       1.0  0.85400  0.75000  0.95400  1.0000
  Si  Si1       1.0  0.67300  0.25000  0.12900  1.0000
  Si  Si2       1.0  0.17300  0.25000  0.37100  1.0000
  Si  Si3       1.0  0.82700  0.75000  0.62900  1.0000
  Si  Si4       1.0  0.32700  0.75000  0.87100  1.0000
