data_image0
_chemical_formula_structural       Ce2O7Si2
_chemical_formula_sum              "Ce2 O7 Si2"
_cell_length_a       4.77297
_cell_length_b       5.89778
_cell_length_c       5.89778
_cell_angle_alpha    104.508
_cell_angle_beta     96.2551
_cell_angle_gamma    96.2551

_space_group_name_H-M_alt    "P 1"
_space_group_IT_number       1

loop_
  _space_group_symop_operation_xyz
  'x, y, z'

loop_
  _atom_site_type_symbol
  _atom_site_label
  _atom_site_symmetry_multiplicity
  _atom_site_fract_x
  _atom_site_fract_y
  _atom_site_fract_z
  _atom_site_occupancy
  Ce  Ce1       1.0  0.00000  0.70100  0.29900  1.0000
  Ce  Ce2       1.0  0.00000  0.29900  0.70100  1.0000
  O   O1        1.0  0.50000  0.00000  0.00000  1.0000
  O   O2        1.0  0.24000  0.38500  0.09510  1.0000
  O   O3        1.0  0.72100  0.36700  0.36700  1.0000
  O   O4        1.0  0.24000  0.09510  0.38500  1.0000
  O   O5        1.0  0.76000  0.90500  0.61500  1.0000
  O   O6        1.0  0.27900  0.63300  0.63300  1.0000
  O   O7        1.0  0.76000  0.61500  0.90500  1.0000
  Si  Si1       1.0  0.42500  0.21600  0.21600  1.0000
  Si  Si2       1.0  0.57500  0.78400  0.78400  1.0000
