data_image0
_chemical_formula_structural       Lu2O7Si2
_chemical_formula_sum              "Lu2 O7 Si2"
_cell_length_a       4.69902
_cell_length_b       5.53461
_cell_length_c       5.53461
_cell_angle_alpha    105.165
_cell_angle_beta     97.2566
_cell_angle_gamma    97.2566

_space_group_name_H-M_alt    "P 1"
_space_group_IT_number       1

loop_
  _space_group_symop_operation_xyz
  'x, y, z'

loop_
  _atom_site_type_symbol
  _atom_site_label
  _atom_site_symmetry_multiplicity
  _atom_site_fract_x
  _atom_site_fract_y
  _atom_site_fract_z
  _atom_site_occupancy
  Lu  Lu1       1.0  0.00000  0.69300  0.30700  1.0000
  Lu  Lu2       1.0  0.00000  0.30700  0.69300  1.0000
  O   O1        1.0  0.50000  0.00000  0.00000  1.0000
  O   O2        1.0  0.21900  0.39100  0.08440  1.0000
  O   O3        1.0  0.71800  0.38700  0.38700  1.0000
  O   O4        1.0  0.21900  0.08440  0.39100  1.0000
  O   O5        1.0  0.78100  0.91600  0.60900  1.0000
  O   O6        1.0  0.28200  0.61300  0.61300  1.0000
  O   O7        1.0  0.78100  0.60900  0.91600  1.0000
  Si  Si1       1.0  0.40900  0.22200  0.22200  1.0000
  Si  Si2       1.0  0.59100  0.77800  0.77800  1.0000
