data_image0
_chemical_formula_structural       Dy8O16Si4
_chemical_formula_sum              "Dy8 O16 Si4"
_cell_length_a       6.54342
_cell_length_b       5.44819
_cell_length_c       9.8652
_cell_angle_alpha    90
_cell_angle_beta     90
_cell_angle_gamma    90

_space_group_name_H-M_alt    "P 1"
_space_group_IT_number       1

loop_
  _space_group_symop_operation_xyz
  'x, y, z'

loop_
  _atom_site_type_symbol
  _atom_site_label
  _atom_site_symmetry_multiplicity
  _atom_site_fract_x
  _atom_site_fract_y
  _atom_site_fract_z
  _atom_site_occupancy
  Dy  Dy1       1.0  0.11000  0.25000  0.04710  1.0000
  Dy  Dy2       1.0  0.47000  0.75000  0.18800  1.0000
  Dy  Dy3       1.0  0.97000  0.75000  0.31200  1.0000
  Dy  Dy4       1.0  0.61000  0.25000  0.45300  1.0000
  Dy  Dy5       1.0  0.39000  0.75000  0.54700  1.0000
  Dy  Dy6       1.0  0.03030  0.25000  0.68800  1.0000
  Dy  Dy7       1.0  0.53000  0.25000  0.81200  1.0000
  Dy  Dy8       1.0  0.89000  0.75000  0.95300  1.0000
  O   O1        1.0  0.46200  0.25000  0.05430  1.0000
  O   O2        1.0  0.15500  0.75000  0.11900  1.0000
  O   O3        1.0  0.80800  0.00347  0.13000  1.0000
  O   O4        1.0  0.80800  0.49700  0.13000  1.0000
  O   O5        1.0  0.30800  0.00347  0.37000  1.0000
  O   O6        1.0  0.30800  0.49700  0.37000  1.0000
  O   O7        1.0  0.65500  0.75000  0.38100  1.0000
  O   O8        1.0  0.96200  0.25000  0.44600  1.0000
  O   O9        1.0  0.03810  0.75000  0.55400  1.0000
  O   O10       1.0  0.34500  0.25000  0.61900  1.0000
  O   O11       1.0  0.69200  0.50300  0.63000  1.0000
  O   O12       1.0  0.69200  0.99700  0.63000  1.0000
  O   O13       1.0  0.19200  0.50300  0.87000  1.0000
  O   O14       1.0  0.19200  0.99700  0.87000  1.0000
  O   O15       1.0  0.84500  0.25000  0.88100  1.0000
  O   O16       1.0  0.53800  0.75000  0.94600  1.0000
  Si  Si1       1.0  0.66000  0.25000  0.16400  1.0000
  Si  Si2       1.0  0.16000  0.25000  0.33600  1.0000
  Si  Si3       1.0  0.84000  0.75000  0.66400  1.0000
  Si  Si4       1.0  0.34000  0.75000  0.83600  1.0000
