data_image0
_chemical_formula_structural       Al4Cu2Mg2
_chemical_formula_sum              "Al4 Cu2 Mg2"
_cell_length_a       3.99837
_cell_length_b       5.04554
_cell_length_c       7.129
_cell_angle_alpha    90
_cell_angle_beta     90
_cell_angle_gamma    66.6574

_space_group_name_H-M_alt    "P 1"
_space_group_IT_number       1

loop_
  _space_group_symop_operation_xyz
  'x, y, z'

loop_
  _atom_site_type_symbol
  _atom_site_label
  _atom_site_symmetry_multiplicity
  _atom_site_fract_x
  _atom_site_fract_y
  _atom_site_fract_z
  _atom_site_occupancy
  Al  Al1       1.0  0.35600  0.28800  0.05470  1.0000
  Al  Al2       1.0  0.35600  0.28800  0.44500  1.0000
  Al  Al3       1.0  0.64400  0.71200  0.55500  1.0000
  Al  Al4       1.0  0.64400  0.71200  0.94500  1.0000
  Cu  Cu1       1.0  0.78000  0.44000  0.25000  1.0000
  Cu  Cu2       1.0  0.22000  0.56000  0.75000  1.0000
  Mg  Mg1       1.0  0.06490  0.87000  0.25000  1.0000
  Mg  Mg2       1.0  0.93500  0.13000  0.75000  1.0000
