data_image0
_chemical_formula_structural       La8O16Si4
_chemical_formula_sum              "La8 O16 Si4"
_cell_length_a       5.62688
_cell_length_b       7.28079
_cell_length_c       11.551
_cell_angle_alpha    90
_cell_angle_beta     123.54
_cell_angle_gamma    90

_space_group_name_H-M_alt    "P 1"
_space_group_IT_number       1

loop_
  _space_group_symop_operation_xyz
  'x, y, z'

loop_
  _atom_site_type_symbol
  _atom_site_label
  _atom_site_symmetry_multiplicity
  _atom_site_fract_x
  _atom_site_fract_y
  _atom_site_fract_z
  _atom_site_occupancy
  La  La1       1.0  0.34800  0.83400  0.06870  1.0000
  La  La2       1.0  0.89000  0.49700  0.19800  1.0000
  La  La3       1.0  0.11000  0.99700  0.30200  1.0000
  La  La4       1.0  0.65200  0.33400  0.43100  1.0000
  La  La5       1.0  0.34800  0.66600  0.56900  1.0000
  La  La6       1.0  0.89000  0.00334  0.69800  1.0000
  La  La7       1.0  0.11000  0.50300  0.80200  1.0000
  La  La8       1.0  0.65200  0.16600  0.93100  1.0000
  O   O1        1.0  0.33400  0.49600  0.06290  1.0000
  O   O2        1.0  0.87600  0.82700  0.06390  1.0000
  O   O3        1.0  0.63300  0.16100  0.16200  1.0000
  O   O4        1.0  0.17700  0.25100  0.17900  1.0000
  O   O5        1.0  0.82300  0.75100  0.32100  1.0000
  O   O6        1.0  0.36700  0.66100  0.33800  1.0000
  O   O7        1.0  0.12400  0.32700  0.43600  1.0000
  O   O8        1.0  0.66600  0.99600  0.43700  1.0000
  O   O9        1.0  0.33400  0.00387  0.56300  1.0000
  O   O10       1.0  0.87600  0.67300  0.56400  1.0000
  O   O11       1.0  0.63300  0.33900  0.66200  1.0000
  O   O12       1.0  0.17700  0.24900  0.67900  1.0000
  O   O13       1.0  0.82300  0.74900  0.82100  1.0000
  O   O14       1.0  0.36700  0.83900  0.83800  1.0000
  O   O15       1.0  0.12400  0.17300  0.93600  1.0000
  O   O16       1.0  0.66600  0.50400  0.93700  1.0000
  Si  Si1       1.0  0.32800  0.27600  0.09080  1.0000
  Si  Si2       1.0  0.67200  0.77600  0.40900  1.0000
  Si  Si3       1.0  0.32800  0.22400  0.59100  1.0000
  Si  Si4       1.0  0.67200  0.72400  0.90900  1.0000
