data_image0
_chemical_formula_structural       In4Pt4Sr4
_chemical_formula_sum              "In4 Pt4 Sr4"
_cell_length_a       7.63889
_cell_length_b       4.54274
_cell_length_c       8.56913
_cell_angle_alpha    90
_cell_angle_beta     90
_cell_angle_gamma    90

_space_group_name_H-M_alt    "P 1"
_space_group_IT_number       1

loop_
  _space_group_symop_operation_xyz
  'x, y, z'

loop_
  _atom_site_type_symbol
  _atom_site_label
  _atom_site_symmetry_multiplicity
  _atom_site_fract_x
  _atom_site_fract_y
  _atom_site_fract_z
  _atom_site_occupancy
  In  In1       1.0  0.14700  0.25000  0.06570  1.0000
  In  In2       1.0  0.64700  0.25000  0.43400  1.0000
  In  In3       1.0  0.35300  0.75000  0.56600  1.0000
  In  In4       1.0  0.85300  0.75000  0.93400  1.0000
  Pt  Pt1       1.0  0.77800  0.25000  0.12100  1.0000
  Pt  Pt2       1.0  0.27800  0.25000  0.37900  1.0000
  Pt  Pt3       1.0  0.72200  0.75000  0.62100  1.0000
  Pt  Pt4       1.0  0.22200  0.75000  0.87900  1.0000
  Sr  Sr1       1.0  0.47100  0.75000  0.17800  1.0000
  Sr  Sr2       1.0  0.97100  0.75000  0.32200  1.0000
  Sr  Sr3       1.0  0.02920  0.25000  0.67800  1.0000
  Sr  Sr4       1.0  0.52900  0.25000  0.82200  1.0000
