data_image0
_chemical_formula_structural       Br2Hg2
_chemical_formula_sum              "Br2 Hg2"
_cell_length_a       6.53963
_cell_length_b       4.67463
_cell_length_c       4.67463
_cell_angle_alpha    90
_cell_angle_beta     110.941
_cell_angle_gamma    110.941

_space_group_name_H-M_alt    "P 1"
_space_group_IT_number       1

loop_
  _space_group_symop_operation_xyz
  'x, y, z'

loop_
  _atom_site_type_symbol
  _atom_site_label
  _atom_site_symmetry_multiplicity
  _atom_site_fract_x
  _atom_site_fract_y
  _atom_site_fract_z
  _atom_site_occupancy
  Br  Br1       1.0  0.69500  0.34700  0.34700  1.0000
  Br  Br2       1.0  0.30500  0.65300  0.65300  1.0000
  Hg  Hg1       1.0  0.23300  0.11600  0.11600  1.0000
  Hg  Hg2       1.0  0.76700  0.88400  0.88400  1.0000
