data_image0
_chemical_formula_structural       Cu10Mg16Y10
_chemical_formula_sum              "Cu10 Mg16 Y10"
_cell_length_a       26.2857
_cell_length_b       3.99351
_cell_length_c       7.38405
_cell_angle_alpha    90
_cell_angle_beta     90
_cell_angle_gamma    90

_space_group_name_H-M_alt    "P 1"
_space_group_IT_number       1

loop_
  _space_group_symop_operation_xyz
  'x, y, z'

loop_
  _atom_site_type_symbol
  _atom_site_label
  _atom_site_symmetry_multiplicity
  _atom_site_fract_x
  _atom_site_fract_y
  _atom_site_fract_z
  _atom_site_occupancy
  Cu  Cu1       1.0  0.08880  0.00000  0.21600  1.0000
  Cu  Cu2       1.0  0.41100  0.00000  0.21600  1.0000
  Cu  Cu3       1.0  0.25000  0.50000  0.21800  1.0000
  Cu  Cu4       1.0  0.66700  0.00000  0.28300  1.0000
  Cu  Cu5       1.0  0.83300  0.00000  0.28300  1.0000
  Cu  Cu6       1.0  0.16700  0.00000  0.71700  1.0000
  Cu  Cu7       1.0  0.33300  0.00000  0.71700  1.0000
  Cu  Cu8       1.0  0.75000  0.50000  0.78200  1.0000
  Cu  Cu9       1.0  0.58900  0.00000  0.78400  1.0000
  Cu  Cu10      1.0  0.91100  0.00000  0.78400  1.0000
  Mg  Mg1       1.0  0.00000  0.00000  0.00000  1.0000
  Mg  Mg2       1.0  0.50000  0.00000  0.00000  1.0000
  Mg  Mg3       1.0  0.19000  0.00000  0.09450  1.0000
  Mg  Mg4       1.0  0.31000  0.00000  0.09450  1.0000
  Mg  Mg5       1.0  0.02350  0.50000  0.30000  1.0000
  Mg  Mg6       1.0  0.47600  0.50000  0.30000  1.0000
  Mg  Mg7       1.0  0.56100  0.00000  0.40300  1.0000
  Mg  Mg8       1.0  0.93900  0.00000  0.40300  1.0000
  Mg  Mg9       1.0  0.25000  0.00000  0.46100  1.0000
  Mg  Mg10      1.0  0.75000  0.00000  0.53900  1.0000
  Mg  Mg11      1.0  0.06120  0.00000  0.59700  1.0000
  Mg  Mg12      1.0  0.43900  0.00000  0.59700  1.0000
  Mg  Mg13      1.0  0.52400  0.50000  0.70000  1.0000
  Mg  Mg14      1.0  0.97600  0.50000  0.70000  1.0000
  Mg  Mg15      1.0  0.69000  0.00000  0.90600  1.0000
  Mg  Mg16      1.0  0.81000  0.00000  0.90600  1.0000
  Y   Y1        1.0  0.60600  0.50000  0.07590  1.0000
  Y   Y2        1.0  0.89400  0.50000  0.07590  1.0000
  Y   Y3        1.0  0.75000  0.50000  0.19900  1.0000
  Y   Y4        1.0  0.15000  0.50000  0.42700  1.0000
  Y   Y5        1.0  0.35000  0.50000  0.42700  1.0000
  Y   Y6        1.0  0.65000  0.50000  0.57300  1.0000
  Y   Y7        1.0  0.85000  0.50000  0.57300  1.0000
  Y   Y8        1.0  0.25000  0.50000  0.80100  1.0000
  Y   Y9        1.0  0.10600  0.50000  0.92400  1.0000
  Y   Y10       1.0  0.39400  0.50000  0.92400  1.0000
