data_image0
_chemical_formula_structural       La4Si4
_chemical_formula_sum              "La4 Si4"
_cell_length_a       4.57718
_cell_length_b       6.64197
_cell_length_c       7.08305
_cell_angle_alpha    90
_cell_angle_beta     71.149
_cell_angle_gamma    90

_space_group_name_H-M_alt    "P 1"
_space_group_IT_number       1

loop_
  _space_group_symop_operation_xyz
  'x, y, z'

loop_
  _atom_site_type_symbol
  _atom_site_label
  _atom_site_symmetry_multiplicity
  _atom_site_fract_x
  _atom_site_fract_y
  _atom_site_fract_z
  _atom_site_occupancy
  La  La1       1.0  0.44800  0.75000  0.10300  1.0000
  La  La2       1.0  0.27500  0.25000  0.45000  1.0000
  La  La3       1.0  0.72500  0.75000  0.55000  1.0000
  La  La4       1.0  0.55200  0.25000  0.89700  1.0000
  Si  Si1       1.0  0.90900  0.06270  0.18300  1.0000
  Si  Si2       1.0  0.90900  0.43700  0.18300  1.0000
  Si  Si3       1.0  0.09150  0.56300  0.81700  1.0000
  Si  Si4       1.0  0.09150  0.93700  0.81700  1.0000
