data_image0
_chemical_formula_structural       GePa
_chemical_formula_sum              "Ge1 Pa1"
_cell_length_a       5.24715
_cell_length_b       5.24715
_cell_length_c       5.24714
_cell_angle_alpha    35.5846
_cell_angle_beta     35.5846
_cell_angle_gamma    35.5846

_space_group_name_H-M_alt    "P 1"
_space_group_IT_number       1

loop_
  _space_group_symop_operation_xyz
  'x, y, z'

loop_
  _atom_site_type_symbol
  _atom_site_label
  _atom_site_symmetry_multiplicity
  _atom_site_fract_x
  _atom_site_fract_y
  _atom_site_fract_z
  _atom_site_occupancy
  Ge  Ge1       1.0  0.00000  0.00000  0.00000  1.0000
  Pa  Pa1       1.0  0.50000  0.50000  0.50000  1.0000
