data_image0
_chemical_formula_structural       Br2In2
_chemical_formula_sum              "Br2 In2"
_cell_length_a       4.50461
_cell_length_b       4.67304
_cell_length_c       6.60192
_cell_angle_alpha    90
_cell_angle_beta     70.0525
_cell_angle_gamma    90

_space_group_name_H-M_alt    "P 1"
_space_group_IT_number       1

loop_
  _space_group_symop_operation_xyz
  'x, y, z'

loop_
  _atom_site_type_symbol
  _atom_site_label
  _atom_site_symmetry_multiplicity
  _atom_site_fract_x
  _atom_site_fract_y
  _atom_site_fract_z
  _atom_site_occupancy
  Br  Br1       1.0  0.85100  0.25000  0.29700  1.0000
  Br  Br2       1.0  0.14900  0.75000  0.70300  1.0000
  In  In1       1.0  0.39400  0.75000  0.21200  1.0000
  In  In2       1.0  0.60600  0.25000  0.78800  1.0000
