data_image0
_chemical_formula_structural       Rh2Th2
_chemical_formula_sum              "Rh2 Th2"
_cell_length_a       3.90352
_cell_length_b       4.1816
_cell_length_c       6.07084
_cell_angle_alpha    90
_cell_angle_beta     71.2465
_cell_angle_gamma    90

_space_group_name_H-M_alt    "P 1"
_space_group_IT_number       1

loop_
  _space_group_symop_operation_xyz
  'x, y, z'

loop_
  _atom_site_type_symbol
  _atom_site_label
  _atom_site_symmetry_multiplicity
  _atom_site_fract_x
  _atom_site_fract_y
  _atom_site_fract_z
  _atom_site_occupancy
  Rh  Rh1       1.0  0.40100  0.75000  0.19700  1.0000
  Rh  Rh2       1.0  0.59900  0.25000  0.80300  1.0000
  Th  Th1       1.0  0.86400  0.25000  0.27300  1.0000
  Th  Th2       1.0  0.13600  0.75000  0.72700  1.0000
