data_image0
_chemical_formula_structural       H4Mg2O16S4
_chemical_formula_sum              "H4 Mg2 O16 S4"
_cell_length_a       6.67167
_cell_length_b       9.36573
_cell_length_c       4.74271
_cell_angle_alpha    90
_cell_angle_beta     97.3921
_cell_angle_gamma    90

_space_group_name_H-M_alt    "P 1"
_space_group_IT_number       1

loop_
  _space_group_symop_operation_xyz
  'x, y, z'

loop_
  _atom_site_type_symbol
  _atom_site_label
  _atom_site_symmetry_multiplicity
  _atom_site_fract_x
  _atom_site_fract_y
  _atom_site_fract_z
  _atom_site_occupancy
  H   H1        1.0  0.69200  0.20100  0.13900  1.0000
  H   H2        1.0  0.80800  0.70100  0.36100  1.0000
  H   H3        1.0  0.19200  0.29900  0.63900  1.0000
  H   H4        1.0  0.30800  0.79900  0.86100  1.0000
  Mg  Mg1       1.0  0.00000  0.00000  0.00000  1.0000
  Mg  Mg2       1.0  0.50000  0.50000  0.50000  1.0000
  O   O1        1.0  0.82800  0.17300  0.09310  1.0000
  O   O2        1.0  0.94500  0.30400  0.16000  1.0000
  O   O3        1.0  0.60100  0.38700  0.17900  1.0000
  O   O4        1.0  0.25200  0.06430  0.24900  1.0000
  O   O5        1.0  0.24800  0.56400  0.25100  1.0000
  O   O6        1.0  0.89900  0.88700  0.32100  1.0000
  O   O7        1.0  0.55500  0.80400  0.34000  1.0000
  O   O8        1.0  0.67200  0.67300  0.40700  1.0000
  O   O9        1.0  0.32800  0.32700  0.59300  1.0000
  O   O10       1.0  0.44500  0.19600  0.66000  1.0000
  O   O11       1.0  0.10100  0.11300  0.67900  1.0000
  O   O12       1.0  0.75200  0.43600  0.74900  1.0000
  O   O13       1.0  0.74800  0.93600  0.75100  1.0000
  O   O14       1.0  0.39900  0.61300  0.82100  1.0000
  O   O15       1.0  0.05460  0.69600  0.84000  1.0000
  O   O16       1.0  0.17200  0.82700  0.90700  1.0000
  S   S1        1.0  0.78800  0.44300  0.06560  1.0000
  S   S2        1.0  0.71200  0.94300  0.43400  1.0000
  S   S3        1.0  0.28800  0.05710  0.56600  1.0000
  S   S4        1.0  0.21200  0.55700  0.93400  1.0000
