data_image0
_chemical_formula_structural       C2Na2
_chemical_formula_sum              "C2 Na2"
_cell_length_a       4.18787
_cell_length_b       4.68318
_cell_length_c       4.68318
_cell_angle_alpha    93.8266
_cell_angle_beta     63.4411
_cell_angle_gamma    116.559

_space_group_name_H-M_alt    "P 1"
_space_group_IT_number       1

loop_
  _space_group_symop_operation_xyz
  'x, y, z'

loop_
  _atom_site_type_symbol
  _atom_site_label
  _atom_site_symmetry_multiplicity
  _atom_site_fract_x
  _atom_site_fract_y
  _atom_site_fract_z
  _atom_site_occupancy
  C   C1        1.0  0.61700  0.61700  0.38300  1.0000
  C   C2        1.0  0.38300  0.38300  0.61700  1.0000
  Na  Na1       1.0  0.00000  0.24500  0.24500  1.0000
  Na  Na2       1.0  0.00000  0.75500  0.75500  1.0000
