data_image0
_chemical_formula_structural       Fe2LuO4
_chemical_formula_sum              "Fe2 Lu1 O4"
_cell_length_a       3.41464
_cell_length_b       3.41464
_cell_length_c       8.61034
_cell_angle_alpha    78.5632
_cell_angle_beta     101.437
_cell_angle_gamma    120

_space_group_name_H-M_alt    "P 1"
_space_group_IT_number       1

loop_
  _space_group_symop_operation_xyz
  'x, y, z'

loop_
  _atom_site_type_symbol
  _atom_site_label
  _atom_site_symmetry_multiplicity
  _atom_site_fract_x
  _atom_site_fract_y
  _atom_site_fract_z
  _atom_site_occupancy
  Fe  Fe1       1.0  0.78600  0.21400  0.35700  1.0000
  Fe  Fe2       1.0  0.21400  0.78600  0.64300  1.0000
  Lu  Lu1       1.0  0.00000  0.00000  0.00000  1.0000
  O   O1        1.0  0.70700  0.29300  0.12200  1.0000
  O   O2        1.0  0.12800  0.87200  0.38400  1.0000
  O   O3        1.0  0.87200  0.12800  0.61600  1.0000
  O   O4        1.0  0.29300  0.70700  0.87800  1.0000
