data_image0
_chemical_formula_structural       Nd2Pd2
_chemical_formula_sum              "Nd2 Pd2"
_cell_length_a       3.8564
_cell_length_b       4.6335
_cell_length_c       5.76155
_cell_angle_alpha    90
_cell_angle_beta     70.4477
_cell_angle_gamma    90

_space_group_name_H-M_alt    "P 1"
_space_group_IT_number       1

loop_
  _space_group_symop_operation_xyz
  'x, y, z'

loop_
  _atom_site_type_symbol
  _atom_site_label
  _atom_site_symmetry_multiplicity
  _atom_site_fract_x
  _atom_site_fract_y
  _atom_site_fract_z
  _atom_site_occupancy
  Nd  Nd1       1.0  0.86300  0.25000  0.27300  1.0000
  Nd  Nd2       1.0  0.13700  0.75000  0.72700  1.0000
  Pd  Pd1       1.0  0.41300  0.75000  0.17300  1.0000
  Pd  Pd2       1.0  0.58700  0.25000  0.82700  1.0000
