data_image0
_chemical_formula_structural       Ag2Br2
_chemical_formula_sum              "Ag2 Br2"
_cell_length_a       4.00395
_cell_length_b       4.1118
_cell_length_c       5.75065
_cell_angle_alpha    90
_cell_angle_beta     96.4773
_cell_angle_gamma    90

_space_group_name_H-M_alt    "P 1"
_space_group_IT_number       1

loop_
  _space_group_symop_operation_xyz
  'x, y, z'

loop_
  _atom_site_type_symbol
  _atom_site_label
  _atom_site_symmetry_multiplicity
  _atom_site_fract_x
  _atom_site_fract_y
  _atom_site_fract_z
  _atom_site_occupancy
  Ag  Ag1       1.0  0.18000  0.25000  0.20500  1.0000
  Ag  Ag2       1.0  0.82000  0.75000  0.79500  1.0000
  Br  Br1       1.0  0.70300  0.75000  0.27100  1.0000
  Br  Br2       1.0  0.29700  0.25000  0.72900  1.0000
