data_image0
_chemical_formula_structural       CrGa3P4
_chemical_formula_sum              "Cr1 Ga3 P4"
_cell_length_a       5.47871
_cell_length_b       5.47871
_cell_length_c       5.47871
_cell_angle_alpha    90
_cell_angle_beta     90
_cell_angle_gamma    90

_space_group_name_H-M_alt    "P 1"
_space_group_IT_number       1

loop_
  _space_group_symop_operation_xyz
  'x, y, z'

loop_
  _atom_site_type_symbol
  _atom_site_label
  _atom_site_symmetry_multiplicity
  _atom_site_fract_x
  _atom_site_fract_y
  _atom_site_fract_z
  _atom_site_occupancy
  Cr  Cr1       1.0  0.00000  0.00000  0.00000  1.0000
  Ga  Ga1       1.0  0.50000  0.50000  0.00000  1.0000
  Ga  Ga2       1.0  0.50000  0.00000  0.50000  1.0000
  Ga  Ga3       1.0  0.00000  0.50000  0.50000  1.0000
  P   P1        1.0  0.24700  0.24700  0.24700  1.0000
  P   P2        1.0  0.75300  0.75300  0.24700  1.0000
  P   P3        1.0  0.75300  0.24700  0.75300  1.0000
  P   P4        1.0  0.24700  0.75300  0.75300  1.0000
