data_image0
_chemical_formula_structural       Bi6Zr6
_chemical_formula_sum              "Bi6 Zr6"
_cell_length_a       3.86595
_cell_length_b       5.75969
_cell_length_c       14.4743
_cell_angle_alpha    90
_cell_angle_beta     90
_cell_angle_gamma    70.3908

_space_group_name_H-M_alt    "P 1"
_space_group_IT_number       1

loop_
  _space_group_symop_operation_xyz
  'x, y, z'

loop_
  _atom_site_type_symbol
  _atom_site_label
  _atom_site_symmetry_multiplicity
  _atom_site_fract_x
  _atom_site_fract_y
  _atom_site_fract_z
  _atom_site_occupancy
  Bi  Bi1       1.0  0.64100  0.71700  0.04950  1.0000
  Bi  Bi2       1.0  0.32200  0.35600  0.25000  1.0000
  Bi  Bi3       1.0  0.64100  0.71700  0.45000  1.0000
  Bi  Bi4       1.0  0.35900  0.28300  0.55000  1.0000
  Bi  Bi5       1.0  0.67800  0.64400  0.75000  1.0000
  Bi  Bi6       1.0  0.35900  0.28300  0.95000  1.0000
  Zr  Zr1       1.0  0.92900  0.14200  0.11000  1.0000
  Zr  Zr2       1.0  0.60800  0.78400  0.25000  1.0000
  Zr  Zr3       1.0  0.92900  0.14200  0.39000  1.0000
  Zr  Zr4       1.0  0.07120  0.85800  0.61000  1.0000
  Zr  Zr5       1.0  0.39200  0.21600  0.75000  1.0000
  Zr  Zr6       1.0  0.07120  0.85800  0.89000  1.0000
