data_image0
_chemical_formula_structural       Al2Hf2
_chemical_formula_sum              "Al2 Hf2"
_cell_length_a       3.25151
_cell_length_b       4.29164
_cell_length_c       5.67583
_cell_angle_alpha    90
_cell_angle_beta     73.3554
_cell_angle_gamma    90

_space_group_name_H-M_alt    "P 1"
_space_group_IT_number       1

loop_
  _space_group_symop_operation_xyz
  'x, y, z'

loop_
  _atom_site_type_symbol
  _atom_site_label
  _atom_site_symmetry_multiplicity
  _atom_site_fract_x
  _atom_site_fract_y
  _atom_site_fract_z
  _atom_site_occupancy
  Al  Al1       1.0  0.43000  0.75000  0.14100  1.0000
  Al  Al2       1.0  0.57000  0.25000  0.85900  1.0000
  Hf  Hf1       1.0  0.83600  0.25000  0.32700  1.0000
  Hf  Hf2       1.0  0.16400  0.75000  0.67300  1.0000
