data_image0
_chemical_formula_structural       K4Sn8
_chemical_formula_sum              "K4 Sn8"
_cell_length_a       6.50806
_cell_length_b       6.50806
_cell_length_c       10.5224
_cell_angle_alpha    90
_cell_angle_beta     90
_cell_angle_gamma    120

_space_group_name_H-M_alt    "P 1"
_space_group_IT_number       1

loop_
  _space_group_symop_operation_xyz
  'x, y, z'

loop_
  _atom_site_type_symbol
  _atom_site_label
  _atom_site_symmetry_multiplicity
  _atom_site_fract_x
  _atom_site_fract_y
  _atom_site_fract_z
  _atom_site_occupancy
  K   K1        1.0  0.33300  0.66700  0.06540  1.0000
  K   K2        1.0  0.33300  0.66700  0.43500  1.0000
  K   K3        1.0  0.66700  0.33300  0.56500  1.0000
  K   K4        1.0  0.66700  0.33300  0.93500  1.0000
  Sn  Sn1       1.0  0.00000  0.00000  0.00000  1.0000
  Sn  Sn2       1.0  0.33700  0.16800  0.25000  1.0000
  Sn  Sn3       1.0  0.83200  0.16800  0.25000  1.0000
  Sn  Sn4       1.0  0.83200  0.66300  0.25000  1.0000
  Sn  Sn5       1.0  0.00000  0.00000  0.50000  1.0000
  Sn  Sn6       1.0  0.16800  0.33700  0.75000  1.0000
  Sn  Sn7       1.0  0.16800  0.83200  0.75000  1.0000
  Sn  Sn8       1.0  0.66300  0.83200  0.75000  1.0000
