data_image0
_chemical_formula_structural       Ge4La4O14
_chemical_formula_sum              "Ge4 La4 O14"
_cell_length_a       7.06283
_cell_length_b       7.08852
_cell_length_c       6.91337
_cell_angle_alpha    87.7324
_cell_angle_beta     91.226
_cell_angle_gamma    115.749

_space_group_name_H-M_alt    "P 1"
_space_group_IT_number       1

loop_
  _space_group_symop_operation_xyz
  'x, y, z'

loop_
  _atom_site_type_symbol
  _atom_site_label
  _atom_site_symmetry_multiplicity
  _atom_site_fract_x
  _atom_site_fract_y
  _atom_site_fract_z
  _atom_site_occupancy
  Ge  Ge1       1.0  0.79200  0.87900  0.31800  1.0000
  Ge  Ge2       1.0  0.31300  0.34900  0.62300  1.0000
  Ge  Ge3       1.0  0.74300  0.50000  0.85600  1.0000
  Ge  Ge4       1.0  0.18600  0.81000  0.96400  1.0000
  La  La1       1.0  0.30400  0.35900  0.12500  1.0000
  La  La2       1.0  0.82900  0.36700  0.36500  1.0000
  La  La3       1.0  0.31500  0.85100  0.43000  1.0000
  La  La4       1.0  0.74600  0.00554  0.85400  1.0000
  O   O1        1.0  0.64900  0.36600  0.07540  1.0000
  O   O2        1.0  0.11300  0.57200  0.09700  1.0000
  O   O3        1.0  0.27900  0.00474  0.13500  1.0000
  O   O4        1.0  0.56700  0.74800  0.17200  1.0000
  O   O5        1.0  0.92900  0.11900  0.18000  1.0000
  O   O6        1.0  0.92700  0.73900  0.41000  1.0000
  O   O7        1.0  0.42400  0.24100  0.45600  1.0000
  O   O8        1.0  0.20300  0.47600  0.46200  1.0000
  O   O9        1.0  0.69900  0.98600  0.50600  1.0000
  O   O10       1.0  0.81500  0.34800  0.71500  1.0000
  O   O11       1.0  0.52600  0.54800  0.76100  1.0000
  O   O12       1.0  0.36500  0.87000  0.77600  1.0000
  O   O13       1.0  0.14200  0.19800  0.80500  1.0000
  O   O14       1.0  0.92700  0.77000  0.86900  1.0000
