data_image0
_chemical_formula_structural       B2V2
_chemical_formula_sum              "B2 V2"
_cell_length_a       2.96263
_cell_length_b       3.04029
_cell_length_c       4.28614
_cell_angle_alpha    69.2271
_cell_angle_beta     90
_cell_angle_gamma    90

_space_group_name_H-M_alt    "P 1"
_space_group_IT_number       1

loop_
  _space_group_symop_operation_xyz
  'x, y, z'

loop_
  _atom_site_type_symbol
  _atom_site_label
  _atom_site_symmetry_multiplicity
  _atom_site_fract_x
  _atom_site_fract_y
  _atom_site_fract_z
  _atom_site_occupancy
  B   B1        1.0  0.75000  0.43800  0.12400  1.0000
  B   B2        1.0  0.25000  0.56200  0.87600  1.0000
  V   V1        1.0  0.25000  0.85200  0.29600  1.0000
  V   V2        1.0  0.75000  0.14800  0.70400  1.0000
