data_image0
_chemical_formula_structural       Pd4Th4
_chemical_formula_sum              "Pd4 Th4"
_cell_length_a       7.26932
_cell_length_b       4.58723
_cell_length_c       5.86049
_cell_angle_alpha    90
_cell_angle_beta     90
_cell_angle_gamma    90

_space_group_name_H-M_alt    "P 1"
_space_group_IT_number       1

loop_
  _space_group_symop_operation_xyz
  'x, y, z'

loop_
  _atom_site_type_symbol
  _atom_site_label
  _atom_site_symmetry_multiplicity
  _atom_site_fract_x
  _atom_site_fract_y
  _atom_site_fract_z
  _atom_site_occupancy
  Pd  Pd1       1.0  0.45400  0.75000  0.14800  1.0000
  Pd  Pd2       1.0  0.95400  0.75000  0.35200  1.0000
  Pd  Pd3       1.0  0.04600  0.25000  0.64800  1.0000
  Pd  Pd4       1.0  0.54600  0.25000  0.85200  1.0000
  Th  Th1       1.0  0.18000  0.25000  0.13800  1.0000
  Th  Th2       1.0  0.68000  0.25000  0.36200  1.0000
  Th  Th3       1.0  0.32000  0.75000  0.63800  1.0000
  Th  Th4       1.0  0.82000  0.75000  0.86200  1.0000
