data_image0
_chemical_formula_structural       C2HgN2S2
_chemical_formula_sum              "C2 Hg1 N2 S2"
_cell_length_a       4.02843
_cell_length_b       5.83969
_cell_length_c       6.48638
_cell_angle_alpha    94.4494
_cell_angle_beta     90
_cell_angle_gamma    110.177

_space_group_name_H-M_alt    "P 1"
_space_group_IT_number       1

loop_
  _space_group_symop_operation_xyz
  'x, y, z'

loop_
  _atom_site_type_symbol
  _atom_site_label
  _atom_site_symmetry_multiplicity
  _atom_site_fract_x
  _atom_site_fract_y
  _atom_site_fract_z
  _atom_site_occupancy
  C   C1        1.0  0.26000  0.52100  0.22600  1.0000
  C   C2        1.0  0.74000  0.47900  0.77400  1.0000
  Hg  Hg1       1.0  0.00000  0.00000  0.00000  1.0000
  N   N1        1.0  0.35900  0.71800  0.16300  1.0000
  N   N2        1.0  0.64100  0.28200  0.83700  1.0000
  S   S1        1.0  0.12700  0.25400  0.32600  1.0000
  S   S2        1.0  0.87300  0.74600  0.67400  1.0000
