data_image0
_chemical_formula_structural       K6P2
_chemical_formula_sum              "K6 P2"
_cell_length_a       5.69174
_cell_length_b       5.69203
_cell_length_c       10.0937
_cell_angle_alpha    90
_cell_angle_beta     90
_cell_angle_gamma    119.998

_space_group_name_H-M_alt    "P 1"
_space_group_IT_number       1

loop_
  _space_group_symop_operation_xyz
  'x, y, z'

loop_
  _atom_site_type_symbol
  _atom_site_label
  _atom_site_symmetry_multiplicity
  _atom_site_fract_x
  _atom_site_fract_y
  _atom_site_fract_z
  _atom_site_occupancy
  K   K1        1.0  0.66700  0.33300  0.07940  1.0000
  K   K2        1.0  0.00000  0.00000  0.25000  1.0000
  K   K3        1.0  0.66700  0.33300  0.42100  1.0000
  K   K4        1.0  0.33300  0.66700  0.57900  1.0000
  K   K5        1.0  0.00001  0.00001  0.75000  1.0000
  K   K6        1.0  0.33300  0.66700  0.92100  1.0000
  P   P1        1.0  0.33300  0.66700  0.25000  1.0000
  P   P2        1.0  0.66700  0.33300  0.75000  1.0000
