data_image0
_chemical_formula_structural       Nd2Ru2Si4
_chemical_formula_sum              "Nd2 Ru2 Si4"
_cell_length_a       4.50247
_cell_length_b       4.08057
_cell_length_c       8.31383
_cell_angle_alpha    90
_cell_angle_beta     102.185
_cell_angle_gamma    90

_space_group_name_H-M_alt    "P 1"
_space_group_IT_number       1

loop_
  _space_group_symop_operation_xyz
  'x, y, z'

loop_
  _atom_site_type_symbol
  _atom_site_label
  _atom_site_symmetry_multiplicity
  _atom_site_fract_x
  _atom_site_fract_y
  _atom_site_fract_z
  _atom_site_occupancy
  Nd  Nd1       1.0  0.58700  0.75000  0.20100  1.0000
  Nd  Nd2       1.0  0.41300  0.25000  0.79900  1.0000
  Ru  Ru1       1.0  0.11800  0.25000  0.38700  1.0000
  Ru  Ru2       1.0  0.88200  0.75000  0.61300  1.0000
  Si  Si1       1.0  0.03630  0.25000  0.09050  1.0000
  Si  Si2       1.0  0.66600  0.25000  0.49100  1.0000
  Si  Si3       1.0  0.33400  0.75000  0.50900  1.0000
  Si  Si4       1.0  0.96400  0.75000  0.90900  1.0000
