data_image0
_chemical_formula_structural       Ga4Zr2
_chemical_formula_sum              "Ga4 Zr2"
_cell_length_a       4.01681
_cell_length_b       4.14575
_cell_length_c       6.78824
_cell_angle_alpha    90
_cell_angle_beta     107.209
_cell_angle_gamma    90

_space_group_name_H-M_alt    "P 1"
_space_group_IT_number       1

loop_
  _space_group_symop_operation_xyz
  'x, y, z'

loop_
  _atom_site_type_symbol
  _atom_site_label
  _atom_site_symmetry_multiplicity
  _atom_site_fract_x
  _atom_site_fract_y
  _atom_site_fract_z
  _atom_site_occupancy
  Ga  Ga1       1.0  0.00000  0.00000  0.00000  1.0000
  Ga  Ga2       1.0  0.50000  0.50000  0.00000  1.0000
  Ga  Ga3       1.0  0.17700  0.50000  0.35300  1.0000
  Ga  Ga4       1.0  0.82300  0.50000  0.64700  1.0000
  Zr  Zr1       1.0  0.65000  0.00000  0.30000  1.0000
  Zr  Zr2       1.0  0.35000  0.00000  0.70000  1.0000
