data_image0
_chemical_formula_structural       Si4U4
_chemical_formula_sum              "Si4 U4"
_cell_length_a       5.00513
_cell_length_b       8.63622
_cell_length_c       3.59241
_cell_angle_alpha    90
_cell_angle_beta     90
_cell_angle_gamma    89.9446

_space_group_name_H-M_alt    "P 1"
_space_group_IT_number       1

loop_
  _space_group_symop_operation_xyz
  'x, y, z'

loop_
  _atom_site_type_symbol
  _atom_site_label
  _atom_site_symmetry_multiplicity
  _atom_site_fract_x
  _atom_site_fract_y
  _atom_site_fract_z
  _atom_site_occupancy
  Si  Si1       1.0  0.65900  0.02120  0.25000  1.0000
  Si  Si2       1.0  0.84100  0.52100  0.25000  1.0000
  Si  Si3       1.0  0.15900  0.47900  0.75000  1.0000
  Si  Si4       1.0  0.34100  0.97900  0.75000  1.0000
  U   U1        1.0  0.13400  0.21400  0.25000  1.0000
  U   U2        1.0  0.36500  0.71400  0.25000  1.0000
  U   U3        1.0  0.63500  0.28600  0.75000  1.0000
  U   U4        1.0  0.86600  0.78600  0.75000  1.0000
