data_image0
_chemical_formula_structural       Hg4K4
_chemical_formula_sum              "Hg4 K4"
_cell_length_a       6.73083
_cell_length_b       6.95148
_cell_length_c       7.19679
_cell_angle_alpha    106.304
_cell_angle_beta     102.166
_cell_angle_gamma    92.5473

_space_group_name_H-M_alt    "P 1"
_space_group_IT_number       1

loop_
  _space_group_symop_operation_xyz
  'x, y, z'

loop_
  _atom_site_type_symbol
  _atom_site_label
  _atom_site_symmetry_multiplicity
  _atom_site_fract_x
  _atom_site_fract_y
  _atom_site_fract_z
  _atom_site_occupancy
  Hg  Hg1       1.0  0.87800  0.29700  0.05060  1.0000
  Hg  Hg2       1.0  0.20200  0.10200  0.29600  1.0000
  Hg  Hg3       1.0  0.79800  0.89800  0.70400  1.0000
  Hg  Hg4       1.0  0.12200  0.70300  0.94900  1.0000
  K   K1        1.0  0.67400  0.79900  0.14300  1.0000
  K   K2        1.0  0.24500  0.65800  0.46400  1.0000
  K   K3        1.0  0.75500  0.34200  0.53600  1.0000
  K   K4        1.0  0.32600  0.20100  0.85700  1.0000
