data_image0
_chemical_formula_structural       ErGa4Ti2
_chemical_formula_sum              "Er1 Ga4 Ti2"
_cell_length_a       5.43199
_cell_length_b       5.47775
_cell_length_c       5.47775
_cell_angle_alpha    104.231
_cell_angle_beta     60.276
_cell_angle_gamma    119.724

_space_group_name_H-M_alt    "P 1"
_space_group_IT_number       1

loop_
  _space_group_symop_operation_xyz
  'x, y, z'

loop_
  _atom_site_type_symbol
  _atom_site_label
  _atom_site_symmetry_multiplicity
  _atom_site_fract_x
  _atom_site_fract_y
  _atom_site_fract_z
  _atom_site_occupancy
  Er  Er1       1.0  0.00000  0.00000  0.00000  1.0000
  Ga  Ga1       1.0  0.69800  0.39700  0.00000  1.0000
  Ga  Ga2       1.0  0.30200  0.60300  0.00000  1.0000
  Ga  Ga3       1.0  0.30200  0.00000  0.39700  1.0000
  Ga  Ga4       1.0  0.69800  0.00000  0.60300  1.0000
  Ti  Ti1       1.0  0.25000  0.50000  0.50000  1.0000
  Ti  Ti2       1.0  0.75000  0.50000  0.50000  1.0000
