data_image0
_chemical_formula_structural       Cs4Hg4
_chemical_formula_sum              "Cs4 Hg4"
_cell_length_a       7.18542
_cell_length_b       7.50758
_cell_length_c       7.64417
_cell_angle_alpha    107.752
_cell_angle_beta     103.167
_cell_angle_gamma    91.2026

_space_group_name_H-M_alt    "P 1"
_space_group_IT_number       1

loop_
  _space_group_symop_operation_xyz
  'x, y, z'

loop_
  _atom_site_type_symbol
  _atom_site_label
  _atom_site_symmetry_multiplicity
  _atom_site_fract_x
  _atom_site_fract_y
  _atom_site_fract_z
  _atom_site_occupancy
  Cs  Cs1       1.0  0.68400  0.78700  0.14000  1.0000
  Cs  Cs2       1.0  0.24300  0.65700  0.44900  1.0000
  Cs  Cs3       1.0  0.75700  0.34300  0.55100  1.0000
  Cs  Cs4       1.0  0.31600  0.21300  0.86000  1.0000
  Hg  Hg1       1.0  0.86600  0.26000  0.05620  1.0000
  Hg  Hg2       1.0  0.19500  0.10400  0.29000  1.0000
  Hg  Hg3       1.0  0.80500  0.89600  0.71000  1.0000
  Hg  Hg4       1.0  0.13400  0.74000  0.94400  1.0000
