data_image0
_chemical_formula_structural       Ge4Se4
_chemical_formula_sum              "Ge4 Se4"
_cell_length_a       4.45065
_cell_length_b       3.89976
_cell_length_c       10.9861
_cell_angle_alpha    90
_cell_angle_beta     90
_cell_angle_gamma    90

_space_group_name_H-M_alt    "P 1"
_space_group_IT_number       1

loop_
  _space_group_symop_operation_xyz
  'x, y, z'

loop_
  _atom_site_type_symbol
  _atom_site_label
  _atom_site_symmetry_multiplicity
  _atom_site_fract_x
  _atom_site_fract_y
  _atom_site_fract_z
  _atom_site_occupancy
  Ge  Ge1       1.0  0.89000  0.75000  0.12200  1.0000
  Ge  Ge2       1.0  0.39000  0.25000  0.37800  1.0000
  Ge  Ge3       1.0  0.61000  0.75000  0.62200  1.0000
  Ge  Ge4       1.0  0.11000  0.25000  0.87800  1.0000
  Se  Se1       1.0  0.50600  0.25000  0.14700  1.0000
  Se  Se2       1.0  0.00566  0.75000  0.35300  1.0000
  Se  Se3       1.0  0.99400  0.25000  0.64700  1.0000
  Se  Se4       1.0  0.49400  0.75000  0.85300  1.0000
