data_image0
_chemical_formula_structural       MgNp
_chemical_formula_sum              "Mg1 Np1"
_cell_length_a       5.95269
_cell_length_b       5.95269
_cell_length_c       5.95269
_cell_angle_alpha    28.4018
_cell_angle_beta     28.4018
_cell_angle_gamma    28.4018

_space_group_name_H-M_alt    "P 1"
_space_group_IT_number       1

loop_
  _space_group_symop_operation_xyz
  'x, y, z'

loop_
  _atom_site_type_symbol
  _atom_site_label
  _atom_site_symmetry_multiplicity
  _atom_site_fract_x
  _atom_site_fract_y
  _atom_site_fract_z
  _atom_site_occupancy
  Mg  Mg1       1.0  0.00000  0.00000  0.00000  1.0000
  Np  Np1       1.0  0.50000  0.50000  0.50000  1.0000
