data_image0
_chemical_formula_structural       Ga4Pd4
_chemical_formula_sum              "Ga4 Pd4"
_cell_length_a       4.95476
_cell_length_b       4.95476
_cell_length_c       4.95476
_cell_angle_alpha    90
_cell_angle_beta     90
_cell_angle_gamma    90

_space_group_name_H-M_alt    "P 1"
_space_group_IT_number       1

loop_
  _space_group_symop_operation_xyz
  'x, y, z'

loop_
  _atom_site_type_symbol
  _atom_site_label
  _atom_site_symmetry_multiplicity
  _atom_site_fract_x
  _atom_site_fract_y
  _atom_site_fract_z
  _atom_site_occupancy
  Ga  Ga1       1.0  0.09310  0.09310  0.09310  1.0000
  Ga  Ga2       1.0  0.90700  0.59300  0.40700  1.0000
  Ga  Ga3       1.0  0.40700  0.90700  0.59300  1.0000
  Ga  Ga4       1.0  0.59300  0.40700  0.90700  1.0000
  Pd  Pd1       1.0  0.60700  0.89300  0.10700  1.0000
  Pd  Pd2       1.0  0.39300  0.39300  0.39300  1.0000
  Pd  Pd3       1.0  0.89300  0.10700  0.60700  1.0000
  Pd  Pd4       1.0  0.10700  0.60700  0.89300  1.0000
