data_image0
_chemical_formula_structural       Ca6P6
_chemical_formula_sum              "Ca6 P6"
_cell_length_a       7.63996
_cell_length_b       7.63996
_cell_length_c       5.71865
_cell_angle_alpha    90
_cell_angle_beta     90
_cell_angle_gamma    120.003

_space_group_name_H-M_alt    "P 1"
_space_group_IT_number       1

loop_
  _space_group_symop_operation_xyz
  'x, y, z'

loop_
  _atom_site_type_symbol
  _atom_site_label
  _atom_site_symmetry_multiplicity
  _atom_site_fract_x
  _atom_site_fract_y
  _atom_site_fract_z
  _atom_site_occupancy
  Ca  Ca1       1.0  0.30800  1.00000  0.00000  1.0000
  Ca  Ca2       1.0  1.00000  0.30800  0.00000  1.0000
  Ca  Ca3       1.0  0.69200  0.69200  0.00000  1.0000
  Ca  Ca4       1.0  0.64200  0.00008  0.50000  1.0000
  Ca  Ca5       1.0  0.35800  0.35800  0.50000  1.0000
  Ca  Ca6       1.0  0.00008  0.64200  0.50000  1.0000
  P   P1        1.0  0.66700  0.33300  0.20200  1.0000
  P   P2        1.0  0.33300  0.66700  0.20200  1.0000
  P   P3        1.0  0.00003  0.00003  0.30300  1.0000
  P   P4        1.0  0.00003  0.00003  0.69700  1.0000
  P   P5        1.0  0.66700  0.33300  0.79800  1.0000
  P   P6        1.0  0.33300  0.66700  0.79800  1.0000
