data_image0
_chemical_formula_structural       Ca2Sn2
_chemical_formula_sum              "Ca2 Sn2"
_cell_length_a       4.3746
_cell_length_b       4.79988
_cell_length_c       6.26808
_cell_angle_alpha    67.4876
_cell_angle_beta     90
_cell_angle_gamma    90

_space_group_name_H-M_alt    "P 1"
_space_group_IT_number       1

loop_
  _space_group_symop_operation_xyz
  'x, y, z'

loop_
  _atom_site_type_symbol
  _atom_site_label
  _atom_site_symmetry_multiplicity
  _atom_site_fract_x
  _atom_site_fract_y
  _atom_site_fract_z
  _atom_site_occupancy
  Ca  Ca1       1.0  0.25000  0.86600  0.26700  1.0000
  Ca  Ca2       1.0  0.75000  0.13400  0.73300  1.0000
  Sn  Sn1       1.0  0.75000  0.41500  0.17100  1.0000
  Sn  Sn2       1.0  0.25000  0.58500  0.82900  1.0000
