data_image0
_chemical_formula_structural       CrNb2Se4
_chemical_formula_sum              "Cr1 Nb2 Se4"
_cell_length_a       3.52082
_cell_length_b       6.36738
_cell_length_c       7.06096
_cell_angle_alpha    65.1885
_cell_angle_beta     104.437
_cell_angle_gamma    90

_space_group_name_H-M_alt    "P 1"
_space_group_IT_number       1

loop_
  _space_group_symop_operation_xyz
  'x, y, z'

loop_
  _atom_site_type_symbol
  _atom_site_label
  _atom_site_symmetry_multiplicity
  _atom_site_fract_x
  _atom_site_fract_y
  _atom_site_fract_z
  _atom_site_occupancy
  Cr  Cr1       1.0  0.82200  0.39300  0.64300  1.0000
  Nb  Nb1       1.0  0.56400  0.71400  0.12900  1.0000
  Nb  Nb2       1.0  0.07810  0.07300  0.15600  1.0000
  Se  Se1       1.0  0.18600  0.36900  0.37300  1.0000
  Se  Se2       1.0  0.72100  0.83900  0.44300  1.0000
  Se  Se3       1.0  0.92100  0.94900  0.84200  1.0000
  Se  Se4       1.0  0.45700  0.41900  0.91400  1.0000
