data_image0
_chemical_formula_structural       La4Mg4Si8
_chemical_formula_sum              "La4 Mg4 Si8"
_cell_length_a       18.7387
_cell_length_b       4.31737
_cell_length_c       4.31737
_cell_angle_alpha    90
_cell_angle_beta     96.6151
_cell_angle_gamma    96.6151

_space_group_name_H-M_alt    "P 1"
_space_group_IT_number       1

loop_
  _space_group_symop_operation_xyz
  'x, y, z'

loop_
  _atom_site_type_symbol
  _atom_site_label
  _atom_site_symmetry_multiplicity
  _atom_site_fract_x
  _atom_site_fract_y
  _atom_site_fract_z
  _atom_site_occupancy
  La  La1       1.0  0.59600  0.79800  0.04800  1.0000
  La  La2       1.0  0.90400  0.95200  0.20200  1.0000
  La  La3       1.0  0.09600  0.04800  0.79800  1.0000
  La  La4       1.0  0.40400  0.20200  0.95200  1.0000
  Mg  Mg1       1.0  0.75000  0.37500  0.12500  1.0000
  Mg  Mg2       1.0  0.25000  0.12500  0.37500  1.0000
  Mg  Mg3       1.0  0.75000  0.87500  0.62500  1.0000
  Mg  Mg4       1.0  0.25000  0.62500  0.87500  1.0000
  Si  Si1       1.0  0.02840  0.51400  0.26400  1.0000
  Si  Si2       1.0  0.15500  0.57700  0.32700  1.0000
  Si  Si3       1.0  0.34500  0.67300  0.42300  1.0000
  Si  Si4       1.0  0.47200  0.73600  0.48600  1.0000
  Si  Si5       1.0  0.52800  0.26400  0.51400  1.0000
  Si  Si6       1.0  0.65500  0.32700  0.57700  1.0000
  Si  Si7       1.0  0.84500  0.42300  0.67300  1.0000
  Si  Si8       1.0  0.97200  0.48600  0.73600  1.0000
