data_image0
_chemical_formula_structural       Cr4P4
_chemical_formula_sum              "Cr4 P4"
_cell_length_a       5.3286
_cell_length_b       3.05671
_cell_length_c       5.93569
_cell_angle_alpha    90
_cell_angle_beta     90
_cell_angle_gamma    90

_space_group_name_H-M_alt    "P 1"
_space_group_IT_number       1

loop_
  _space_group_symop_operation_xyz
  'x, y, z'

loop_
  _atom_site_type_symbol
  _atom_site_label
  _atom_site_symmetry_multiplicity
  _atom_site_fract_x
  _atom_site_fract_y
  _atom_site_fract_z
  _atom_site_occupancy
  Cr  Cr1       1.0  0.00876  0.25000  0.19000  1.0000
  Cr  Cr2       1.0  0.50900  0.25000  0.31000  1.0000
  Cr  Cr3       1.0  0.49100  0.75000  0.69000  1.0000
  Cr  Cr4       1.0  0.99100  0.75000  0.81000  1.0000
  P   P1        1.0  0.31700  0.75000  0.06460  1.0000
  P   P2        1.0  0.81700  0.75000  0.43500  1.0000
  P   P3        1.0  0.18300  0.25000  0.56500  1.0000
  P   P4        1.0  0.68300  0.25000  0.93500  1.0000
