data_image0
_chemical_formula_structural       La2Pt2
_chemical_formula_sum              "La2 Pt2"
_cell_length_a       3.97951
_cell_length_b       4.56642
_cell_length_c       5.90172
_cell_angle_alpha    90
_cell_angle_beta     70.2968
_cell_angle_gamma    90

_space_group_name_H-M_alt    "P 1"
_space_group_IT_number       1

loop_
  _space_group_symop_operation_xyz
  'x, y, z'

loop_
  _atom_site_type_symbol
  _atom_site_label
  _atom_site_symmetry_multiplicity
  _atom_site_fract_x
  _atom_site_fract_y
  _atom_site_fract_z
  _atom_site_occupancy
  La  La1       1.0  0.86500  0.25000  0.27100  1.0000
  La  La2       1.0  0.13500  0.75000  0.72900  1.0000
  Pt  Pt1       1.0  0.40800  0.75000  0.18500  1.0000
  Pt  Pt2       1.0  0.59200  0.25000  0.81500  1.0000
