data_image0
_chemical_formula_structural       Na24Te24
_chemical_formula_sum              "Na24 Te24"
_cell_length_a       15.5983
_cell_length_b       9.72311
_cell_length_c       8.9651
_cell_angle_alpha    90
_cell_angle_beta     90
_cell_angle_gamma    90

_space_group_name_H-M_alt    "P 1"
_space_group_IT_number       1

loop_
  _space_group_symop_operation_xyz
  'x, y, z'

loop_
  _atom_site_type_symbol
  _atom_site_label
  _atom_site_symmetry_multiplicity
  _atom_site_fract_x
  _atom_site_fract_y
  _atom_site_fract_z
  _atom_site_occupancy
  Na  Na1       1.0  0.46900  0.82100  0.05720  1.0000
  Na  Na2       1.0  0.03060  0.67900  0.55700  1.0000
  Na  Na3       1.0  0.96900  0.67900  0.94300  1.0000
  Na  Na4       1.0  0.53100  0.82100  0.44300  1.0000
  Na  Na5       1.0  0.53100  0.17900  0.94300  1.0000
  Na  Na6       1.0  0.96900  0.32100  0.44300  1.0000
  Na  Na7       1.0  0.03060  0.32100  0.05720  1.0000
  Na  Na8       1.0  0.46900  0.17900  0.55700  1.0000
  Na  Na9       1.0  0.30900  0.98800  0.27400  1.0000
  Na  Na10      1.0  0.19100  0.51200  0.77400  1.0000
  Na  Na11      1.0  0.80900  0.51200  0.72600  1.0000
  Na  Na12      1.0  0.69100  0.98800  0.22600  1.0000
  Na  Na13      1.0  0.69100  0.01170  0.72600  1.0000
  Na  Na14      1.0  0.80900  0.48800  0.22600  1.0000
  Na  Na15      1.0  0.19100  0.48800  0.27400  1.0000
  Na  Na16      1.0  0.30900  0.01170  0.77400  1.0000
  Na  Na17      1.0  0.11400  0.82800  0.24100  1.0000
  Na  Na18      1.0  0.38600  0.67200  0.74100  1.0000
  Na  Na19      1.0  0.61400  0.67200  0.75900  1.0000
  Na  Na20      1.0  0.88600  0.82800  0.25900  1.0000
  Na  Na21      1.0  0.88600  0.17200  0.75900  1.0000
  Na  Na22      1.0  0.61400  0.32800  0.25900  1.0000
  Na  Na23      1.0  0.38600  0.32800  0.24100  1.0000
  Na  Na24      1.0  0.11400  0.17200  0.74100  1.0000
  Te  Te1       1.0  0.00000  0.00000  0.00000  1.0000
  Te  Te2       1.0  0.50000  0.50000  0.50000  1.0000
  Te  Te3       1.0  0.50000  0.50000  0.00000  1.0000
  Te  Te4       1.0  0.00000  0.00000  0.50000  1.0000
  Te  Te5       1.0  0.63200  0.35700  0.69800  1.0000
  Te  Te6       1.0  0.86800  0.14300  0.19800  1.0000
  Te  Te7       1.0  0.13200  0.14300  0.30200  1.0000
  Te  Te8       1.0  0.36800  0.35700  0.80200  1.0000
  Te  Te9       1.0  0.36800  0.64300  0.30200  1.0000
  Te  Te10      1.0  0.13200  0.85700  0.80200  1.0000
  Te  Te11      1.0  0.86800  0.85700  0.69800  1.0000
  Te  Te12      1.0  0.63200  0.64300  0.19800  1.0000
  Te  Te13      1.0  0.75400  0.24400  0.48700  1.0000
  Te  Te14      1.0  0.74600  0.25600  0.98700  1.0000
  Te  Te15      1.0  0.25400  0.25600  0.51300  1.0000
  Te  Te16      1.0  0.24600  0.24400  0.01260  1.0000
  Te  Te17      1.0  0.24600  0.75600  0.51300  1.0000
  Te  Te18      1.0  0.25400  0.74400  0.01260  1.0000
  Te  Te19      1.0  0.74600  0.74400  0.48700  1.0000
  Te  Te20      1.0  0.75400  0.75600  0.98700  1.0000
  Te  Te21      1.0  0.00000  0.57000  0.25000  1.0000
  Te  Te22      1.0  0.50000  0.93000  0.75000  1.0000
  Te  Te23      1.0  0.00000  0.43000  0.75000  1.0000
  Te  Te24      1.0  0.50000  0.07040  0.25000  1.0000
