data_image0
_chemical_formula_structural       Dy4Ni4
_chemical_formula_sum              "Dy4 Ni4"
_cell_length_a       6.94691
_cell_length_b       4.25576
_cell_length_c       5.36039
_cell_angle_alpha    90
_cell_angle_beta     90
_cell_angle_gamma    90

_space_group_name_H-M_alt    "P 1"
_space_group_IT_number       1

loop_
  _space_group_symop_operation_xyz
  'x, y, z'

loop_
  _atom_site_type_symbol
  _atom_site_label
  _atom_site_symmetry_multiplicity
  _atom_site_fract_x
  _atom_site_fract_y
  _atom_site_fract_z
  _atom_site_occupancy
  Dy  Dy1       1.0  0.18200  0.25000  0.14000  1.0000
  Dy  Dy2       1.0  0.68200  0.25000  0.36000  1.0000
  Dy  Dy3       1.0  0.31800  0.75000  0.64000  1.0000
  Dy  Dy4       1.0  0.81800  0.75000  0.86000  1.0000
  Ni  Ni1       1.0  0.46400  0.75000  0.13200  1.0000
  Ni  Ni2       1.0  0.96400  0.75000  0.36800  1.0000
  Ni  Ni3       1.0  0.03580  0.25000  0.63200  1.0000
  Ni  Ni4       1.0  0.53600  0.25000  0.86800  1.0000
