data_image0
_chemical_formula_structural       C2Cu2N4
_chemical_formula_sum              "C2 Cu2 N4"
_cell_length_a       2.96899
_cell_length_b       3.39861
_cell_length_c       9.41367
_cell_angle_alpha    90
_cell_angle_beta     90
_cell_angle_gamma    64.1005

_space_group_name_H-M_alt    "P 1"
_space_group_IT_number       1

loop_
  _space_group_symop_operation_xyz
  'x, y, z'

loop_
  _atom_site_type_symbol
  _atom_site_label
  _atom_site_symmetry_multiplicity
  _atom_site_fract_x
  _atom_site_fract_y
  _atom_site_fract_z
  _atom_site_occupancy
  C   C1        1.0  0.61200  0.77600  0.25000  1.0000
  C   C2        1.0  0.38800  0.22400  0.75000  1.0000
  Cu  Cu1       1.0  0.00000  0.00000  0.00000  1.0000
  Cu  Cu2       1.0  0.00000  0.00000  0.50000  1.0000
  N   N1        1.0  0.62200  0.75600  0.11900  1.0000
  N   N2        1.0  0.62200  0.75600  0.38100  1.0000
  N   N3        1.0  0.37800  0.24400  0.61900  1.0000
  N   N4        1.0  0.37800  0.24400  0.88100  1.0000
