data_image0
_chemical_formula_structural       Ce4Cu4
_chemical_formula_sum              "Ce4 Cu4"
_cell_length_a       7.34079
_cell_length_b       4.46976
_cell_length_c       5.91156
_cell_angle_alpha    90
_cell_angle_beta     90
_cell_angle_gamma    90

_space_group_name_H-M_alt    "P 1"
_space_group_IT_number       1

loop_
  _space_group_symop_operation_xyz
  'x, y, z'

loop_
  _atom_site_type_symbol
  _atom_site_label
  _atom_site_symmetry_multiplicity
  _atom_site_fract_x
  _atom_site_fract_y
  _atom_site_fract_z
  _atom_site_occupancy
  Ce  Ce1       1.0  0.17700  0.25000  0.13400  1.0000
  Ce  Ce2       1.0  0.67700  0.25000  0.36600  1.0000
  Ce  Ce3       1.0  0.32300  0.75000  0.63400  1.0000
  Ce  Ce4       1.0  0.82300  0.75000  0.86600  1.0000
  Cu  Cu1       1.0  0.46500  0.75000  0.11700  1.0000
  Cu  Cu2       1.0  0.96500  0.75000  0.38300  1.0000
  Cu  Cu3       1.0  0.03500  0.25000  0.61700  1.0000
  Cu  Cu4       1.0  0.53500  0.25000  0.88300  1.0000
