data_image0
_chemical_formula_structural       Cu8K6S8
_chemical_formula_sum              "Cu8 K6 S8"
_cell_length_a       15.7057
_cell_length_b       7.78458
_cell_length_c       3.82829
_cell_angle_alpha    90
_cell_angle_beta     90
_cell_angle_gamma    90

_space_group_name_H-M_alt    "P 1"
_space_group_IT_number       1

loop_
  _space_group_symop_operation_xyz
  'x, y, z'

loop_
  _atom_site_type_symbol
  _atom_site_label
  _atom_site_symmetry_multiplicity
  _atom_site_fract_x
  _atom_site_fract_y
  _atom_site_fract_z
  _atom_site_occupancy
  Cu  Cu1       1.0  0.56500  0.16200  0.00000  1.0000
  Cu  Cu2       1.0  0.06470  0.33800  0.00000  1.0000
  Cu  Cu3       1.0  0.93500  0.66200  0.00000  1.0000
  Cu  Cu4       1.0  0.43500  0.83800  0.00000  1.0000
  Cu  Cu5       1.0  0.41600  0.05930  0.50000  1.0000
  Cu  Cu6       1.0  0.91600  0.44100  0.50000  1.0000
  Cu  Cu7       1.0  0.08430  0.55900  0.50000  1.0000
  Cu  Cu8       1.0  0.58400  0.94100  0.50000  1.0000
  K   K1        1.0  0.23200  0.00348  0.00000  1.0000
  K   K2        1.0  0.73200  0.49700  0.00000  1.0000
  K   K3        1.0  0.26800  0.50300  0.00000  1.0000
  K   K4        1.0  0.76800  0.99700  0.00000  1.0000
  K   K5        1.0  0.00000  0.00000  0.50000  1.0000
  K   K6        1.0  0.50000  0.50000  0.50000  1.0000
  S   S1        1.0  0.41900  0.21700  0.00000  1.0000
  S   S2        1.0  0.91900  0.28300  0.00000  1.0000
  S   S3        1.0  0.08090  0.71700  0.00000  1.0000
  S   S4        1.0  0.58100  0.78300  0.00000  1.0000
  S   S5        1.0  0.64300  0.21400  0.50000  1.0000
  S   S6        1.0  0.14300  0.28600  0.50000  1.0000
  S   S7        1.0  0.85700  0.71400  0.50000  1.0000
  S   S8        1.0  0.35700  0.78600  0.50000  1.0000
