data_image0
_chemical_formula_structural       Cd2Li6O7
_chemical_formula_sum              "Cd2 Li6 O7"
_cell_length_a       5.31051
_cell_length_b       5.95365
_cell_length_c       5.22894
_cell_angle_alpha    89.4789
_cell_angle_beta     100.191
_cell_angle_gamma    107.337

_space_group_name_H-M_alt    "P 1"
_space_group_IT_number       1

loop_
  _space_group_symop_operation_xyz
  'x, y, z'

loop_
  _atom_site_type_symbol
  _atom_site_label
  _atom_site_symmetry_multiplicity
  _atom_site_fract_x
  _atom_site_fract_y
  _atom_site_fract_z
  _atom_site_occupancy
  Cd  Cd1       1.0  0.49900  0.88100  0.24600  1.0000
  Cd  Cd2       1.0  0.00117  0.74400  0.50400  1.0000
  Li  Li1       1.0  0.97500  0.50700  0.00516  1.0000
  Li  Li2       1.0  0.97200  0.98100  0.00688  1.0000
  Li  Li3       1.0  0.52500  0.37600  0.29300  1.0000
  Li  Li4       1.0  0.97500  0.24900  0.45700  1.0000
  Li  Li5       1.0  0.52800  0.64400  0.74300  1.0000
  Li  Li6       1.0  0.52500  0.11800  0.74500  1.0000
  O   O1        1.0  0.73000  0.19700  0.10400  1.0000
  O   O2        1.0  0.73100  0.66900  0.12000  1.0000
  O   O3        1.0  0.25700  0.54900  0.37500  1.0000
  O   O4        1.0  0.24300  0.07640  0.37500  1.0000
  O   O5        1.0  0.76900  0.95600  0.63000  1.0000
  O   O6        1.0  0.77000  0.42800  0.64600  1.0000
  O   O7        1.0  0.25000  0.81200  0.87500  1.0000
