data_image0
_chemical_formula_structural       Cu2Li6O7
_chemical_formula_sum              "Cu2 Li6 O7"
_cell_length_a       4.90517
_cell_length_b       5.60006
_cell_length_c       5.03184
_cell_angle_alpha    89.3638
_cell_angle_beta     98.8864
_cell_angle_gamma    107.448

_space_group_name_H-M_alt    "P 1"
_space_group_IT_number       1

loop_
  _space_group_symop_operation_xyz
  'x, y, z'

loop_
  _atom_site_type_symbol
  _atom_site_label
  _atom_site_symmetry_multiplicity
  _atom_site_fract_x
  _atom_site_fract_y
  _atom_site_fract_z
  _atom_site_occupancy
  Cu  Cu1       1.0  0.49100  0.87500  0.23800  1.0000
  Cu  Cu2       1.0  0.00913  0.75000  0.51200  1.0000
  Li  Li1       1.0  0.97700  0.97700  0.00751  1.0000
  Li  Li2       1.0  0.96700  0.51500  0.00844  1.0000
  Li  Li3       1.0  0.52300  0.37600  0.29600  1.0000
  Li  Li4       1.0  0.97700  0.24900  0.45400  1.0000
  Li  Li5       1.0  0.53300  0.11000  0.74200  1.0000
  Li  Li6       1.0  0.52300  0.64800  0.74200  1.0000
  O   O1        1.0  0.71700  0.17000  0.11200  1.0000
  O   O2        1.0  0.70700  0.68500  0.13500  1.0000
  O   O3        1.0  0.25800  0.04240  0.37400  1.0000
  O   O4        1.0  0.24200  0.58300  0.37600  1.0000
  O   O5        1.0  0.79300  0.94000  0.61500  1.0000
  O   O6        1.0  0.78300  0.45500  0.63800  1.0000
  O   O7        1.0  0.25000  0.81200  0.87500  1.0000
