data_image0
_chemical_formula_structural       Ga2Li6O7
_chemical_formula_sum              "Ga2 Li6 O7"
_cell_length_a       5.05432
_cell_length_b       5.70746
_cell_length_c       5.05855
_cell_angle_alpha    89.5429
_cell_angle_beta     100.63
_cell_angle_gamma    106.81

_space_group_name_H-M_alt    "P 1"
_space_group_IT_number       1

loop_
  _space_group_symop_operation_xyz
  'x, y, z'

loop_
  _atom_site_type_symbol
  _atom_site_label
  _atom_site_symmetry_multiplicity
  _atom_site_fract_x
  _atom_site_fract_y
  _atom_site_fract_z
  _atom_site_occupancy
  Ga  Ga1       1.0  0.49200  0.87600  0.23900  1.0000
  Ga  Ga2       1.0  0.00818  0.74900  0.51100  1.0000
  Li  Li1       1.0  0.97600  0.97800  0.00338  1.0000
  Li  Li2       1.0  0.95400  0.50200  0.01770  1.0000
  Li  Li3       1.0  0.50800  0.37500  0.29600  1.0000
  Li  Li4       1.0  0.99200  0.25000  0.45400  1.0000
  Li  Li5       1.0  0.54600  0.12300  0.73200  1.0000
  Li  Li6       1.0  0.52400  0.64700  0.74700  1.0000
  O   O1        1.0  0.72300  0.17700  0.11200  1.0000
  O   O2        1.0  0.72800  0.68500  0.14400  1.0000
  O   O3        1.0  0.24500  0.57400  0.37400  1.0000
  O   O4        1.0  0.25500  0.05100  0.37600  1.0000
  O   O5        1.0  0.77200  0.94000  0.60600  1.0000
  O   O6        1.0  0.77700  0.44800  0.63800  1.0000
  O   O7        1.0  0.25000  0.81200  0.87500  1.0000
