data_image0
_chemical_formula_structural       Bi8O16Pt4
_chemical_formula_sum              "Bi8 O16 Pt4"
_cell_length_a       8.56131
_cell_length_b       8.56131
_cell_length_c       6.04655
_cell_angle_alpha    90
_cell_angle_beta     90
_cell_angle_gamma    90

_space_group_name_H-M_alt    "P 1"
_space_group_IT_number       1

loop_
  _space_group_symop_operation_xyz
  'x, y, z'

loop_
  _atom_site_type_symbol
  _atom_site_label
  _atom_site_symmetry_multiplicity
  _atom_site_fract_x
  _atom_site_fract_y
  _atom_site_fract_z
  _atom_site_occupancy
  Bi  Bi1       1.0  0.91800  0.08170  0.25000  1.0000
  Bi  Bi2       1.0  0.58200  0.41800  0.25000  1.0000
  Bi  Bi3       1.0  0.08170  0.58200  0.25000  1.0000
  Bi  Bi4       1.0  0.41800  0.91800  0.25000  1.0000
  Bi  Bi5       1.0  0.58200  0.08170  0.75000  1.0000
  Bi  Bi6       1.0  0.91800  0.41800  0.75000  1.0000
  Bi  Bi7       1.0  0.41800  0.58200  0.75000  1.0000
  Bi  Bi8       1.0  0.08170  0.91800  0.75000  1.0000
  O   O1        1.0  0.14700  0.03440  0.09130  1.0000
  O   O2        1.0  0.46600  0.14700  0.09130  1.0000
  O   O3        1.0  0.03440  0.35300  0.09130  1.0000
  O   O4        1.0  0.35300  0.46600  0.09130  1.0000
  O   O5        1.0  0.85300  0.53400  0.40900  1.0000
  O   O6        1.0  0.53400  0.64700  0.40900  1.0000
  O   O7        1.0  0.96600  0.85300  0.40900  1.0000
  O   O8        1.0  0.64700  0.96600  0.40900  1.0000
  O   O9        1.0  0.35300  0.03440  0.59100  1.0000
  O   O10       1.0  0.03440  0.14700  0.59100  1.0000
  O   O11       1.0  0.46600  0.35300  0.59100  1.0000
  O   O12       1.0  0.14700  0.46600  0.59100  1.0000
  O   O13       1.0  0.64700  0.53400  0.90900  1.0000
  O   O14       1.0  0.96600  0.64700  0.90900  1.0000
  O   O15       1.0  0.53400  0.85300  0.90900  1.0000
  O   O16       1.0  0.85300  0.96600  0.90900  1.0000
  Pt  Pt1       1.0  0.25000  0.25000  0.08290  1.0000
  Pt  Pt2       1.0  0.75000  0.75000  0.41700  1.0000
  Pt  Pt3       1.0  0.25000  0.25000  0.58300  1.0000
  Pt  Pt4       1.0  0.75000  0.75000  0.91700  1.0000
