data_image0
_chemical_formula_structural       Cr2Li6O7
_chemical_formula_sum              "Cr2 Li6 O7"
_cell_length_a       4.99721
_cell_length_b       5.72
_cell_length_c       4.97086
_cell_angle_alpha    88.3942
_cell_angle_beta     101.344
_cell_angle_gamma    107.456

_space_group_name_H-M_alt    "P 1"
_space_group_IT_number       1

loop_
  _space_group_symop_operation_xyz
  'x, y, z'

loop_
  _atom_site_type_symbol
  _atom_site_label
  _atom_site_symmetry_multiplicity
  _atom_site_fract_x
  _atom_site_fract_y
  _atom_site_fract_z
  _atom_site_occupancy
  Cr  Cr1       1.0  0.49800  0.88200  0.24100  1.0000
  Cr  Cr2       1.0  0.00199  0.74300  0.50900  1.0000
  Li  Li1       1.0  0.97600  0.98100  0.00373  1.0000
  Li  Li2       1.0  0.95800  0.50500  0.01540  1.0000
  Li  Li3       1.0  0.51000  0.37400  0.29400  1.0000
  Li  Li4       1.0  0.99000  0.25100  0.45600  1.0000
  Li  Li5       1.0  0.54200  0.12000  0.73500  1.0000
  Li  Li6       1.0  0.52400  0.64400  0.74600  1.0000
  O   O1        1.0  0.71500  0.17100  0.11500  1.0000
  O   O2        1.0  0.74200  0.69100  0.15500  1.0000
  O   O3        1.0  0.25200  0.58000  0.37400  1.0000
  O   O4        1.0  0.24800  0.04490  0.37600  1.0000
  O   O5        1.0  0.75800  0.93400  0.59500  1.0000
  O   O6        1.0  0.78500  0.45400  0.63500  1.0000
  O   O7        1.0  0.25000  0.81300  0.87500  1.0000
