data_image0
_chemical_formula_structural       Gd2Li6O7
_chemical_formula_sum              "Gd2 Li6 O7"
_cell_length_a       5.57657
_cell_length_b       6.19393
_cell_length_c       5.53997
_cell_angle_alpha    85.1408
_cell_angle_beta     100.555
_cell_angle_gamma    111.101

_space_group_name_H-M_alt    "P 1"
_space_group_IT_number       1

loop_
  _space_group_symop_operation_xyz
  'x, y, z'

loop_
  _atom_site_type_symbol
  _atom_site_label
  _atom_site_symmetry_multiplicity
  _atom_site_fract_x
  _atom_site_fract_y
  _atom_site_fract_z
  _atom_site_occupancy
  Gd  Gd1       1.0  0.50600  0.89300  0.23200  1.0000
  Gd  Gd2       1.0  0.99400  0.73200  0.51800  1.0000
  Li  Li1       1.0  0.90000  0.50200  0.00522  1.0000
  Li  Li2       1.0  0.46600  0.39300  0.32800  1.0000
  Li  Li3       1.0  0.03360  0.23200  0.42200  1.0000
  Li  Li4       1.0  0.60000  0.12300  0.74500  1.0000
  Li  Li5       1.0  0.50800  0.64700  0.77100  1.0000
  Li  Li6       1.0  0.99200  0.97800  0.97900  1.0000
  O   O1        1.0  0.82300  0.18600  0.08130  1.0000
  O   O2        1.0  0.71400  0.65900  0.14200  1.0000
  O   O3        1.0  0.24000  0.06640  0.31800  1.0000
  O   O4        1.0  0.26000  0.55900  0.43200  1.0000
  O   O5        1.0  0.78600  0.96600  0.60800  1.0000
  O   O6        1.0  0.67700  0.43900  0.66900  1.0000
  O   O7        1.0  0.25000  0.81300  0.87500  1.0000
