data_image0
_chemical_formula_structural       Hf2Li6O7
_chemical_formula_sum              "Hf2 Li6 O7"
_cell_length_a       5.27477
_cell_length_b       5.96204
_cell_length_c       5.25443
_cell_angle_alpha    89.3558
_cell_angle_beta     100.91
_cell_angle_gamma    106.671

_space_group_name_H-M_alt    "P 1"
_space_group_IT_number       1

loop_
  _space_group_symop_operation_xyz
  'x, y, z'

loop_
  _atom_site_type_symbol
  _atom_site_label
  _atom_site_symmetry_multiplicity
  _atom_site_fract_x
  _atom_site_fract_y
  _atom_site_fract_z
  _atom_site_occupancy
  Hf  Hf1       1.0  0.49600  0.88900  0.22900  1.0000
  Hf  Hf2       1.0  0.00371  0.73600  0.52100  1.0000
  Li  Li1       1.0  0.96600  0.98300  0.00352  1.0000
  Li  Li2       1.0  0.92500  0.48600  0.01360  1.0000
  Li  Li3       1.0  0.50300  0.37700  0.30700  1.0000
  Li  Li4       1.0  0.99700  0.24800  0.44300  1.0000
  Li  Li5       1.0  0.57500  0.13900  0.73600  1.0000
  Li  Li6       1.0  0.53400  0.64200  0.74600  1.0000
  O   O1        1.0  0.73300  0.17800  0.11200  1.0000
  O   O2        1.0  0.73600  0.68700  0.14600  1.0000
  O   O3        1.0  0.25100  0.05230  0.37200  1.0000
  O   O4        1.0  0.24900  0.57300  0.37800  1.0000
  O   O5        1.0  0.76400  0.93800  0.60400  1.0000
  O   O6        1.0  0.76700  0.44700  0.63800  1.0000
  O   O7        1.0  0.25000  0.81300  0.87500  1.0000
