data_image0
_chemical_formula_structural       Bi2Li6O7
_chemical_formula_sum              "Bi2 Li6 O7"
_cell_length_a       5.57614
_cell_length_b       6.19419
_cell_length_c       5.67023
_cell_angle_alpha    87.2307
_cell_angle_beta     97.4183
_cell_angle_gamma    110.853

_space_group_name_H-M_alt    "P 1"
_space_group_IT_number       1

loop_
  _space_group_symop_operation_xyz
  'x, y, z'

loop_
  _atom_site_type_symbol
  _atom_site_label
  _atom_site_symmetry_multiplicity
  _atom_site_fract_x
  _atom_site_fract_y
  _atom_site_fract_z
  _atom_site_occupancy
  Bi  Bi1       1.0  0.50400  0.88700  0.21800  1.0000
  Bi  Bi2       1.0  0.99600  0.73800  0.53200  1.0000
  Li  Li1       1.0  0.87400  0.48300  0.00056  1.0000
  Li  Li2       1.0  0.01200  0.97600  0.03270  1.0000
  Li  Li3       1.0  0.48600  0.39400  0.36300  1.0000
  Li  Li4       1.0  0.01420  0.23100  0.38700  1.0000
  Li  Li5       1.0  0.48800  0.64900  0.71700  1.0000
  Li  Li6       1.0  0.62600  0.14200  0.74900  1.0000
  O   O1        1.0  0.80400  0.16600  0.07680  1.0000
  O   O2        1.0  0.75200  0.66600  0.18300  1.0000
  O   O3        1.0  0.26100  0.07090  0.33500  1.0000
  O   O4        1.0  0.23900  0.55400  0.41500  1.0000
  O   O5        1.0  0.74800  0.95900  0.56700  1.0000
  O   O6        1.0  0.69600  0.45900  0.67300  1.0000
  O   O7        1.0  0.25000  0.81300  0.87500  1.0000
