data_image0
_chemical_formula_structural       Er2Li6O7
_chemical_formula_sum              "Er2 Li6 O7"
_cell_length_a       5.51874
_cell_length_b       6.11336
_cell_length_c       5.42823
_cell_angle_alpha    88.1709
_cell_angle_beta     100.394
_cell_angle_gamma    108.503

_space_group_name_H-M_alt    "P 1"
_space_group_IT_number       1

loop_
  _space_group_symop_operation_xyz
  'x, y, z'

loop_
  _atom_site_type_symbol
  _atom_site_label
  _atom_site_symmetry_multiplicity
  _atom_site_fract_x
  _atom_site_fract_y
  _atom_site_fract_z
  _atom_site_occupancy
  Er  Er1       1.0  0.49800  0.88300  0.23600  1.0000
  Er  Er2       1.0  0.00215  0.74200  0.51400  1.0000
  Li  Li1       1.0  0.93100  0.50000  0.00392  1.0000
  Li  Li2       1.0  0.48800  0.38200  0.32100  1.0000
  Li  Li3       1.0  0.01250  0.24300  0.42900  1.0000
  Li  Li4       1.0  0.56900  0.12500  0.74600  1.0000
  Li  Li5       1.0  0.52500  0.64700  0.75500  1.0000
  Li  Li6       1.0  0.97500  0.97800  0.99500  1.0000
  O   O1        1.0  0.77000  0.18900  0.10300  1.0000
  O   O2        1.0  0.73200  0.67400  0.13500  1.0000
  O   O3        1.0  0.24500  0.06420  0.35200  1.0000
  O   O4        1.0  0.25500  0.56100  0.39800  1.0000
  O   O5        1.0  0.76800  0.95100  0.61500  1.0000
  O   O6        1.0  0.73000  0.43600  0.64700  1.0000
  O   O7        1.0  0.25000  0.81300  0.87500  1.0000
