data_image0
_chemical_formula_structural       Au2Li6O7
_chemical_formula_sum              "Au2 Li6 O7"
_cell_length_a       5.2229
_cell_length_b       5.84416
_cell_length_c       5.28839
_cell_angle_alpha    89.7719
_cell_angle_beta     97.6035
_cell_angle_gamma    108.045

_space_group_name_H-M_alt    "P 1"
_space_group_IT_number       1

loop_
  _space_group_symop_operation_xyz
  'x, y, z'

loop_
  _atom_site_type_symbol
  _atom_site_label
  _atom_site_symmetry_multiplicity
  _atom_site_fract_x
  _atom_site_fract_y
  _atom_site_fract_z
  _atom_site_occupancy
  Au  Au1       1.0  0.49600  0.87600  0.24000  1.0000
  Au  Au2       1.0  0.00365  0.74900  0.51000  1.0000
  Li  Li1       1.0  0.97500  0.97700  0.00484  1.0000
  Li  Li2       1.0  0.53000  0.37500  0.29800  1.0000
  Li  Li3       1.0  0.97000  0.25000  0.45200  1.0000
  Li  Li4       1.0  0.52500  0.64800  0.74500  1.0000
  Li  Li5       1.0  0.55300  0.12000  0.75400  1.0000
  Li  Li6       1.0  0.94700  0.50500  0.99600  1.0000
  O   O1        1.0  0.70500  0.67300  0.11200  1.0000
  O   O2        1.0  0.73900  0.18200  0.11400  1.0000
  O   O3        1.0  0.25700  0.06010  0.37300  1.0000
  O   O4        1.0  0.24300  0.56500  0.37700  1.0000
  O   O5        1.0  0.76100  0.44300  0.63600  1.0000
  O   O6        1.0  0.79500  0.95200  0.63800  1.0000
  O   O7        1.0  0.25000  0.81200  0.87500  1.0000
