data_image0
_chemical_formula_structural       Dy2Li6O7
_chemical_formula_sum              "Dy2 Li6 O7"
_cell_length_a       5.5544
_cell_length_b       6.15705
_cell_length_c       5.4655
_cell_angle_alpha    84.1156
_cell_angle_beta     100.547
_cell_angle_gamma    111.02

_space_group_name_H-M_alt    "P 1"
_space_group_IT_number       1

loop_
  _space_group_symop_operation_xyz
  'x, y, z'

loop_
  _atom_site_type_symbol
  _atom_site_label
  _atom_site_symmetry_multiplicity
  _atom_site_fract_x
  _atom_site_fract_y
  _atom_site_fract_z
  _atom_site_occupancy
  Dy  Dy1       1.0  0.50300  0.89100  0.23000  1.0000
  Dy  Dy2       1.0  0.99700  0.73400  0.52000  1.0000
  Li  Li1       1.0  0.93200  0.51500  0.02560  1.0000
  Li  Li2       1.0  0.47100  0.39600  0.33700  1.0000
  Li  Li3       1.0  0.02930  0.22900  0.41300  1.0000
  Li  Li4       1.0  0.56800  0.11000  0.72400  1.0000
  Li  Li5       1.0  0.51200  0.64400  0.77500  1.0000
  Li  Li6       1.0  0.98800  0.98100  0.97500  1.0000
  O   O1        1.0  0.80800  0.18600  0.06120  1.0000
  O   O2        1.0  0.72100  0.66500  0.14900  1.0000
  O   O3        1.0  0.25700  0.06740  0.34100  1.0000
  O   O4        1.0  0.24300  0.55800  0.40900  1.0000
  O   O5        1.0  0.77900  0.96000  0.60100  1.0000
  O   O6        1.0  0.69200  0.43900  0.68900  1.0000
  O   O7        1.0  0.25000  0.81200  0.87500  1.0000
