data_image0
_chemical_formula_structural       Ag2Li6O7
_chemical_formula_sum              "Ag2 Li6 O7"
_cell_length_a       5.17603
_cell_length_b       5.84159
_cell_length_c       5.22213
_cell_angle_alpha    89.7184
_cell_angle_beta     98.4795
_cell_angle_gamma    107.654

_space_group_name_H-M_alt    "P 1"
_space_group_IT_number       1

loop_
  _space_group_symop_operation_xyz
  'x, y, z'

loop_
  _atom_site_type_symbol
  _atom_site_label
  _atom_site_symmetry_multiplicity
  _atom_site_fract_x
  _atom_site_fract_y
  _atom_site_fract_z
  _atom_site_occupancy
  Ag  Ag1       1.0  0.49600  0.87600  0.24100  1.0000
  Ag  Ag2       1.0  0.00398  0.74900  0.50900  1.0000
  Li  Li1       1.0  0.96100  0.50900  0.00021  1.0000
  Li  Li2       1.0  0.97400  0.97700  0.00586  1.0000
  Li  Li3       1.0  0.52900  0.37600  0.29500  1.0000
  Li  Li4       1.0  0.97100  0.24900  0.45500  1.0000
  Li  Li5       1.0  0.52600  0.64800  0.74400  1.0000
  Li  Li6       1.0  0.53900  0.11600  0.75000  1.0000
  O   O1        1.0  0.73400  0.18200  0.11100  1.0000
  O   O2        1.0  0.71200  0.67500  0.11700  1.0000
  O   O3        1.0  0.25600  0.06210  0.37400  1.0000
  O   O4        1.0  0.24400  0.56300  0.37600  1.0000
  O   O5        1.0  0.78800  0.95000  0.63300  1.0000
  O   O6        1.0  0.76600  0.44300  0.63900  1.0000
  O   O7        1.0  0.25000  0.81200  0.87500  1.0000
