data_image0
_chemical_formula_structural       Fe2Li6O7
_chemical_formula_sum              "Fe2 Li6 O7"
_cell_length_a       4.98417
_cell_length_b       5.68835
_cell_length_c       5.02973
_cell_angle_alpha    88.7378
_cell_angle_beta     100.396
_cell_angle_gamma    107.359

_space_group_name_H-M_alt    "P 1"
_space_group_IT_number       1

loop_
  _space_group_symop_operation_xyz
  'x, y, z'

loop_
  _atom_site_type_symbol
  _atom_site_label
  _atom_site_symmetry_multiplicity
  _atom_site_fract_x
  _atom_site_fract_y
  _atom_site_fract_z
  _atom_site_occupancy
  Fe  Fe1       1.0  0.49600  0.88000  0.23200  1.0000
  Fe  Fe2       1.0  0.00389  0.74500  0.51800  1.0000
  Li  Li1       1.0  0.97500  0.97800  0.00586  1.0000
  Li  Li2       1.0  0.96000  0.51000  0.01380  1.0000
  Li  Li3       1.0  0.51500  0.37500  0.29500  1.0000
  Li  Li4       1.0  0.98500  0.25000  0.45500  1.0000
  Li  Li5       1.0  0.54000  0.11500  0.73600  1.0000
  Li  Li6       1.0  0.52500  0.64700  0.74400  1.0000
  O   O1        1.0  0.71300  0.17000  0.11400  1.0000
  O   O2        1.0  0.72600  0.68600  0.14700  1.0000
  O   O3        1.0  0.24900  0.58200  0.37200  1.0000
  O   O4        1.0  0.25100  0.04310  0.37800  1.0000
  O   O5        1.0  0.77400  0.93900  0.60300  1.0000
  O   O6        1.0  0.78700  0.45500  0.63600  1.0000
  O   O7        1.0  0.25000  0.81200  0.87500  1.0000
