data_image0
_chemical_formula_structural       Ir2Li6O7
_chemical_formula_sum              "Ir2 Li6 O7"
_cell_length_a       5.0795
_cell_length_b       5.87792
_cell_length_c       5.0423
_cell_angle_alpha    89.6314
_cell_angle_beta     99.3581
_cell_angle_gamma    107.154

_space_group_name_H-M_alt    "P 1"
_space_group_IT_number       1

loop_
  _space_group_symop_operation_xyz
  'x, y, z'

loop_
  _atom_site_type_symbol
  _atom_site_label
  _atom_site_symmetry_multiplicity
  _atom_site_fract_x
  _atom_site_fract_y
  _atom_site_fract_z
  _atom_site_occupancy
  Ir  Ir1       1.0  0.48800  0.87700  0.24500  1.0000
  Ir  Ir2       1.0  0.01240  0.74800  0.50500  1.0000
  Li  Li1       1.0  0.97200  0.98600  0.00599  1.0000
  Li  Li2       1.0  0.95200  0.49600  0.01090  1.0000
  Li  Li3       1.0  0.52000  0.37200  0.29800  1.0000
  Li  Li4       1.0  0.98000  0.25300  0.45200  1.0000
  Li  Li5       1.0  0.54800  0.12900  0.73900  1.0000
  Li  Li6       1.0  0.52800  0.63900  0.74400  1.0000
  O   O1        1.0  0.72200  0.17600  0.11200  1.0000
  O   O2        1.0  0.74000  0.69100  0.14700  1.0000
  O   O3        1.0  0.24600  0.06830  0.36900  1.0000
  O   O4        1.0  0.25400  0.55700  0.38100  1.0000
  O   O5        1.0  0.76000  0.93400  0.60300  1.0000
  O   O6        1.0  0.77800  0.44900  0.63800  1.0000
  O   O7        1.0  0.25000  0.81300  0.87500  1.0000
