data_image0
_chemical_formula_structural       La2Li6O7
_chemical_formula_sum              "La2 Li6 O7"
_cell_length_a       5.83588
_cell_length_b       6.3126
_cell_length_c       5.64566
_cell_angle_alpha    85.8755
_cell_angle_beta     100.149
_cell_angle_gamma    112.523

_space_group_name_H-M_alt    "P 1"
_space_group_IT_number       1

loop_
  _space_group_symop_operation_xyz
  'x, y, z'

loop_
  _atom_site_type_symbol
  _atom_site_label
  _atom_site_symmetry_multiplicity
  _atom_site_fract_x
  _atom_site_fract_y
  _atom_site_fract_z
  _atom_site_occupancy
  La  La1       1.0  0.50700  0.90200  0.23200  1.0000
  La  La2       1.0  0.99300  0.72300  0.51800  1.0000
  Li  Li1       1.0  0.46600  0.39600  0.34400  1.0000
  Li  Li2       1.0  0.03370  0.22900  0.40600  1.0000
  Li  Li3       1.0  0.51500  0.64500  0.75100  1.0000
  Li  Li4       1.0  0.63900  0.14100  0.75300  1.0000
  Li  Li5       1.0  0.86100  0.48400  0.99700  1.0000
  Li  Li6       1.0  0.98500  0.98000  0.99900  1.0000
  O   O1        1.0  0.82300  0.18300  0.08450  1.0000
  O   O2        1.0  0.71600  0.65600  0.14000  1.0000
  O   O3        1.0  0.23400  0.07110  0.31400  1.0000
  O   O4        1.0  0.26600  0.55400  0.43600  1.0000
  O   O5        1.0  0.78400  0.96900  0.61000  1.0000
  O   O6        1.0  0.67700  0.44200  0.66500  1.0000
  O   O7        1.0  0.25000  0.81300  0.87500  1.0000
