data_image0
_chemical_formula_structural       Be2Li6O7
_chemical_formula_sum              "Be2 Li6 O7"
_cell_length_a       4.6661
_cell_length_b       5.50115
_cell_length_c       5.27748
_cell_angle_alpha    89.7417
_cell_angle_beta     104.247
_cell_angle_gamma    103.024

_space_group_name_H-M_alt    "P 1"
_space_group_IT_number       1

loop_
  _space_group_symop_operation_xyz
  'x, y, z'

loop_
  _atom_site_type_symbol
  _atom_site_label
  _atom_site_symmetry_multiplicity
  _atom_site_fract_x
  _atom_site_fract_y
  _atom_site_fract_z
  _atom_site_occupancy
  Be  Be1       1.0  0.52000  0.92800  0.14700  1.0000
  Be  Be2       1.0  0.98000  0.69700  0.60300  1.0000
  Li  Li1       1.0  0.91500  0.49600  0.01030  1.0000
  Li  Li2       1.0  0.97700  0.94800  0.06460  1.0000
  Li  Li3       1.0  0.53700  0.39700  0.26500  1.0000
  Li  Li4       1.0  0.96300  0.22800  0.48500  1.0000
  Li  Li5       1.0  0.52300  0.67700  0.68500  1.0000
  Li  Li6       1.0  0.58500  0.12900  0.74000  1.0000
  O   O1        1.0  0.59600  0.67800  0.06910  1.0000
  O   O2        1.0  0.74400  0.18000  0.12900  1.0000
  O   O3        1.0  0.34400  0.94400  0.37300  1.0000
  O   O4        1.0  0.15600  0.68100  0.37700  1.0000
  O   O5        1.0  0.75600  0.44500  0.62100  1.0000
  O   O6        1.0  0.90400  0.94700  0.68100  1.0000
  O   O7        1.0  0.25000  0.81200  0.87500  1.0000
