data_image0
_chemical_formula_structural       Li6Mg2O7
_chemical_formula_sum              "Li6 Mg2 O7"
_cell_length_a       5.13042
_cell_length_b       5.6836
_cell_length_c       5.02475
_cell_angle_alpha    89.4152
_cell_angle_beta     100.552
_cell_angle_gamma    106.689

_space_group_name_H-M_alt    "P 1"
_space_group_IT_number       1

loop_
  _space_group_symop_operation_xyz
  'x, y, z'

loop_
  _atom_site_type_symbol
  _atom_site_label
  _atom_site_symmetry_multiplicity
  _atom_site_fract_x
  _atom_site_fract_y
  _atom_site_fract_z
  _atom_site_occupancy
  Li  Li1       1.0  0.97800  0.97900  0.00155  1.0000
  Li  Li2       1.0  0.96900  0.50700  0.01610  1.0000
  Li  Li3       1.0  0.50800  0.37600  0.29100  1.0000
  Li  Li4       1.0  0.99200  0.24900  0.45900  1.0000
  Li  Li5       1.0  0.53100  0.11800  0.73400  1.0000
  Li  Li6       1.0  0.52200  0.64600  0.74800  1.0000
  Mg  Mg1       1.0  0.49300  0.87500  0.24200  1.0000
  Mg  Mg2       1.0  0.00748  0.75000  0.50800  1.0000
  O   O1        1.0  0.73900  0.18600  0.11100  1.0000
  O   O2        1.0  0.73500  0.68000  0.13500  1.0000
  O   O3        1.0  0.24900  0.06280  0.36700  1.0000
  O   O4        1.0  0.25100  0.56200  0.38300  1.0000
  O   O5        1.0  0.76500  0.94500  0.61500  1.0000
  O   O6        1.0  0.76100  0.43900  0.63900  1.0000
  O   O7        1.0  0.25000  0.81200  0.87500  1.0000
