data_image0
_chemical_formula_structural       Li6O7Rh2
_chemical_formula_sum              "Li6 O7 Rh2"
_cell_length_a       5.08438
_cell_length_b       5.8352
_cell_length_c       5.0468
_cell_angle_alpha    89.1847
_cell_angle_beta     100.873
_cell_angle_gamma    106.803

_space_group_name_H-M_alt    "P 1"
_space_group_IT_number       1

loop_
  _space_group_symop_operation_xyz
  'x, y, z'

loop_
  _atom_site_type_symbol
  _atom_site_label
  _atom_site_symmetry_multiplicity
  _atom_site_fract_x
  _atom_site_fract_y
  _atom_site_fract_z
  _atom_site_occupancy
  Li  Li1       1.0  0.97200  0.98600  0.01070  1.0000
  Li  Li2       1.0  0.95400  0.49600  0.01410  1.0000
  Li  Li3       1.0  0.51900  0.37200  0.29600  1.0000
  Li  Li4       1.0  0.98100  0.25300  0.45400  1.0000
  Li  Li5       1.0  0.54600  0.12900  0.73600  1.0000
  Li  Li6       1.0  0.52800  0.63900  0.73900  1.0000
  O   O1        1.0  0.72400  0.18000  0.11100  1.0000
  O   O2        1.0  0.74300  0.68900  0.14700  1.0000
  O   O3        1.0  0.25000  0.05770  0.37100  1.0000
  O   O4        1.0  0.25000  0.56700  0.37900  1.0000
  O   O5        1.0  0.75700  0.93600  0.60300  1.0000
  O   O6        1.0  0.77600  0.44500  0.63900  1.0000
  O   O7        1.0  0.25000  0.81300  0.87500  1.0000
  Rh  Rh1       1.0  0.49300  0.87900  0.23900  1.0000
  Rh  Rh2       1.0  0.00707  0.74600  0.51100  1.0000
