data_image0
_chemical_formula_structural       As2Li6O7
_chemical_formula_sum              "As2 Li6 O7"
_cell_length_a       5.34347
_cell_length_b       6.16715
_cell_length_c       5.08406
_cell_angle_alpha    84.278
_cell_angle_beta     106.363
_cell_angle_gamma    107.859

_space_group_name_H-M_alt    "P 1"
_space_group_IT_number       1

loop_
  _space_group_symop_operation_xyz
  'x, y, z'

loop_
  _atom_site_type_symbol
  _atom_site_label
  _atom_site_symmetry_multiplicity
  _atom_site_fract_x
  _atom_site_fract_y
  _atom_site_fract_z
  _atom_site_occupancy
  As  As1       1.0  0.50900  0.95200  0.23100  1.0000
  As  As2       1.0  0.99100  0.67300  0.51900  1.0000
  Li  Li1       1.0  0.93000  0.47400  0.04740  1.0000
  Li  Li2       1.0  0.46900  0.44600  0.31200  1.0000
  Li  Li3       1.0  0.03130  0.17900  0.43800  1.0000
  Li  Li4       1.0  0.57000  0.15100  0.70300  1.0000
  Li  Li5       1.0  0.53000  0.66400  0.76000  1.0000
  Li  Li6       1.0  0.97000  0.96100  0.99000  1.0000
  O   O1        1.0  0.75200  0.15100  0.08840  1.0000
  O   O2        1.0  0.76700  0.67200  0.16900  1.0000
  O   O3        1.0  0.31000  0.11800  0.29400  1.0000
  O   O4        1.0  0.19000  0.50700  0.45600  1.0000
  O   O5        1.0  0.73300  0.95300  0.58100  1.0000
  O   O6        1.0  0.74800  0.47400  0.66200  1.0000
  O   O7        1.0  0.25000  0.81200  0.87500  1.0000
