data_image0
_chemical_formula_structural       Li6O7Pt2
_chemical_formula_sum              "Li6 O7 Pt2"
_cell_length_a       5.1708
_cell_length_b       5.85017
_cell_length_c       5.11524
_cell_angle_alpha    89.6569
_cell_angle_beta     100.083
_cell_angle_gamma    107.067

_space_group_name_H-M_alt    "P 1"
_space_group_IT_number       1

loop_
  _space_group_symop_operation_xyz
  'x, y, z'

loop_
  _atom_site_type_symbol
  _atom_site_label
  _atom_site_symmetry_multiplicity
  _atom_site_fract_x
  _atom_site_fract_y
  _atom_site_fract_z
  _atom_site_occupancy
  Li  Li1       1.0  0.95700  0.50000  0.00552  1.0000
  Li  Li2       1.0  0.97800  0.98500  0.01060  1.0000
  Li  Li3       1.0  0.52600  0.36800  0.29600  1.0000
  Li  Li4       1.0  0.97400  0.25700  0.45400  1.0000
  Li  Li5       1.0  0.52200  0.64000  0.73900  1.0000
  Li  Li6       1.0  0.54300  0.12500  0.74400  1.0000
  O   O1        1.0  0.73100  0.18100  0.11000  1.0000
  O   O2        1.0  0.74100  0.68700  0.14700  1.0000
  O   O3        1.0  0.25100  0.05610  0.36800  1.0000
  O   O4        1.0  0.24900  0.56900  0.38200  1.0000
  O   O5        1.0  0.75900  0.93800  0.60300  1.0000
  O   O6        1.0  0.76900  0.44400  0.64000  1.0000
  O   O7        1.0  0.25000  0.81200  0.87500  1.0000
  Pt  Pt1       1.0  0.49800  0.87800  0.24400  1.0000
  Pt  Pt2       1.0  0.00240  0.74700  0.50600  1.0000
