data_image0
_chemical_formula_structural       Li6Mn2O7
_chemical_formula_sum              "Li6 Mn2 O7"
_cell_length_a       4.93836
_cell_length_b       5.69864
_cell_length_c       4.97405
_cell_angle_alpha    88.6408
_cell_angle_beta     101.083
_cell_angle_gamma    106.7

_space_group_name_H-M_alt    "P 1"
_space_group_IT_number       1

loop_
  _space_group_symop_operation_xyz
  'x, y, z'

loop_
  _atom_site_type_symbol
  _atom_site_label
  _atom_site_symmetry_multiplicity
  _atom_site_fract_x
  _atom_site_fract_y
  _atom_site_fract_z
  _atom_site_occupancy
  Li  Li1       1.0  0.97600  0.98200  0.00542  1.0000
  Li  Li2       1.0  0.95900  0.50500  0.01400  1.0000
  Li  Li3       1.0  0.51400  0.37200  0.29400  1.0000
  Li  Li4       1.0  0.98600  0.25300  0.45600  1.0000
  Li  Li5       1.0  0.54100  0.12000  0.73600  1.0000
  Li  Li6       1.0  0.52400  0.64300  0.74500  1.0000
  Mn  Mn1       1.0  0.49600  0.88200  0.23900  1.0000
  Mn  Mn2       1.0  0.00381  0.74300  0.51100  1.0000
  O   O1        1.0  0.71600  0.17000  0.11400  1.0000
  O   O2        1.0  0.73500  0.69100  0.15700  1.0000
  O   O3        1.0  0.25400  0.04400  0.37100  1.0000
  O   O4        1.0  0.24600  0.58100  0.37900  1.0000
  O   O5        1.0  0.76500  0.93400  0.59300  1.0000
  O   O6        1.0  0.78400  0.45500  0.63600  1.0000
  O   O7        1.0  0.25000  0.81300  0.87500  1.0000
