data_image0
_chemical_formula_structural       In2Li6O7
_chemical_formula_sum              "In2 Li6 O7"
_cell_length_a       5.34016
_cell_length_b       5.9131
_cell_length_c       5.26745
_cell_angle_alpha    89.729
_cell_angle_beta     100.217
_cell_angle_gamma    107.251

_space_group_name_H-M_alt    "P 1"
_space_group_IT_number       1

loop_
  _space_group_symop_operation_xyz
  'x, y, z'

loop_
  _atom_site_type_symbol
  _atom_site_label
  _atom_site_symmetry_multiplicity
  _atom_site_fract_x
  _atom_site_fract_y
  _atom_site_fract_z
  _atom_site_occupancy
  In  In1       1.0  0.49700  0.88100  0.24200  1.0000
  In  In2       1.0  0.00333  0.74400  0.50800  1.0000
  Li  Li1       1.0  0.97400  0.98000  0.00025  1.0000
  Li  Li2       1.0  0.95200  0.50000  0.00453  1.0000
  Li  Li3       1.0  0.51000  0.37600  0.30000  1.0000
  Li  Li4       1.0  0.99000  0.24900  0.45000  1.0000
  Li  Li5       1.0  0.54800  0.12500  0.74500  1.0000
  Li  Li6       1.0  0.52600  0.64500  0.75000  1.0000
  O   O1        1.0  0.74300  0.19300  0.11000  1.0000
  O   O2        1.0  0.73300  0.67600  0.12700  1.0000
  O   O3        1.0  0.24800  0.06930  0.37100  1.0000
  O   O4        1.0  0.25200  0.55600  0.37900  1.0000
  O   O5        1.0  0.76700  0.94900  0.62300  1.0000
  O   O6        1.0  0.75700  0.43200  0.64000  1.0000
  O   O7        1.0  0.25000  0.81200  0.87500  1.0000
