data_image0
_chemical_formula_structural       Ho8O16Si4
_chemical_formula_sum              "Ho8 O16 Si4"
_cell_length_a       6.52136
_cell_length_b       5.4547
_cell_length_c       9.80866
_cell_angle_alpha    90
_cell_angle_beta     90
_cell_angle_gamma    90

_space_group_name_H-M_alt    "P 1"
_space_group_IT_number       1

loop_
  _space_group_symop_operation_xyz
  'x, y, z'

loop_
  _atom_site_type_symbol
  _atom_site_label
  _atom_site_symmetry_multiplicity
  _atom_site_fract_x
  _atom_site_fract_y
  _atom_site_fract_z
  _atom_site_occupancy
  Ho  Ho1       1.0  0.11000  0.25000  0.04650  1.0000
  Ho  Ho2       1.0  0.47000  0.75000  0.18800  1.0000
  Ho  Ho3       1.0  0.97000  0.75000  0.31200  1.0000
  Ho  Ho4       1.0  0.61000  0.25000  0.45400  1.0000
  Ho  Ho5       1.0  0.39000  0.75000  0.54600  1.0000
  Ho  Ho6       1.0  0.03020  0.25000  0.68800  1.0000
  Ho  Ho7       1.0  0.53000  0.25000  0.81200  1.0000
  Ho  Ho8       1.0  0.89000  0.75000  0.95400  1.0000
  O   O1        1.0  0.46200  0.25000  0.05350  1.0000
  O   O2        1.0  0.15600  0.75000  0.12000  1.0000
  O   O3        1.0  0.81000  0.00383  0.12900  1.0000
  O   O4        1.0  0.81000  0.49600  0.12900  1.0000
  O   O5        1.0  0.31000  0.00383  0.37100  1.0000
  O   O6        1.0  0.31000  0.49600  0.37100  1.0000
  O   O7        1.0  0.65600  0.75000  0.38000  1.0000
  O   O8        1.0  0.96200  0.25000  0.44700  1.0000
  O   O9        1.0  0.03840  0.75000  0.55300  1.0000
  O   O10       1.0  0.34400  0.25000  0.62000  1.0000
  O   O11       1.0  0.69000  0.50400  0.62900  1.0000
  O   O12       1.0  0.69000  0.99600  0.62900  1.0000
  O   O13       1.0  0.19000  0.50400  0.87100  1.0000
  O   O14       1.0  0.19000  0.99600  0.87100  1.0000
  O   O15       1.0  0.84400  0.25000  0.88000  1.0000
  O   O16       1.0  0.53800  0.75000  0.94700  1.0000
  Si  Si1       1.0  0.66000  0.25000  0.16400  1.0000
  Si  Si2       1.0  0.16000  0.25000  0.33600  1.0000
  Si  Si3       1.0  0.84000  0.75000  0.66400  1.0000
  Si  Si4       1.0  0.34000  0.75000  0.83600  1.0000
