data_image0
_chemical_formula_structural       Li6Nb2O7
_chemical_formula_sum              "Li6 Nb2 O7"
_cell_length_a       5.15003
_cell_length_b       5.91022
_cell_length_c       5.2365
_cell_angle_alpha    87.111
_cell_angle_beta     102.27
_cell_angle_gamma    108.25

_space_group_name_H-M_alt    "P 1"
_space_group_IT_number       1

loop_
  _space_group_symop_operation_xyz
  'x, y, z'

loop_
  _atom_site_type_symbol
  _atom_site_label
  _atom_site_symmetry_multiplicity
  _atom_site_fract_x
  _atom_site_fract_y
  _atom_site_fract_z
  _atom_site_occupancy
  Li  Li1       1.0  0.94800  0.49900  0.00960  1.0000
  Li  Li2       1.0  0.50000  0.36300  0.29300  1.0000
  Li  Li3       1.0  0.00000  0.26200  0.45700  1.0000
  Li  Li4       1.0  0.55200  0.12600  0.74000  1.0000
  Li  Li5       1.0  0.51100  0.65300  0.75500  1.0000
  Li  Li6       1.0  0.98900  0.97200  0.99500  1.0000
  Nb  Nb1       1.0  0.52300  0.87600  0.24700  1.0000
  Nb  Nb2       1.0  0.97700  0.74900  0.50300  1.0000
  O   O1        1.0  0.72300  0.66400  0.11600  1.0000
  O   O2        1.0  0.73600  0.17500  0.12200  1.0000
  O   O3        1.0  0.24500  0.04770  0.36500  1.0000
  O   O4        1.0  0.25500  0.57700  0.38500  1.0000
  O   O5        1.0  0.76400  0.45000  0.62800  1.0000
  O   O6        1.0  0.77700  0.96100  0.63400  1.0000
  O   O7        1.0  0.25000  0.81300  0.87500  1.0000
