data_image0
_chemical_formula_structural       Li6O7Pm2
_chemical_formula_sum              "Li6 O7 Pm2"
_cell_length_a       5.63983
_cell_length_b       6.23122
_cell_length_c       5.6218
_cell_angle_alpha    85.4441
_cell_angle_beta     100.469
_cell_angle_gamma    111.257

_space_group_name_H-M_alt    "P 1"
_space_group_IT_number       1

loop_
  _space_group_symop_operation_xyz
  'x, y, z'

loop_
  _atom_site_type_symbol
  _atom_site_label
  _atom_site_symmetry_multiplicity
  _atom_site_fract_x
  _atom_site_fract_y
  _atom_site_fract_z
  _atom_site_occupancy
  Li  Li1       1.0  0.46300  0.39300  0.32500  1.0000
  Li  Li2       1.0  0.03660  0.23200  0.42500  1.0000
  Li  Li3       1.0  0.62100  0.12700  0.75600  1.0000
  Li  Li4       1.0  0.50500  0.64300  0.77600  1.0000
  Li  Li5       1.0  0.99500  0.98200  0.97400  1.0000
  Li  Li6       1.0  0.87900  0.49800  0.99400  1.0000
  O   O1        1.0  0.83300  0.19000  0.08930  1.0000
  O   O2        1.0  0.70400  0.65300  0.13700  1.0000
  O   O3        1.0  0.22900  0.06940  0.30200  1.0000
  O   O4        1.0  0.27100  0.55600  0.44800  1.0000
  O   O5        1.0  0.79600  0.97200  0.61300  1.0000
  O   O6        1.0  0.66700  0.43500  0.66100  1.0000
  O   O7        1.0  0.25000  0.81300  0.87500  1.0000
  Pm  Pm1       1.0  0.50800  0.89700  0.23300  1.0000
  Pm  Pm2       1.0  0.99200  0.72800  0.51700  1.0000
