data_image0
_chemical_formula_structural       O7PdSb4
_chemical_formula_sum              "O7 Pd1 Sb4"
_cell_length_a       6.79761
_cell_length_b       6.79761
_cell_length_c       9.25698
_cell_angle_alpha    51.2198
_cell_angle_beta     51.2198
_cell_angle_gamma    33.7476

_space_group_name_H-M_alt    "P 1"
_space_group_IT_number       1

loop_
  _space_group_symop_operation_xyz
  'x, y, z'

loop_
  _atom_site_type_symbol
  _atom_site_label
  _atom_site_symmetry_multiplicity
  _atom_site_fract_x
  _atom_site_fract_y
  _atom_site_fract_z
  _atom_site_occupancy
  O   O1        1.0  0.50000  0.50000  0.00000  1.0000
  O   O2        1.0  0.03100  0.03100  0.18900  1.0000
  O   O3        1.0  0.60700  0.60700  0.28700  1.0000
  O   O4        1.0  0.14500  0.14500  0.45100  1.0000
  O   O5        1.0  0.85500  0.85500  0.54900  1.0000
  O   O6        1.0  0.39300  0.39300  0.71300  1.0000
  O   O7        1.0  0.96900  0.96900  0.81100  1.0000
  Pd  Pd1       1.0  0.00000  0.00000  0.00000  1.0000
  Sb  Sb1       1.0  0.19900  0.19900  0.19700  1.0000
  Sb  Sb2       1.0  0.42500  0.42500  0.34800  1.0000
  Sb  Sb3       1.0  0.57500  0.57500  0.65200  1.0000
  Sb  Sb4       1.0  0.80100  0.80100  0.80300  1.0000
