data_image0
_chemical_formula_structural       Li6O7Os2
_chemical_formula_sum              "Li6 O7 Os2"
_cell_length_a       4.97625
_cell_length_b       5.92267
_cell_length_c       5.0044
_cell_angle_alpha    89.5277
_cell_angle_beta     98.419
_cell_angle_gamma    107.214

_space_group_name_H-M_alt    "P 1"
_space_group_IT_number       1

loop_
  _space_group_symop_operation_xyz
  'x, y, z'

loop_
  _atom_site_type_symbol
  _atom_site_label
  _atom_site_symmetry_multiplicity
  _atom_site_fract_x
  _atom_site_fract_y
  _atom_site_fract_z
  _atom_site_occupancy
  Li  Li1       1.0  0.94600  0.49000  0.01170  1.0000
  Li  Li2       1.0  0.52700  0.37700  0.29800  1.0000
  Li  Li3       1.0  0.97300  0.24800  0.45200  1.0000
  Li  Li4       1.0  0.55400  0.13500  0.73800  1.0000
  Li  Li5       1.0  0.53500  0.63800  0.75100  1.0000
  Li  Li6       1.0  0.96500  0.98700  0.99900  1.0000
  O   O1        1.0  0.71300  0.16800  0.11500  1.0000
  O   O2        1.0  0.74000  0.69700  0.14700  1.0000
  O   O3        1.0  0.24600  0.08140  0.37300  1.0000
  O   O4        1.0  0.25400  0.54400  0.37700  1.0000
  O   O5        1.0  0.76000  0.92800  0.60300  1.0000
  O   O6        1.0  0.78700  0.45700  0.63500  1.0000
  O   O7        1.0  0.25000  0.81300  0.87500  1.0000
  Os  Os1       1.0  0.46600  0.87100  0.25200  1.0000
  Os  Os2       1.0  0.03400  0.75400  0.49800  1.0000
