data_image0
_chemical_formula_structural       Li6O7Pd2
_chemical_formula_sum              "Li6 O7 Pd2"
_cell_length_a       5.10957
_cell_length_b       5.82553
_cell_length_c       5.09376
_cell_angle_alpha    89.3652
_cell_angle_beta     100.13
_cell_angle_gamma    106.914

_space_group_name_H-M_alt    "P 1"
_space_group_IT_number       1

loop_
  _space_group_symop_operation_xyz
  'x, y, z'

loop_
  _atom_site_type_symbol
  _atom_site_label
  _atom_site_symmetry_multiplicity
  _atom_site_fract_x
  _atom_site_fract_y
  _atom_site_fract_z
  _atom_site_occupancy
  Li  Li1       1.0  0.96500  0.50500  0.00513  1.0000
  Li  Li2       1.0  0.98000  0.98300  0.01160  1.0000
  Li  Li3       1.0  0.52600  0.37000  0.29400  1.0000
  Li  Li4       1.0  0.97400  0.25500  0.45600  1.0000
  Li  Li5       1.0  0.52000  0.64200  0.73800  1.0000
  Li  Li6       1.0  0.53500  0.12000  0.74500  1.0000
  O   O1        1.0  0.73000  0.17900  0.11000  1.0000
  O   O2        1.0  0.73900  0.68500  0.14600  1.0000
  O   O3        1.0  0.25300  0.05670  0.36900  1.0000
  O   O4        1.0  0.24700  0.56800  0.38100  1.0000
  O   O5        1.0  0.76100  0.94000  0.60400  1.0000
  O   O6        1.0  0.77000  0.44600  0.64000  1.0000
  O   O7        1.0  0.25000  0.81200  0.87500  1.0000
  Pd  Pd1       1.0  0.49800  0.87900  0.24500  1.0000
  Pd  Pd2       1.0  0.00222  0.74600  0.50500  1.0000
