data_image0
_chemical_formula_structural       Li6Mo2O7
_chemical_formula_sum              "Li6 Mo2 O7"
_cell_length_a       4.95437
_cell_length_b       5.84999
_cell_length_c       5.18108
_cell_angle_alpha    86.33
_cell_angle_beta     103.907
_cell_angle_gamma    107.279

_space_group_name_H-M_alt    "P 1"
_space_group_IT_number       1

loop_
  _space_group_symop_operation_xyz
  'x, y, z'

loop_
  _atom_site_type_symbol
  _atom_site_label
  _atom_site_symmetry_multiplicity
  _atom_site_fract_x
  _atom_site_fract_y
  _atom_site_fract_z
  _atom_site_occupancy
  Li  Li1       1.0  0.99200  0.97800  0.00243  1.0000
  Li  Li2       1.0  0.96300  0.49700  0.00972  1.0000
  Li  Li3       1.0  0.49800  0.36000  0.28700  1.0000
  Li  Li4       1.0  0.00196  0.26500  0.46300  1.0000
  Li  Li5       1.0  0.53700  0.12800  0.74000  1.0000
  Li  Li6       1.0  0.50800  0.64700  0.74800  1.0000
  Mo  Mo1       1.0  0.53300  0.87000  0.25400  1.0000
  Mo  Mo2       1.0  0.96700  0.75500  0.49600  1.0000
  O   O1        1.0  0.72100  0.66100  0.11300  1.0000
  O   O2        1.0  0.73200  0.17400  0.12100  1.0000
  O   O3        1.0  0.25100  0.04700  0.36200  1.0000
  O   O4        1.0  0.24900  0.57800  0.38800  1.0000
  O   O5        1.0  0.76800  0.45100  0.62900  1.0000
  O   O6        1.0  0.77900  0.96400  0.63700  1.0000
  O   O7        1.0  0.25000  0.81300  0.87500  1.0000
