data_image0
_chemical_formula_structural       Co2Li6O7
_chemical_formula_sum              "Co2 Li6 O7"
_cell_length_a       4.86492
_cell_length_b       5.61488
_cell_length_c       4.90508
_cell_angle_alpha    87.9898
_cell_angle_beta     101.078
_cell_angle_gamma    107.131

_space_group_name_H-M_alt    "P 1"
_space_group_IT_number       1

loop_
  _space_group_symop_operation_xyz
  'x, y, z'

loop_
  _atom_site_type_symbol
  _atom_site_label
  _atom_site_symmetry_multiplicity
  _atom_site_fract_x
  _atom_site_fract_y
  _atom_site_fract_z
  _atom_site_occupancy
  Co  Co1       1.0  0.49800  0.87900  0.24600  1.0000
  Co  Co2       1.0  0.00172  0.74600  0.50400  1.0000
  Li  Li1       1.0  0.98200  0.98300  0.00457  1.0000
  Li  Li2       1.0  0.96900  0.51200  0.01190  1.0000
  Li  Li3       1.0  0.51500  0.37200  0.29300  1.0000
  Li  Li4       1.0  0.98500  0.25300  0.45700  1.0000
  Li  Li5       1.0  0.53100  0.11300  0.73800  1.0000
  Li  Li6       1.0  0.51800  0.64200  0.74500  1.0000
  O   O1        1.0  0.71500  0.17000  0.11300  1.0000
  O   O2        1.0  0.74100  0.69300  0.16000  1.0000
  O   O3        1.0  0.25000  0.04220  0.37400  1.0000
  O   O4        1.0  0.25000  0.58300  0.37700  1.0000
  O   O5        1.0  0.75900  0.93200  0.59000  1.0000
  O   O6        1.0  0.78500  0.45500  0.63700  1.0000
  O   O7        1.0  0.25000  0.81200  0.87500  1.0000
