data_image0
_chemical_formula_structural       K4S6Sn2
_chemical_formula_sum              "K4 S6 Sn2"
_cell_length_a       6.83188
_cell_length_b       7.60825
_cell_length_c       8.43875
_cell_angle_alpha    74.2773
_cell_angle_beta     70.5349
_cell_angle_gamma    65.9165

_space_group_name_H-M_alt    "P 1"
_space_group_IT_number       1

loop_
  _space_group_symop_operation_xyz
  'x, y, z'

loop_
  _atom_site_type_symbol
  _atom_site_label
  _atom_site_symmetry_multiplicity
  _atom_site_fract_x
  _atom_site_fract_y
  _atom_site_fract_z
  _atom_site_occupancy
  K   K1        1.0  0.16300  0.46100  0.19100  1.0000
  K   K2        1.0  0.41300  0.79300  0.37500  1.0000
  K   K3        1.0  0.58700  0.20700  0.62500  1.0000
  K   K4        1.0  0.83700  0.53900  0.80900  1.0000
  S   S1        1.0  0.24400  0.02650  0.01920  1.0000
  S   S2        1.0  0.67200  0.39900  0.22200  1.0000
  S   S3        1.0  0.86900  0.81800  0.43400  1.0000
  S   S4        1.0  0.13100  0.18200  0.56600  1.0000
  S   S5        1.0  0.32800  0.60100  0.77800  1.0000
  S   S6        1.0  0.75600  0.97300  0.98100  1.0000
  Sn  Sn1       1.0  0.86100  0.06710  0.19500  1.0000
  Sn  Sn2       1.0  0.13900  0.93300  0.80500  1.0000
