data_image0
_chemical_formula_structural       Li6Na2O7
_chemical_formula_sum              "Li6 Na2 O7"
_cell_length_a       5.72889
_cell_length_b       5.132
_cell_length_c       5.51924
_cell_angle_alpha    87.9128
_cell_angle_beta     102.987
_cell_angle_gamma    109.956

_space_group_name_H-M_alt    "P 1"
_space_group_IT_number       1

loop_
  _space_group_symop_operation_xyz
  'x, y, z'

loop_
  _atom_site_type_symbol
  _atom_site_label
  _atom_site_symmetry_multiplicity
  _atom_site_fract_x
  _atom_site_fract_y
  _atom_site_fract_z
  _atom_site_occupancy
  Li  Li1       1.0  0.54800  0.38000  0.32900  1.0000
  Li  Li2       1.0  0.95200  0.24500  0.42100  1.0000
  Li  Li3       1.0  0.47400  0.64400  0.78800  1.0000
  Li  Li4       1.0  0.51500  0.12800  0.81600  1.0000
  Li  Li5       1.0  0.98500  0.49700  0.93400  1.0000
  Li  Li6       1.0  0.02650  0.98100  0.96200  1.0000
  Na  Na1       1.0  0.47600  0.86600  0.26200  1.0000
  Na  Na2       1.0  0.02380  0.75900  0.48800  1.0000
  O   O1        1.0  0.73300  0.61400  0.09360  1.0000
  O   O2        1.0  0.74000  0.31800  0.12000  1.0000
  O   O3        1.0  0.21000  0.17300  0.30100  1.0000
  O   O4        1.0  0.29000  0.45200  0.44900  1.0000
  O   O5        1.0  0.76000  0.30700  0.63000  1.0000
  O   O6        1.0  0.76700  0.01060  0.65600  1.0000
  O   O7        1.0  0.25000  0.81300  0.87500  1.0000
