data_image0
_chemical_formula_structural       Ho2Li6O7
_chemical_formula_sum              "Ho2 Li6 O7"
_cell_length_a       5.552
_cell_length_b       6.11584
_cell_length_c       5.44208
_cell_angle_alpha    82.764
_cell_angle_beta     101.204
_cell_angle_gamma    111.777

_space_group_name_H-M_alt    "P 1"
_space_group_IT_number       1

loop_
  _space_group_symop_operation_xyz
  'x, y, z'

loop_
  _atom_site_type_symbol
  _atom_site_label
  _atom_site_symmetry_multiplicity
  _atom_site_fract_x
  _atom_site_fract_y
  _atom_site_fract_z
  _atom_site_occupancy
  Ho  Ho1       1.0  0.50300  0.89200  0.23000  1.0000
  Ho  Ho2       1.0  0.99700  0.73200  0.52000  1.0000
  Li  Li1       1.0  0.93300  0.52100  0.02760  1.0000
  Li  Li2       1.0  0.46900  0.39700  0.33800  1.0000
  Li  Li3       1.0  0.03080  0.22800  0.41200  1.0000
  Li  Li4       1.0  0.56700  0.10400  0.72300  1.0000
  Li  Li5       1.0  0.51300  0.63900  0.77600  1.0000
  Li  Li6       1.0  0.98700  0.98600  0.97400  1.0000
  O   O1        1.0  0.80900  0.19100  0.05530  1.0000
  O   O2        1.0  0.72100  0.66800  0.15100  1.0000
  O   O3        1.0  0.25500  0.06650  0.33500  1.0000
  O   O4        1.0  0.24500  0.55800  0.41500  1.0000
  O   O5        1.0  0.77900  0.95700  0.59900  1.0000
  O   O6        1.0  0.69100  0.43400  0.69500  1.0000
  O   O7        1.0  0.25000  0.81200  0.87500  1.0000
