data_image0
_chemical_formula_structural       Li8O7
_chemical_formula_sum              "Li8 O7"
_cell_length_a       4.49434
_cell_length_b       6.03075
_cell_length_c       5.25785
_cell_angle_alpha    77.9374
_cell_angle_beta     108.692
_cell_angle_gamma    105.786

_space_group_name_H-M_alt    "P 1"
_space_group_IT_number       1

loop_
  _space_group_symop_operation_xyz
  'x, y, z'

loop_
  _atom_site_type_symbol
  _atom_site_label
  _atom_site_symmetry_multiplicity
  _atom_site_fract_x
  _atom_site_fract_y
  _atom_site_fract_z
  _atom_site_occupancy
  Li  Li1       1.0  0.99800  0.97900  0.00000  1.0000
  Li  Li2       1.0  0.99200  0.56900  0.05480  1.0000
  Li  Li3       1.0  0.48400  0.85700  0.27500  1.0000
  Li  Li4       1.0  0.49800  0.41400  0.32300  1.0000
  Li  Li5       1.0  0.00155  0.21100  0.42700  1.0000
  Li  Li6       1.0  0.01640  0.76800  0.47500  1.0000
  Li  Li7       1.0  0.50800  0.05630  0.69500  1.0000
  Li  Li8       1.0  0.50200  0.64600  0.75000  1.0000
  O   O1        1.0  0.66800  0.69700  0.11800  1.0000
  O   O2        1.0  0.30100  0.09230  0.31600  1.0000
  O   O3        1.0  0.19900  0.53300  0.43400  1.0000
  O   O4        1.0  0.83200  0.92800  0.63200  1.0000
  O   O5        1.0  0.72300  0.38600  0.75600  1.0000
  O   O6        1.0  0.25000  0.81200  0.87500  1.0000
  O   O7        1.0  0.77700  0.23900  0.99400  1.0000
