data_image0
_chemical_formula_structural       B2Li6O7
_chemical_formula_sum              "B2 Li6 O7"
_cell_length_a       5.07118
_cell_length_b       5.70833
_cell_length_c       4.93879
_cell_angle_alpha    76.8232
_cell_angle_beta     101.487
_cell_angle_gamma    116.631

_space_group_name_H-M_alt    "P 1"
_space_group_IT_number       1

loop_
  _space_group_symop_operation_xyz
  'x, y, z'

loop_
  _atom_site_type_symbol
  _atom_site_label
  _atom_site_symmetry_multiplicity
  _atom_site_fract_x
  _atom_site_fract_y
  _atom_site_fract_z
  _atom_site_occupancy
  B   B1        1.0  0.73900  0.07810  0.33100  1.0000
  B   B2        1.0  0.75900  0.56300  0.44100  1.0000
  Li  Li1       1.0  0.30100  0.59900  0.24800  1.0000
  Li  Li2       1.0  0.22600  0.08090  0.44900  1.0000
  Li  Li3       1.0  0.48600  0.64100  0.78200  1.0000
  Li  Li4       1.0  0.59600  0.07300  0.84100  1.0000
  Li  Li5       1.0  0.83500  0.47500  0.96500  1.0000
  Li  Li6       1.0  0.06090  0.99200  0.96700  1.0000
  O   O1        1.0  0.70100  0.63900  0.16400  1.0000
  O   O2        1.0  0.97900  0.22700  0.16900  1.0000
  O   O3        1.0  0.45700  0.03180  0.19600  1.0000
  O   O4        1.0  0.07430  0.65100  0.53000  1.0000
  O   O5        1.0  0.79200  0.98300  0.60900  1.0000
  O   O6        1.0  0.55500  0.40200  0.62400  1.0000
  O   O7        1.0  0.18900  0.75200  0.80800  1.0000
