data_image0
_chemical_formula_structural       Eu2Li6O7
_chemical_formula_sum              "Eu2 Li6 O7"
_cell_length_a       5.57755
_cell_length_b       5.98884
_cell_length_c       5.40043
_cell_angle_alpha    94.1553
_cell_angle_beta     95.884
_cell_angle_gamma    110.629

_space_group_name_H-M_alt    "P 1"
_space_group_IT_number       1

loop_
  _space_group_symop_operation_xyz
  'x, y, z'

loop_
  _atom_site_type_symbol
  _atom_site_label
  _atom_site_symmetry_multiplicity
  _atom_site_fract_x
  _atom_site_fract_y
  _atom_site_fract_z
  _atom_site_occupancy
  Eu  Eu1       1.0  0.53100  0.91400  0.27800  1.0000
  Eu  Eu2       1.0  0.96900  0.71100  0.47200  1.0000
  Li  Li1       1.0  0.46600  0.36600  0.29000  1.0000
  Li  Li2       1.0  0.03450  0.25900  0.46000  1.0000
  Li  Li3       1.0  0.49900  0.67000  0.77100  1.0000
  Li  Li4       1.0  0.54100  0.11400  0.81300  1.0000
  Li  Li5       1.0  0.95900  0.51100  0.93700  1.0000
  Li  Li6       1.0  0.00090  0.95500  0.97900  1.0000
  O   O1        1.0  0.70400  0.64500  0.06860  1.0000
  O   O2        1.0  0.76000  0.29200  0.14700  1.0000
  O   O3        1.0  0.19400  0.05940  0.29700  1.0000
  O   O4        1.0  0.30600  0.56600  0.45300  1.0000
  O   O5        1.0  0.74000  0.33300  0.60300  1.0000
  O   O6        1.0  0.79600  0.98000  0.68100  1.0000
  O   O7        1.0  0.25000  0.81200  0.87500  1.0000
