data_image0
_chemical_formula_structural       Li6O7Pb2
_chemical_formula_sum              "Li6 O7 Pb2"
_cell_length_a       5.43966
_cell_length_b       6.06937
_cell_length_c       5.39954
_cell_angle_alpha    89.0863
_cell_angle_beta     99.6038
_cell_angle_gamma    108.113

_space_group_name_H-M_alt    "P 1"
_space_group_IT_number       1

loop_
  _space_group_symop_operation_xyz
  'x, y, z'

loop_
  _atom_site_type_symbol
  _atom_site_label
  _atom_site_symmetry_multiplicity
  _atom_site_fract_x
  _atom_site_fract_y
  _atom_site_fract_z
  _atom_site_occupancy
  Li  Li1       1.0  0.97200  0.98100  0.00295  1.0000
  Li  Li2       1.0  0.51100  0.37600  0.31200  1.0000
  Li  Li3       1.0  0.98900  0.24900  0.43800  1.0000
  Li  Li4       1.0  0.52800  0.64400  0.74700  1.0000
  Li  Li5       1.0  0.57800  0.13400  0.75400  1.0000
  Li  Li6       1.0  0.92200  0.49100  0.99600  1.0000
  O   O1        1.0  0.75300  0.18800  0.11100  1.0000
  O   O2        1.0  0.73200  0.67700  0.13100  1.0000
  O   O3        1.0  0.24300  0.06180  0.36300  1.0000
  O   O4        1.0  0.25700  0.56300  0.38700  1.0000
  O   O5        1.0  0.76800  0.94800  0.61900  1.0000
  O   O6        1.0  0.74700  0.43700  0.63900  1.0000
  O   O7        1.0  0.25000  0.81300  0.87500  1.0000
  Pb  Pb1       1.0  0.49900  0.88500  0.23500  1.0000
  Pb  Pb2       1.0  0.00078  0.74000  0.51500  1.0000
