data_image0
_chemical_formula_structural       Cu8Na6S8
_chemical_formula_sum              "Cu8 Na6 S8"
_cell_length_a       14.5227
_cell_length_b       7.21152
_cell_length_c       3.73502
_cell_angle_alpha    90
_cell_angle_beta     90
_cell_angle_gamma    90

_space_group_name_H-M_alt    "P 1"
_space_group_IT_number       1

loop_
  _space_group_symop_operation_xyz
  'x, y, z'

loop_
  _atom_site_type_symbol
  _atom_site_label
  _atom_site_symmetry_multiplicity
  _atom_site_fract_x
  _atom_site_fract_y
  _atom_site_fract_z
  _atom_site_occupancy
  Cu  Cu1       1.0  0.56000  0.17100  0.00000  1.0000
  Cu  Cu2       1.0  0.06040  0.32900  0.00000  1.0000
  Cu  Cu3       1.0  0.94000  0.67100  0.00000  1.0000
  Cu  Cu4       1.0  0.44000  0.82900  0.00000  1.0000
  Cu  Cu5       1.0  0.41100  0.07910  0.50000  1.0000
  Cu  Cu6       1.0  0.91100  0.42100  0.50000  1.0000
  Cu  Cu7       1.0  0.08860  0.57900  0.50000  1.0000
  Cu  Cu8       1.0  0.58900  0.92100  0.50000  1.0000
  Na  Na1       1.0  0.23700  0.02090  0.00000  1.0000
  Na  Na2       1.0  0.73700  0.47900  0.00000  1.0000
  Na  Na3       1.0  0.26300  0.52100  0.00000  1.0000
  Na  Na4       1.0  0.76300  0.97900  0.00000  1.0000
  Na  Na5       1.0  0.00000  0.00000  0.50000  1.0000
  Na  Na6       1.0  0.50000  0.50000  0.50000  1.0000
  S   S1        1.0  0.90800  0.24300  0.00000  1.0000
  S   S2        1.0  0.40800  0.25700  0.00000  1.0000
  S   S3        1.0  0.59200  0.74300  0.00000  1.0000
  S   S4        1.0  0.09210  0.75700  0.00000  1.0000
  S   S5        1.0  0.65100  0.21500  0.50000  1.0000
  S   S6        1.0  0.15100  0.28500  0.50000  1.0000
  S   S7        1.0  0.84900  0.71500  0.50000  1.0000
  S   S8        1.0  0.34900  0.78500  0.50000  1.0000
