data_image0
_chemical_formula_structural       Li6O7Re2
_chemical_formula_sum              "Li6 O7 Re2"
_cell_length_a       4.70543
_cell_length_b       5.96823
_cell_length_c       5.04326
_cell_angle_alpha    87.7061
_cell_angle_beta     100.77
_cell_angle_gamma    105.718

_space_group_name_H-M_alt    "P 1"
_space_group_IT_number       1

loop_
  _space_group_symop_operation_xyz
  'x, y, z'

loop_
  _atom_site_type_symbol
  _atom_site_label
  _atom_site_symmetry_multiplicity
  _atom_site_fract_x
  _atom_site_fract_y
  _atom_site_fract_z
  _atom_site_occupancy
  Li  Li1       1.0  0.95600  0.48200  0.00665  1.0000
  Li  Li2       1.0  0.51900  0.37000  0.29000  1.0000
  Li  Li3       1.0  0.98200  0.25500  0.46000  1.0000
  Li  Li4       1.0  0.54400  0.14300  0.74300  1.0000
  Li  Li5       1.0  0.52900  0.63800  0.75300  1.0000
  Li  Li6       1.0  0.97100  0.98700  0.99700  1.0000
  O   O1        1.0  0.72100  0.16800  0.11700  1.0000
  O   O2        1.0  0.73300  0.67400  0.12000  1.0000
  O   O3        1.0  0.24900  0.07700  0.36000  1.0000
  O   O4        1.0  0.25100  0.54800  0.39000  1.0000
  O   O5        1.0  0.76700  0.95100  0.63000  1.0000
  O   O6        1.0  0.77900  0.45700  0.63300  1.0000
  O   O7        1.0  0.25000  0.81300  0.87500  1.0000
  Re  Re1       1.0  0.49100  0.86700  0.26300  1.0000
  Re  Re2       1.0  0.00895  0.75800  0.48700  1.0000
