data_image0
_chemical_formula_structural       Li6O7Ru2
_chemical_formula_sum              "Li6 O7 Ru2"
_cell_length_a       4.96281
_cell_length_b       5.87601
_cell_length_c       4.9978
_cell_angle_alpha    89.2927
_cell_angle_beta     98.5896
_cell_angle_gamma    106.952

_space_group_name_H-M_alt    "P 1"
_space_group_IT_number       1

loop_
  _space_group_symop_operation_xyz
  'x, y, z'

loop_
  _atom_site_type_symbol
  _atom_site_label
  _atom_site_symmetry_multiplicity
  _atom_site_fract_x
  _atom_site_fract_y
  _atom_site_fract_z
  _atom_site_occupancy
  Li  Li1       1.0  0.95000  0.49400  0.00948  1.0000
  Li  Li2       1.0  0.52800  0.37900  0.29700  1.0000
  Li  Li3       1.0  0.97200  0.24600  0.45300  1.0000
  Li  Li4       1.0  0.55000  0.13100  0.74100  1.0000
  Li  Li5       1.0  0.53500  0.63900  0.75100  1.0000
  Li  Li6       1.0  0.96500  0.98600  0.99900  1.0000
  O   O1        1.0  0.71600  0.17000  0.11500  1.0000
  O   O2        1.0  0.74100  0.69700  0.14600  1.0000
  O   O3        1.0  0.25100  0.54700  0.37300  1.0000
  O   O4        1.0  0.24900  0.07760  0.37700  1.0000
  O   O5        1.0  0.75900  0.92800  0.60400  1.0000
  O   O6        1.0  0.78400  0.45500  0.63500  1.0000
  O   O7        1.0  0.25000  0.81300  0.87500  1.0000
  Ru  Ru1       1.0  0.46900  0.87300  0.25100  1.0000
  Ru  Ru2       1.0  0.03090  0.75200  0.49900  1.0000
