data_image0
_chemical_formula_structural       Nd8O16Pd4
_chemical_formula_sum              "Nd8 O16 Pd4"
_cell_length_a       5.67651
_cell_length_b       5.70399
_cell_length_c       12.3973
_cell_angle_alpha    90
_cell_angle_beta     90
_cell_angle_gamma    90

_space_group_name_H-M_alt    "P 1"
_space_group_IT_number       1

loop_
  _space_group_symop_operation_xyz
  'x, y, z'

loop_
  _atom_site_type_symbol
  _atom_site_label
  _atom_site_symmetry_multiplicity
  _atom_site_fract_x
  _atom_site_fract_y
  _atom_site_fract_z
  _atom_site_occupancy
  Nd  Nd1       1.0  0.49100  0.03840  0.15500  1.0000
  Nd  Nd2       1.0  0.00936  0.53800  0.15500  1.0000
  Nd  Nd3       1.0  0.99100  0.03840  0.34500  1.0000
  Nd  Nd4       1.0  0.50900  0.53800  0.34500  1.0000
  Nd  Nd5       1.0  0.49100  0.46200  0.65500  1.0000
  Nd  Nd6       1.0  0.00936  0.96200  0.65500  1.0000
  Nd  Nd7       1.0  0.99100  0.46200  0.84500  1.0000
  Nd  Nd8       1.0  0.50900  0.96200  0.84500  1.0000
  O   O1        1.0  0.19300  0.30700  0.01090  1.0000
  O   O2        1.0  0.30700  0.80700  0.01090  1.0000
  O   O3        1.0  0.75800  0.28800  0.24500  1.0000
  O   O4        1.0  0.74200  0.78800  0.24500  1.0000
  O   O5        1.0  0.25800  0.28800  0.25500  1.0000
  O   O6        1.0  0.24200  0.78800  0.25500  1.0000
  O   O7        1.0  0.69300  0.30700  0.48900  1.0000
  O   O8        1.0  0.80700  0.80700  0.48900  1.0000
  O   O9        1.0  0.19300  0.19300  0.51100  1.0000
  O   O10       1.0  0.30700  0.69300  0.51100  1.0000
  O   O11       1.0  0.75800  0.21200  0.74500  1.0000
  O   O12       1.0  0.74200  0.71200  0.74500  1.0000
  O   O13       1.0  0.25800  0.21200  0.75500  1.0000
  O   O14       1.0  0.24200  0.71200  0.75500  1.0000
  O   O15       1.0  0.69300  0.19300  0.98900  1.0000
  O   O16       1.0  0.80700  0.69300  0.98900  1.0000
  Pd  Pd1       1.0  0.00000  0.00000  0.00000  1.0000
  Pd  Pd2       1.0  0.50000  0.50000  0.00000  1.0000
  Pd  Pd3       1.0  0.50000  0.00000  0.50000  1.0000
  Pd  Pd4       1.0  0.00000  0.50000  0.50000  1.0000
