data_image0
_chemical_formula_structural       Li6O7Pu2
_chemical_formula_sum              "Li6 O7 Pu2"
_cell_length_a       5.69941
_cell_length_b       6.16888
_cell_length_c       5.54543
_cell_angle_alpha    86.6559
_cell_angle_beta     100.119
_cell_angle_gamma    111.98

_space_group_name_H-M_alt    "P 1"
_space_group_IT_number       1

loop_
  _space_group_symop_operation_xyz
  'x, y, z'

loop_
  _atom_site_type_symbol
  _atom_site_label
  _atom_site_symmetry_multiplicity
  _atom_site_fract_x
  _atom_site_fract_y
  _atom_site_fract_z
  _atom_site_occupancy
  Li  Li1       1.0  0.98300  0.98600  0.00041  1.0000
  Li  Li2       1.0  0.87800  0.48800  0.00057  1.0000
  Li  Li3       1.0  0.47300  0.39000  0.34700  1.0000
  Li  Li4       1.0  0.02700  0.23500  0.40300  1.0000
  Li  Li5       1.0  0.62200  0.13700  0.74900  1.0000
  Li  Li6       1.0  0.51700  0.63900  0.75000  1.0000
  O   O1        1.0  0.79200  0.17500  0.09210  1.0000
  O   O2        1.0  0.71800  0.66700  0.14600  1.0000
  O   O3        1.0  0.24800  0.06180  0.33700  1.0000
  O   O4        1.0  0.25200  0.56300  0.41300  1.0000
  O   O5        1.0  0.78200  0.95800  0.60400  1.0000
  O   O6        1.0  0.70800  0.45000  0.65800  1.0000
  O   O7        1.0  0.25000  0.81300  0.87500  1.0000
  Pu  Pu1       1.0  0.50300  0.88800  0.23000  1.0000
  Pu  Pu2       1.0  0.99700  0.73700  0.52000  1.0000
