data_image0
_chemical_formula_structural       Li6Ni2O7
_chemical_formula_sum              "Li6 Ni2 O7"
_cell_length_a       4.83896
_cell_length_b       5.59482
_cell_length_c       4.92472
_cell_angle_alpha    88.3524
_cell_angle_beta     100.59
_cell_angle_gamma    106.746

_space_group_name_H-M_alt    "P 1"
_space_group_IT_number       1

loop_
  _space_group_symop_operation_xyz
  'x, y, z'

loop_
  _atom_site_type_symbol
  _atom_site_label
  _atom_site_symmetry_multiplicity
  _atom_site_fract_x
  _atom_site_fract_y
  _atom_site_fract_z
  _atom_site_occupancy
  Li  Li1       1.0  0.98100  0.98100  0.00679  1.0000
  Li  Li2       1.0  0.96900  0.51200  0.01360  1.0000
  Li  Li3       1.0  0.51500  0.37200  0.29200  1.0000
  Li  Li4       1.0  0.98500  0.25300  0.45800  1.0000
  Li  Li5       1.0  0.53100  0.11300  0.73600  1.0000
  Li  Li6       1.0  0.51900  0.64400  0.74300  1.0000
  Ni  Ni1       1.0  0.49600  0.87800  0.24600  1.0000
  Ni  Ni2       1.0  0.00385  0.74700  0.50400  1.0000
  O   O1        1.0  0.71600  0.17100  0.11200  1.0000
  O   O2        1.0  0.72900  0.69200  0.15600  1.0000
  O   O3        1.0  0.25400  0.04180  0.37000  1.0000
  O   O4        1.0  0.24600  0.58300  0.38000  1.0000
  O   O5        1.0  0.77100  0.93300  0.59400  1.0000
  O   O6        1.0  0.78400  0.45400  0.63800  1.0000
  O   O7        1.0  0.25000  0.81300  0.87500  1.0000
