data_image0
_chemical_formula_structural       Li6O7Si2
_chemical_formula_sum              "Li6 O7 Si2"
_cell_length_a       4.72891
_cell_length_b       5.57249
_cell_length_c       4.84545
_cell_angle_alpha    87.7939
_cell_angle_beta     101.469
_cell_angle_gamma    106.835

_space_group_name_H-M_alt    "P 1"
_space_group_IT_number       1

loop_
  _space_group_symop_operation_xyz
  'x, y, z'

loop_
  _atom_site_type_symbol
  _atom_site_label
  _atom_site_symmetry_multiplicity
  _atom_site_fract_x
  _atom_site_fract_y
  _atom_site_fract_z
  _atom_site_occupancy
  Li  Li1       1.0  0.94100  0.49800  0.02140  1.0000
  Li  Li2       1.0  0.50700  0.37200  0.29300  1.0000
  Li  Li3       1.0  0.99300  0.25300  0.45700  1.0000
  Li  Li4       1.0  0.55900  0.12700  0.72900  1.0000
  Li  Li5       1.0  0.52700  0.64100  0.75100  1.0000
  Li  Li6       1.0  0.97300  0.98400  0.99900  1.0000
  O   O1        1.0  0.70100  0.16100  0.11800  1.0000
  O   O2        1.0  0.72200  0.69800  0.16100  1.0000
  O   O3        1.0  0.25500  0.02460  0.37300  1.0000
  O   O4        1.0  0.24500  0.60000  0.37700  1.0000
  O   O5        1.0  0.77800  0.92700  0.58800  1.0000
  O   O6        1.0  0.79900  0.46400  0.63200  1.0000
  O   O7        1.0  0.25000  0.81300  0.87500  1.0000
  Si  Si1       1.0  0.49300  0.88000  0.22800  1.0000
  Si  Si2       1.0  0.00731  0.74500  0.52200  1.0000
