data_image0
_chemical_formula_structural       Li6O7Sn2
_chemical_formula_sum              "Li6 O7 Sn2"
_cell_length_a       5.26009
_cell_length_b       5.9551
_cell_length_c       5.24438
_cell_angle_alpha    89.254
_cell_angle_beta     100.654
_cell_angle_gamma    107.034

_space_group_name_H-M_alt    "P 1"
_space_group_IT_number       1

loop_
  _space_group_symop_operation_xyz
  'x, y, z'

loop_
  _atom_site_type_symbol
  _atom_site_label
  _atom_site_symmetry_multiplicity
  _atom_site_fract_x
  _atom_site_fract_y
  _atom_site_fract_z
  _atom_site_occupancy
  Li  Li1       1.0  0.96700  0.98400  0.00378  1.0000
  Li  Li2       1.0  0.92900  0.48800  0.00917  1.0000
  Li  Li3       1.0  0.51500  0.37200  0.30200  1.0000
  Li  Li4       1.0  0.98500  0.25300  0.44800  1.0000
  Li  Li5       1.0  0.57100  0.13700  0.74100  1.0000
  Li  Li6       1.0  0.53300  0.64100  0.74600  1.0000
  O   O1        1.0  0.73100  0.18200  0.11300  1.0000
  O   O2        1.0  0.73400  0.68500  0.14200  1.0000
  O   O3        1.0  0.24800  0.05160  0.37400  1.0000
  O   O4        1.0  0.25200  0.57300  0.37600  1.0000
  O   O5        1.0  0.76600  0.94000  0.60800  1.0000
  O   O6        1.0  0.76900  0.44300  0.63700  1.0000
  O   O7        1.0  0.25000  0.81300  0.87500  1.0000
  Sn  Sn1       1.0  0.49500  0.88300  0.23300  1.0000
  Sn  Sn2       1.0  0.00499  0.74200  0.51700  1.0000
