data_image0
_chemical_formula_structural       Li6O7Tc2
_chemical_formula_sum              "Li6 O7 Tc2"
_cell_length_a       4.99641
_cell_length_b       5.84622
_cell_length_c       5.11992
_cell_angle_alpha    87.897
_cell_angle_beta     102.798
_cell_angle_gamma    106.469

_space_group_name_H-M_alt    "P 1"
_space_group_IT_number       1

loop_
  _space_group_symop_operation_xyz
  'x, y, z'

loop_
  _atom_site_type_symbol
  _atom_site_label
  _atom_site_symmetry_multiplicity
  _atom_site_fract_x
  _atom_site_fract_y
  _atom_site_fract_z
  _atom_site_occupancy
  Li  Li1       1.0  0.98100  0.98000  0.00348  1.0000
  Li  Li2       1.0  0.96000  0.49500  0.00994  1.0000
  Li  Li3       1.0  0.50600  0.36200  0.28900  1.0000
  Li  Li4       1.0  0.99400  0.26300  0.46100  1.0000
  Li  Li5       1.0  0.54000  0.13000  0.74000  1.0000
  Li  Li6       1.0  0.51900  0.64500  0.74700  1.0000
  O   O1        1.0  0.73300  0.17500  0.11800  1.0000
  O   O2        1.0  0.72800  0.66700  0.12200  1.0000
  O   O3        1.0  0.25300  0.04960  0.36100  1.0000
  O   O4        1.0  0.24700  0.57500  0.38900  1.0000
  O   O5        1.0  0.77200  0.95800  0.62800  1.0000
  O   O6        1.0  0.76700  0.45000  0.63200  1.0000
  O   O7        1.0  0.25000  0.81300  0.87500  1.0000
  Tc  Tc1       1.0  0.52000  0.87600  0.25200  1.0000
  Tc  Tc2       1.0  0.98000  0.74900  0.49800  1.0000
