data_image0
_chemical_formula_structural       Li6O7Ta2
_chemical_formula_sum              "Li6 O7 Ta2"
_cell_length_a       5.12576
_cell_length_b       5.9097
_cell_length_c       5.23523
_cell_angle_alpha    86.989
_cell_angle_beta     102.733
_cell_angle_gamma    108.085

_space_group_name_H-M_alt    "P 1"
_space_group_IT_number       1

loop_
  _space_group_symop_operation_xyz
  'x, y, z'

loop_
  _atom_site_type_symbol
  _atom_site_label
  _atom_site_symmetry_multiplicity
  _atom_site_fract_x
  _atom_site_fract_y
  _atom_site_fract_z
  _atom_site_occupancy
  Li  Li1       1.0  0.94500  0.49600  0.01020  1.0000
  Li  Li2       1.0  0.50100  0.36200  0.29200  1.0000
  Li  Li3       1.0  0.99900  0.26300  0.45800  1.0000
  Li  Li4       1.0  0.55500  0.12900  0.74000  1.0000
  Li  Li5       1.0  0.51300  0.65100  0.75400  1.0000
  Li  Li6       1.0  0.98700  0.97400  0.99600  1.0000
  O   O1        1.0  0.72200  0.66400  0.11600  1.0000
  O   O2        1.0  0.73300  0.17400  0.12200  1.0000
  O   O3        1.0  0.24700  0.04480  0.36700  1.0000
  O   O4        1.0  0.25300  0.58000  0.38300  1.0000
  O   O5        1.0  0.76700  0.45100  0.62800  1.0000
  O   O6        1.0  0.77800  0.96100  0.63400  1.0000
  O   O7        1.0  0.25000  0.81200  0.87500  1.0000
  Ta  Ta1       1.0  0.52200  0.87500  0.24700  1.0000
  Ta  Ta2       1.0  0.97800  0.75000  0.50300  1.0000
