data_image0
_chemical_formula_structural       Bi4O7Pd
_chemical_formula_sum              "Bi4 O7 Pd1"
_cell_length_a       6.85737
_cell_length_b       6.85737
_cell_length_c       9.15439
_cell_angle_alpha    49.356
_cell_angle_beta     49.356
_cell_angle_gamma    34.1344

_space_group_name_H-M_alt    "P 1"
_space_group_IT_number       1

loop_
  _space_group_symop_operation_xyz
  'x, y, z'

loop_
  _atom_site_type_symbol
  _atom_site_label
  _atom_site_symmetry_multiplicity
  _atom_site_fract_x
  _atom_site_fract_y
  _atom_site_fract_z
  _atom_site_occupancy
  Bi  Bi1       1.0  0.25100  0.25100  0.16000  1.0000
  Bi  Bi2       1.0  0.41900  0.41900  0.38500  1.0000
  Bi  Bi3       1.0  0.58100  0.58100  0.61500  1.0000
  Bi  Bi4       1.0  0.74900  0.74900  0.84000  1.0000
  O   O1        1.0  0.50000  0.50000  0.00000  1.0000
  O   O2        1.0  0.08590  0.08590  0.12200  1.0000
  O   O3        1.0  0.63300  0.63300  0.31700  1.0000
  O   O4        1.0  0.19900  0.19900  0.44800  1.0000
  O   O5        1.0  0.80100  0.80100  0.55200  1.0000
  O   O6        1.0  0.36700  0.36700  0.68300  1.0000
  O   O7        1.0  0.91400  0.91400  0.87800  1.0000
  Pd  Pd1       1.0  0.00000  0.00000  0.00000  1.0000
