data_image0
_chemical_formula_structural       K2Li6O7
_chemical_formula_sum              "K2 Li6 O7"
_cell_length_a       5.84459
_cell_length_b       5.63574
_cell_length_c       5.79025
_cell_angle_alpha    93.1952
_cell_angle_beta     99.9207
_cell_angle_gamma    110.437

_space_group_name_H-M_alt    "P 1"
_space_group_IT_number       1

loop_
  _space_group_symop_operation_xyz
  'x, y, z'

loop_
  _atom_site_type_symbol
  _atom_site_label
  _atom_site_symmetry_multiplicity
  _atom_site_fract_x
  _atom_site_fract_y
  _atom_site_fract_z
  _atom_site_occupancy
  K   K1        1.0  0.49300  0.86100  0.29200  1.0000
  K   K2        1.0  0.00686  0.76400  0.45800  1.0000
  Li  Li1       1.0  0.54300  0.35400  0.33000  1.0000
  Li  Li2       1.0  0.95700  0.27100  0.42000  1.0000
  Li  Li3       1.0  0.40200  0.56600  0.79800  1.0000
  Li  Li4       1.0  0.56000  0.09340  0.84600  1.0000
  Li  Li5       1.0  0.94000  0.53200  0.90400  1.0000
  Li  Li6       1.0  0.09840  0.05890  0.95200  1.0000
  O   O1        1.0  0.65500  0.54300  0.06750  1.0000
  O   O2        1.0  0.76300  0.33600  0.12300  1.0000
  O   O3        1.0  0.20200  0.18600  0.29500  1.0000
  O   O4        1.0  0.29800  0.43900  0.45500  1.0000
  O   O5        1.0  0.73700  0.28900  0.62700  1.0000
  O   O6        1.0  0.84500  0.08250  0.68300  1.0000
  O   O7        1.0  0.25000  0.81200  0.87500  1.0000
