data_image0
_chemical_formula_structural       Li6O7Sb2
_chemical_formula_sum              "Li6 O7 Sb2"
_cell_length_a       5.35923
_cell_length_b       5.95568
_cell_length_c       5.64193
_cell_angle_alpha    87.7863
_cell_angle_beta     94.6646
_cell_angle_gamma    111.081

_space_group_name_H-M_alt    "P 1"
_space_group_IT_number       1

loop_
  _space_group_symop_operation_xyz
  'x, y, z'

loop_
  _atom_site_type_symbol
  _atom_site_label
  _atom_site_symmetry_multiplicity
  _atom_site_fract_x
  _atom_site_fract_y
  _atom_site_fract_z
  _atom_site_occupancy
  Li  Li1       1.0  0.03180  0.97300  0.03620  1.0000
  Li  Li2       1.0  0.49600  0.39100  0.37100  1.0000
  Li  Li3       1.0  0.00360  0.23400  0.37900  1.0000
  Li  Li4       1.0  0.46800  0.65200  0.71400  1.0000
  Li  Li5       1.0  0.60600  0.13400  0.75400  1.0000
  Li  Li6       1.0  0.89400  0.49100  0.99600  1.0000
  O   O1        1.0  0.79900  0.15600  0.07240  1.0000
  O   O2        1.0  0.77100  0.66700  0.21100  1.0000
  O   O3        1.0  0.27300  0.06200  0.32900  1.0000
  O   O4        1.0  0.22700  0.56300  0.42100  1.0000
  O   O5        1.0  0.72900  0.95800  0.53900  1.0000
  O   O6        1.0  0.70100  0.46900  0.67800  1.0000
  O   O7        1.0  0.25000  0.81200  0.87500  1.0000
  Sb  Sb1       1.0  0.50700  0.87700  0.21300  1.0000
  Sb  Sb2       1.0  0.99300  0.74800  0.53700  1.0000
