data_image0
_chemical_formula_structural       Ba2Li6O7
_chemical_formula_sum              "Ba2 Li6 O7"
_cell_length_a       6.76254
_cell_length_b       6.24463
_cell_length_c       5.41331
_cell_angle_alpha    92.9235
_cell_angle_beta     95.5843
_cell_angle_gamma    123.144

_space_group_name_H-M_alt    "P 1"
_space_group_IT_number       1

loop_
  _space_group_symop_operation_xyz
  'x, y, z'

loop_
  _atom_site_type_symbol
  _atom_site_label
  _atom_site_symmetry_multiplicity
  _atom_site_fract_x
  _atom_site_fract_y
  _atom_site_fract_z
  _atom_site_occupancy
  Ba  Ba1       1.0  0.45400  0.76700  0.24300  1.0000
  Ba  Ba2       1.0  0.04620  0.85800  0.50700  1.0000
  Li  Li1       1.0  0.92700  0.05460  0.01430  1.0000
  Li  Li2       1.0  0.59700  0.35600  0.24700  1.0000
  Li  Li3       1.0  0.90300  0.26900  0.50300  1.0000
  Li  Li4       1.0  0.57300  0.57000  0.73600  1.0000
  Li  Li5       1.0  0.58800  0.09120  0.80900  1.0000
  Li  Li6       1.0  0.91200  0.53400  0.94100  1.0000
  O   O1        1.0  0.75000  0.68300  0.08570  1.0000
  O   O2        1.0  0.79900  0.24500  0.14100  1.0000
  O   O3        1.0  0.25700  0.26100  0.25600  1.0000
  O   O4        1.0  0.24300  0.36400  0.49400  1.0000
  O   O5        1.0  0.70100  0.38000  0.60900  1.0000
  O   O6        1.0  0.75000  0.94200  0.66400  1.0000
  O   O7        1.0  0.25000  0.81200  0.87500  1.0000
