data_image0
_chemical_formula_structural       Li6O7Sc2
_chemical_formula_sum              "Li6 O7 Sc2"
_cell_length_a       5.24714
_cell_length_b       5.86813
_cell_length_c       5.18604
_cell_angle_alpha    89.0231
_cell_angle_beta     100.75
_cell_angle_gamma    107.171

_space_group_name_H-M_alt    "P 1"
_space_group_IT_number       1

loop_
  _space_group_symop_operation_xyz
  'x, y, z'

loop_
  _atom_site_type_symbol
  _atom_site_label
  _atom_site_symmetry_multiplicity
  _atom_site_fract_x
  _atom_site_fract_y
  _atom_site_fract_z
  _atom_site_occupancy
  Li  Li1       1.0  0.95000  0.50000  0.01820  1.0000
  Li  Li2       1.0  0.50400  0.37700  0.29900  1.0000
  Li  Li3       1.0  0.99600  0.24800  0.45100  1.0000
  Li  Li4       1.0  0.55000  0.12500  0.73200  1.0000
  Li  Li5       1.0  0.52700  0.64700  0.75100  1.0000
  Li  Li6       1.0  0.97300  0.97800  0.99900  1.0000
  O   O1        1.0  0.73800  0.18500  0.10800  1.0000
  O   O2        1.0  0.73400  0.68100  0.13800  1.0000
  O   O3        1.0  0.25200  0.06150  0.37200  1.0000
  O   O4        1.0  0.24800  0.56300  0.37800  1.0000
  O   O5        1.0  0.76600  0.94400  0.61200  1.0000
  O   O6        1.0  0.76200  0.44000  0.64200  1.0000
  O   O7        1.0  0.25000  0.81300  0.87500  1.0000
  Sc  Sc1       1.0  0.49200  0.87700  0.23700  1.0000
  Sc  Sc2       1.0  0.00776  0.74800  0.51300  1.0000
