data_image0
_chemical_formula_structural       Li6Lu2O7
_chemical_formula_sum              "Li6 Lu2 O7"
_cell_length_a       5.45973
_cell_length_b       6.05806
_cell_length_c       5.35923
_cell_angle_alpha    83.4379
_cell_angle_beta     101.079
_cell_angle_gamma    110.964

_space_group_name_H-M_alt    "P 1"
_space_group_IT_number       1

loop_
  _space_group_symop_operation_xyz
  'x, y, z'

loop_
  _atom_site_type_symbol
  _atom_site_label
  _atom_site_symmetry_multiplicity
  _atom_site_fract_x
  _atom_site_fract_y
  _atom_site_fract_z
  _atom_site_occupancy
  Li  Li1       1.0  0.94400  0.52100  0.03040  1.0000
  Li  Li2       1.0  0.47500  0.39500  0.33200  1.0000
  Li  Li3       1.0  0.02530  0.23000  0.41800  1.0000
  Li  Li4       1.0  0.55600  0.10400  0.72000  1.0000
  Li  Li5       1.0  0.51700  0.64300  0.77400  1.0000
  Li  Li6       1.0  0.98300  0.98200  0.97600  1.0000
  Lu  Lu1       1.0  0.50000  0.88700  0.23100  1.0000
  Lu  Lu2       1.0  1.00000  0.73800  0.51900  1.0000
  O   O1        1.0  0.79600  0.18700  0.06420  1.0000
  O   O2        1.0  0.72500  0.67200  0.15200  1.0000
  O   O3        1.0  0.25900  0.06410  0.34400  1.0000
  O   O4        1.0  0.24100  0.56100  0.40500  1.0000
  O   O5        1.0  0.77500  0.95300  0.59800  1.0000
  O   O6        1.0  0.70400  0.43800  0.68600  1.0000
  O   O7        1.0  0.25000  0.81300  0.87500  1.0000
