data_image0
_chemical_formula_structural       Ge4Lu4O14
_chemical_formula_sum              "Ge4 Lu4 O14"
_cell_length_a       6.57949
_cell_length_b       6.75217
_cell_length_c       6.67405
_cell_angle_alpha    85.2165
_cell_angle_beta     95.6692
_cell_angle_gamma    115.517

_space_group_name_H-M_alt    "P 1"
_space_group_IT_number       1

loop_
  _space_group_symop_operation_xyz
  'x, y, z'

loop_
  _atom_site_type_symbol
  _atom_site_label
  _atom_site_symmetry_multiplicity
  _atom_site_fract_x
  _atom_site_fract_y
  _atom_site_fract_z
  _atom_site_occupancy
  Ge  Ge1       1.0  0.77800  0.86700  0.30800  1.0000
  Ge  Ge2       1.0  0.32000  0.36100  0.62900  1.0000
  Ge  Ge3       1.0  0.78100  0.49900  0.88700  1.0000
  Ge  Ge4       1.0  0.21900  0.82500  0.96600  1.0000
  Lu  Lu1       1.0  0.29300  0.34700  0.12800  1.0000
  Lu  Lu2       1.0  0.81800  0.35400  0.38800  1.0000
  Lu  Lu3       1.0  0.30900  0.85900  0.45100  1.0000
  Lu  Lu4       1.0  0.76300  0.99900  0.83700  1.0000
  O   O1        1.0  0.08660  0.53900  0.03520  1.0000
  O   O2        1.0  0.64200  0.38000  0.10700  1.0000
  O   O3        1.0  0.53000  0.72700  0.15700  1.0000
  O   O4        1.0  0.29100  0.00067  0.15900  1.0000
  O   O5        1.0  0.91800  0.11900  0.16500  1.0000
  O   O6        1.0  0.93100  0.72000  0.41100  1.0000
  O   O7        1.0  0.40300  0.23600  0.44900  1.0000
  O   O8        1.0  0.18800  0.49300  0.45400  1.0000
  O   O9        1.0  0.69600  0.98700  0.49800  1.0000
  O   O10       1.0  0.79000  0.32100  0.71700  1.0000
  O   O11       1.0  0.54700  0.56900  0.76000  1.0000
  O   O12       1.0  0.39700  0.90600  0.77000  1.0000
  O   O13       1.0  0.15000  0.20500  0.82000  1.0000
  O   O14       1.0  0.94300  0.79300  0.85700  1.0000
