data_image0
_chemical_formula_structural       Ca4Ge4Sr4
_chemical_formula_sum              "Ca4 Ge4 Sr4"
_cell_length_a       8.12722
_cell_length_b       4.949
_cell_length_c       9.19167
_cell_angle_alpha    90
_cell_angle_beta     90
_cell_angle_gamma    90

_space_group_name_H-M_alt    "P 1"
_space_group_IT_number       1

loop_
  _space_group_symop_operation_xyz
  'x, y, z'

loop_
  _atom_site_type_symbol
  _atom_site_label
  _atom_site_symmetry_multiplicity
  _atom_site_fract_x
  _atom_site_fract_y
  _atom_site_fract_z
  _atom_site_occupancy
  Ca  Ca1       1.0  0.14800  0.25000  0.07320  1.0000
  Ca  Ca2       1.0  0.64800  0.25000  0.42700  1.0000
  Ca  Ca3       1.0  0.35200  0.75000  0.57300  1.0000
  Ca  Ca4       1.0  0.85200  0.75000  0.92700  1.0000
  Ge  Ge1       1.0  0.76600  0.25000  0.10700  1.0000
  Ge  Ge2       1.0  0.26600  0.25000  0.39300  1.0000
  Ge  Ge3       1.0  0.73400  0.75000  0.60700  1.0000
  Ge  Ge4       1.0  0.23400  0.75000  0.89300  1.0000
  Sr  Sr1       1.0  0.47900  0.75000  0.17900  1.0000
  Sr  Sr2       1.0  0.97900  0.75000  0.32100  1.0000
  Sr  Sr3       1.0  0.02150  0.25000  0.67900  1.0000
  Sr  Sr4       1.0  0.52100  0.25000  0.82100  1.0000
