data_image0
_chemical_formula_structural       Li6O7Sm2
_chemical_formula_sum              "Li6 O7 Sm2"
_cell_length_a       5.61912
_cell_length_b       6.22157
_cell_length_c       5.6026
_cell_angle_alpha    85.5788
_cell_angle_beta     100.462
_cell_angle_gamma    111.13

_space_group_name_H-M_alt    "P 1"
_space_group_IT_number       1

loop_
  _space_group_symop_operation_xyz
  'x, y, z'

loop_
  _atom_site_type_symbol
  _atom_site_label
  _atom_site_symmetry_multiplicity
  _atom_site_fract_x
  _atom_site_fract_y
  _atom_site_fract_z
  _atom_site_occupancy
  Li  Li1       1.0  0.46400  0.39300  0.32300  1.0000
  Li  Li2       1.0  0.03610  0.23200  0.42700  1.0000
  Li  Li3       1.0  0.61400  0.12500  0.75500  1.0000
  Li  Li4       1.0  0.50700  0.64600  0.77500  1.0000
  Li  Li5       1.0  0.99300  0.97900  0.97500  1.0000
  Li  Li6       1.0  0.88600  0.50000  0.99500  1.0000
  O   O1        1.0  0.83100  0.19100  0.09020  1.0000
  O   O2        1.0  0.70700  0.65600  0.13700  1.0000
  O   O3        1.0  0.22900  0.06760  0.30600  1.0000
  O   O4        1.0  0.27100  0.55700  0.44400  1.0000
  O   O5        1.0  0.79300  0.96900  0.61300  1.0000
  O   O6        1.0  0.66900  0.43400  0.66000  1.0000
  O   O7        1.0  0.25000  0.81300  0.87500  1.0000
  Sm  Sm1       1.0  0.50900  0.89600  0.23400  1.0000
  Sm  Sm2       1.0  0.99100  0.72900  0.51600  1.0000
