data_image0
_chemical_formula_structural       Li6O7Tl2
_chemical_formula_sum              "Li6 O7 Tl2"
_cell_length_a       5.47781
_cell_length_b       6.01086
_cell_length_c       5.342
_cell_angle_alpha    89.49
_cell_angle_beta     100.223
_cell_angle_gamma    108.126

_space_group_name_H-M_alt    "P 1"
_space_group_IT_number       1

loop_
  _space_group_symop_operation_xyz
  'x, y, z'

loop_
  _atom_site_type_symbol
  _atom_site_label
  _atom_site_symmetry_multiplicity
  _atom_site_fract_x
  _atom_site_fract_y
  _atom_site_fract_z
  _atom_site_occupancy
  Li  Li1       1.0  0.97100  0.98200  0.00503  1.0000
  Li  Li2       1.0  0.52200  0.37600  0.29800  1.0000
  Li  Li3       1.0  0.97800  0.24900  0.45200  1.0000
  Li  Li4       1.0  0.52900  0.64300  0.74500  1.0000
  Li  Li5       1.0  0.54600  0.12400  0.75300  1.0000
  Li  Li6       1.0  0.95400  0.50100  0.99700  1.0000
  O   O1        1.0  0.73700  0.19600  0.11100  1.0000
  O   O2        1.0  0.73900  0.67100  0.11800  1.0000
  O   O3        1.0  0.26400  0.54700  0.37400  1.0000
  O   O4        1.0  0.23600  0.07790  0.37600  1.0000
  O   O5        1.0  0.76100  0.95400  0.63200  1.0000
  O   O6        1.0  0.76300  0.42900  0.63900  1.0000
  O   O7        1.0  0.25000  0.81200  0.87500  1.0000
  Tl  Tl1       1.0  0.49900  0.88200  0.24600  1.0000
  Tl  Tl2       1.0  0.00098  0.74300  0.50400  1.0000
