data_image0
_chemical_formula_structural       Er8O16Pd4
_chemical_formula_sum              "Er8 O16 Pd4"
_cell_length_a       5.52532
_cell_length_b       5.54748
_cell_length_c       11.7081
_cell_angle_alpha    90
_cell_angle_beta     90
_cell_angle_gamma    90

_space_group_name_H-M_alt    "P 1"
_space_group_IT_number       1

loop_
  _space_group_symop_operation_xyz
  'x, y, z'

loop_
  _atom_site_type_symbol
  _atom_site_label
  _atom_site_symmetry_multiplicity
  _atom_site_fract_x
  _atom_site_fract_y
  _atom_site_fract_z
  _atom_site_occupancy
  Er  Er1       1.0  0.49200  0.03670  0.16000  1.0000
  Er  Er2       1.0  0.00823  0.53700  0.16000  1.0000
  Er  Er3       1.0  0.99200  0.03670  0.34000  1.0000
  Er  Er4       1.0  0.50800  0.53700  0.34000  1.0000
  Er  Er5       1.0  0.49200  0.46300  0.66000  1.0000
  Er  Er6       1.0  0.00823  0.96300  0.66000  1.0000
  Er  Er7       1.0  0.99200  0.46300  0.84000  1.0000
  Er  Er8       1.0  0.50800  0.96300  0.84000  1.0000
  O   O1        1.0  0.17500  0.32400  0.00985  1.0000
  O   O2        1.0  0.32500  0.82400  0.00985  1.0000
  O   O3        1.0  0.75900  0.28800  0.24400  1.0000
  O   O4        1.0  0.74100  0.78800  0.24400  1.0000
  O   O5        1.0  0.25900  0.28800  0.25600  1.0000
  O   O6        1.0  0.24100  0.78800  0.25600  1.0000
  O   O7        1.0  0.67500  0.32400  0.49000  1.0000
  O   O8        1.0  0.82500  0.82400  0.49000  1.0000
  O   O9        1.0  0.17500  0.17600  0.51000  1.0000
  O   O10       1.0  0.32500  0.67600  0.51000  1.0000
  O   O11       1.0  0.75900  0.21200  0.74400  1.0000
  O   O12       1.0  0.74100  0.71200  0.74400  1.0000
  O   O13       1.0  0.25900  0.21200  0.75600  1.0000
  O   O14       1.0  0.24100  0.71200  0.75600  1.0000
  O   O15       1.0  0.67500  0.17600  0.99000  1.0000
  O   O16       1.0  0.82500  0.67600  0.99000  1.0000
  Pd  Pd1       1.0  0.00000  0.00000  0.00000  1.0000
  Pd  Pd2       1.0  0.50000  0.50000  0.00000  1.0000
  Pd  Pd3       1.0  0.50000  0.00000  0.50000  1.0000
  Pd  Pd4       1.0  0.00000  0.50000  0.50000  1.0000
