data_image0
_chemical_formula_structural       AlNNd2O3
_chemical_formula_sum              "Al1 N1 Nd2 O3"
_cell_length_a       3.70742
_cell_length_b       3.70742
_cell_length_c       6.78219
_cell_angle_alpha    105.862
_cell_angle_beta     105.862
_cell_angle_gamma    90

_space_group_name_H-M_alt    "P 1"
_space_group_IT_number       1

loop_
  _space_group_symop_operation_xyz
  'x, y, z'

loop_
  _atom_site_type_symbol
  _atom_site_label
  _atom_site_symmetry_multiplicity
  _atom_site_fract_x
  _atom_site_fract_y
  _atom_site_fract_z
  _atom_site_occupancy
  Al  Al1       1.0  0.01250  0.01250  0.02510  1.0000
  N   N1        1.0  0.17300  0.17300  0.34700  1.0000
  Nd  Nd1       1.0  0.65000  0.65000  0.30100  1.0000
  Nd  Nd2       1.0  0.36200  0.36200  0.72300  1.0000
  O   O1        1.0  0.50000  0.00000  0.00000  1.0000
  O   O2        1.0  0.00000  0.50000  0.00000  1.0000
  O   O3        1.0  0.84000  0.84000  0.67900  1.0000
