data_image0
_chemical_formula_structural       Pt4Si4Sr4
_chemical_formula_sum              "Pt4 Si4 Sr4"
_cell_length_a       6.54014
_cell_length_b       6.54014
_cell_length_c       6.54014
_cell_angle_alpha    90
_cell_angle_beta     90
_cell_angle_gamma    90

_space_group_name_H-M_alt    "P 1"
_space_group_IT_number       1

loop_
  _space_group_symop_operation_xyz
  'x, y, z'

loop_
  _atom_site_type_symbol
  _atom_site_label
  _atom_site_symmetry_multiplicity
  _atom_site_fract_x
  _atom_site_fract_y
  _atom_site_fract_z
  _atom_site_occupancy
  Pt  Pt1       1.0  0.58800  0.91200  0.08780  1.0000
  Pt  Pt2       1.0  0.41200  0.41200  0.41200  1.0000
  Pt  Pt3       1.0  0.91200  0.08780  0.58800  1.0000
  Pt  Pt4       1.0  0.08780  0.58800  0.91200  1.0000
  Si  Si1       1.0  0.33900  0.66100  0.16100  1.0000
  Si  Si2       1.0  0.66100  0.16100  0.33900  1.0000
  Si  Si3       1.0  0.16100  0.33900  0.66100  1.0000
  Si  Si4       1.0  0.83900  0.83900  0.83900  1.0000
  Sr  Sr1       1.0  0.13100  0.13100  0.13100  1.0000
  Sr  Sr2       1.0  0.86900  0.63100  0.36900  1.0000
  Sr  Sr3       1.0  0.36900  0.86900  0.63100  1.0000
  Sr  Sr4       1.0  0.63100  0.36900  0.86900  1.0000
