data_image0
_chemical_formula_structural       Li6Nd2O7
_chemical_formula_sum              "Li6 Nd2 O7"
_cell_length_a       5.72718
_cell_length_b       6.21614
_cell_length_c       5.68149
_cell_angle_alpha    83.33
_cell_angle_beta     101.055
_cell_angle_gamma    112.99

_space_group_name_H-M_alt    "P 1"
_space_group_IT_number       1

loop_
  _space_group_symop_operation_xyz
  'x, y, z'

loop_
  _atom_site_type_symbol
  _atom_site_label
  _atom_site_symmetry_multiplicity
  _atom_site_fract_x
  _atom_site_fract_y
  _atom_site_fract_z
  _atom_site_occupancy
  Li  Li1       1.0  0.45800  0.39600  0.33200  1.0000
  Li  Li2       1.0  0.04200  0.22900  0.41800  1.0000
  Li  Li3       1.0  0.62800  0.12300  0.75100  1.0000
  Li  Li4       1.0  0.50100  0.63700  0.78100  1.0000
  Li  Li5       1.0  0.99900  0.98700  0.96900  1.0000
  Li  Li6       1.0  0.87200  0.50300  0.99900  1.0000
  Nd  Nd1       1.0  0.51000  0.90200  0.23100  1.0000
  Nd  Nd2       1.0  0.99000  0.72300  0.51900  1.0000
  O   O1        1.0  0.84800  0.19400  0.07850  1.0000
  O   O2        1.0  0.70100  0.65100  0.14100  1.0000
  O   O3        1.0  0.22900  0.07070  0.29700  1.0000
  O   O4        1.0  0.27100  0.55400  0.45300  1.0000
  O   O5        1.0  0.79900  0.97400  0.60900  1.0000
  O   O6        1.0  0.65200  0.43100  0.67200  1.0000
  O   O7        1.0  0.25000  0.81200  0.87500  1.0000
