data_image0
_chemical_formula_structural       Li6O7Ti2
_chemical_formula_sum              "Li6 O7 Ti2"
_cell_length_a       5.02169
_cell_length_b       5.76224
_cell_length_c       5.05163
_cell_angle_alpha    88.8605
_cell_angle_beta     101.412
_cell_angle_gamma    106.402

_space_group_name_H-M_alt    "P 1"
_space_group_IT_number       1

loop_
  _space_group_symop_operation_xyz
  'x, y, z'

loop_
  _atom_site_type_symbol
  _atom_site_label
  _atom_site_symmetry_multiplicity
  _atom_site_fract_x
  _atom_site_fract_y
  _atom_site_fract_z
  _atom_site_occupancy
  Li  Li1       1.0  0.97200  0.97600  0.00433  1.0000
  Li  Li2       1.0  0.94900  0.49900  0.02050  1.0000
  Li  Li3       1.0  0.50600  0.38000  0.29500  1.0000
  Li  Li4       1.0  0.99400  0.24500  0.45500  1.0000
  Li  Li5       1.0  0.55100  0.12600  0.73000  1.0000
  Li  Li6       1.0  0.52800  0.64900  0.74600  1.0000
  O   O1        1.0  0.72300  0.17500  0.11300  1.0000
  O   O2        1.0  0.73200  0.68700  0.15000  1.0000
  O   O3        1.0  0.25600  0.04980  0.37100  1.0000
  O   O4        1.0  0.24400  0.57500  0.37900  1.0000
  O   O5        1.0  0.76800  0.93800  0.60000  1.0000
  O   O6        1.0  0.77700  0.45000  0.63700  1.0000
  O   O7        1.0  0.25000  0.81200  0.87500  1.0000
  Ti  Ti1       1.0  0.49900  0.89400  0.23100  1.0000
  Ti  Ti2       1.0  0.00056  0.73100  0.51900  1.0000
