data_image0
_chemical_formula_structural       Li6O7V2
_chemical_formula_sum              "Li6 O7 V2"
_cell_length_a       5.02765
_cell_length_b       5.699
_cell_length_c       5.0296
_cell_angle_alpha    87.9944
_cell_angle_beta     100.77
_cell_angle_gamma    108.283

_space_group_name_H-M_alt    "P 1"
_space_group_IT_number       1

loop_
  _space_group_symop_operation_xyz
  'x, y, z'

loop_
  _atom_site_type_symbol
  _atom_site_label
  _atom_site_symmetry_multiplicity
  _atom_site_fract_x
  _atom_site_fract_y
  _atom_site_fract_z
  _atom_site_occupancy
  Li  Li1       1.0  0.97900  0.97500  0.00090  1.0000
  Li  Li2       1.0  0.95700  0.50900  0.01760  1.0000
  Li  Li3       1.0  0.50500  0.37500  0.29500  1.0000
  Li  Li4       1.0  0.99500  0.25000  0.45500  1.0000
  Li  Li5       1.0  0.54300  0.11600  0.73200  1.0000
  Li  Li6       1.0  0.52100  0.65000  0.74900  1.0000
  O   O1        1.0  0.72000  0.17100  0.11700  1.0000
  O   O2        1.0  0.73000  0.68600  0.14800  1.0000
  O   O3        1.0  0.24700  0.04510  0.37300  1.0000
  O   O4        1.0  0.25300  0.58000  0.37700  1.0000
  O   O5        1.0  0.77000  0.93900  0.60200  1.0000
  O   O6        1.0  0.78000  0.45400  0.63300  1.0000
  O   O7        1.0  0.25000  0.81300  0.87500  1.0000
  V   V1        1.0  0.50100  0.88400  0.23500  1.0000
  V   V2        1.0  0.99900  0.74100  0.51500  1.0000
