data_image0
_chemical_formula_structural       Li6O7Yb2
_chemical_formula_sum              "Li6 O7 Yb2"
_cell_length_a       5.51344
_cell_length_b       5.42055
_cell_length_c       5.40543
_cell_angle_alpha    90.1744
_cell_angle_beta     97.0915
_cell_angle_gamma    104.641

_space_group_name_H-M_alt    "P 1"
_space_group_IT_number       1

loop_
  _space_group_symop_operation_xyz
  'x, y, z'

loop_
  _atom_site_type_symbol
  _atom_site_label
  _atom_site_symmetry_multiplicity
  _atom_site_fract_x
  _atom_site_fract_y
  _atom_site_fract_z
  _atom_site_occupancy
  Li  Li1       1.0  0.57700  0.39600  0.29900  1.0000
  Li  Li2       1.0  0.92300  0.22900  0.45100  1.0000
  Li  Li3       1.0  0.54700  0.64500  0.78200  1.0000
  Li  Li4       1.0  0.55500  0.12500  0.78700  1.0000
  Li  Li5       1.0  0.94500  0.50000  0.96300  1.0000
  Li  Li6       1.0  0.95300  0.98000  0.96800  1.0000
  O   O1        1.0  0.75100  0.19300  0.11600  1.0000
  O   O2        1.0  0.75200  0.68600  0.12700  1.0000
  O   O3        1.0  0.24700  0.17700  0.36200  1.0000
  O   O4        1.0  0.25300  0.44800  0.38800  1.0000
  O   O5        1.0  0.74800  0.93900  0.62300  1.0000
  O   O6        1.0  0.74900  0.43200  0.63400  1.0000
  O   O7        1.0  0.25000  0.81300  0.87500  1.0000
  Yb  Yb1       1.0  0.47900  0.87200  0.24900  1.0000
  Yb  Yb2       1.0  0.02140  0.75300  0.50100  1.0000
