data_image0
_chemical_formula_structural       Li6O7Pa2
_chemical_formula_sum              "Li6 O7 Pa2"
_cell_length_a       5.86434
_cell_length_b       6.21639
_cell_length_c       5.72502
_cell_angle_alpha    86.6355
_cell_angle_beta     99.5572
_cell_angle_gamma    112.218

_space_group_name_H-M_alt    "P 1"
_space_group_IT_number       1

loop_
  _space_group_symop_operation_xyz
  'x, y, z'

loop_
  _atom_site_type_symbol
  _atom_site_label
  _atom_site_symmetry_multiplicity
  _atom_site_fract_x
  _atom_site_fract_y
  _atom_site_fract_z
  _atom_site_occupancy
  Li  Li1       1.0  0.99500  0.98900  0.01350  1.0000
  Li  Li2       1.0  0.46700  0.38900  0.36700  1.0000
  Li  Li3       1.0  0.03260  0.23600  0.38400  1.0000
  Li  Li4       1.0  0.50500  0.63600  0.73600  1.0000
  Li  Li5       1.0  0.65600  0.14500  0.75100  1.0000
  Li  Li6       1.0  0.84400  0.48000  0.99900  1.0000
  O   O1        1.0  0.80800  0.17700  0.08320  1.0000
  O   O2        1.0  0.72000  0.66400  0.16000  1.0000
  O   O3        1.0  0.24600  0.06240  0.32900  1.0000
  O   O4        1.0  0.25400  0.56300  0.42100  1.0000
  O   O5        1.0  0.78000  0.96100  0.59000  1.0000
  O   O6        1.0  0.69200  0.44800  0.66700  1.0000
  O   O7        1.0  0.25000  0.81300  0.87500  1.0000
  Pa  Pa1       1.0  0.50400  0.89300  0.22300  1.0000
  Pa  Pa2       1.0  0.99600  0.73200  0.52700  1.0000
