data_image0
_chemical_formula_structural       Li6O7Pr2
_chemical_formula_sum              "Li6 O7 Pr2"
_cell_length_a       5.78457
_cell_length_b       6.22977
_cell_length_c       5.70271
_cell_angle_alpha    83.559
_cell_angle_beta     101.003
_cell_angle_gamma    113.034

_space_group_name_H-M_alt    "P 1"
_space_group_IT_number       1

loop_
  _space_group_symop_operation_xyz
  'x, y, z'

loop_
  _atom_site_type_symbol
  _atom_site_label
  _atom_site_symmetry_multiplicity
  _atom_site_fract_x
  _atom_site_fract_y
  _atom_site_fract_z
  _atom_site_occupancy
  Li  Li1       1.0  0.45600  0.39600  0.33300  1.0000
  Li  Li2       1.0  0.04370  0.22900  0.41700  1.0000
  Li  Li3       1.0  0.63600  0.12600  0.75300  1.0000
  Li  Li4       1.0  0.50100  0.63600  0.78000  1.0000
  Li  Li5       1.0  0.99900  0.98900  0.97000  1.0000
  Li  Li6       1.0  0.86400  0.49900  0.99700  1.0000
  O   O1        1.0  0.84900  0.19500  0.07910  1.0000
  O   O2        1.0  0.69700  0.64900  0.14000  1.0000
  O   O3        1.0  0.22800  0.07120  0.29500  1.0000
  O   O4        1.0  0.27200  0.55400  0.45500  1.0000
  O   O5        1.0  0.80300  0.97600  0.61000  1.0000
  O   O6        1.0  0.65100  0.43000  0.67100  1.0000
  O   O7        1.0  0.25000  0.81300  0.87500  1.0000
  Pr  Pr1       1.0  0.51100  0.90400  0.23200  1.0000
  Pr  Pr2       1.0  0.98900  0.72100  0.51800  1.0000
