data_image0
_chemical_formula_structural       Ce2Li6O7
_chemical_formula_sum              "Ce2 Li6 O7"
_cell_length_a       5.85552
_cell_length_b       6.24357
_cell_length_c       5.74139
_cell_angle_alpha    83.6787
_cell_angle_beta     101.194
_cell_angle_gamma    112.986

_space_group_name_H-M_alt    "P 1"
_space_group_IT_number       1

loop_
  _space_group_symop_operation_xyz
  'x, y, z'

loop_
  _atom_site_type_symbol
  _atom_site_label
  _atom_site_symmetry_multiplicity
  _atom_site_fract_x
  _atom_site_fract_y
  _atom_site_fract_z
  _atom_site_occupancy
  Ce  Ce1       1.0  0.51100  0.90600  0.23300  1.0000
  Ce  Ce2       1.0  0.98900  0.71900  0.51700  1.0000
  Li  Li1       1.0  0.45500  0.39500  0.33900  1.0000
  Li  Li2       1.0  0.04530  0.23000  0.41100  1.0000
  Li  Li3       1.0  0.64600  0.12900  0.75400  1.0000
  Li  Li4       1.0  0.49000  0.62300  0.78700  1.0000
  Li  Li5       1.0  0.01030  0.00212  0.96300  1.0000
  Li  Li6       1.0  0.85400  0.49600  0.99600  1.0000
  O   O1        1.0  0.85000  0.19500  0.07750  1.0000
  O   O2        1.0  0.68700  0.63900  0.14200  1.0000
  O   O3        1.0  0.22600  0.07170  0.29100  1.0000
  O   O4        1.0  0.27400  0.55300  0.45900  1.0000
  O   O5        1.0  0.81300  0.98600  0.60800  1.0000
  O   O6        1.0  0.65000  0.42900  0.67300  1.0000
  O   O7        1.0  0.25000  0.81300  0.87500  1.0000
