data_image0
_chemical_formula_structural       Li6O7Zn2
_chemical_formula_sum              "Li6 O7 Zn2"
_cell_length_a       5.00947
_cell_length_b       5.70063
_cell_length_c       5.06346
_cell_angle_alpha    88.8075
_cell_angle_beta     100.285
_cell_angle_gamma    106.784

_space_group_name_H-M_alt    "P 1"
_space_group_IT_number       1

loop_
  _space_group_symop_operation_xyz
  'x, y, z'

loop_
  _atom_site_type_symbol
  _atom_site_label
  _atom_site_symmetry_multiplicity
  _atom_site_fract_x
  _atom_site_fract_y
  _atom_site_fract_z
  _atom_site_occupancy
  Li  Li1       1.0  0.97700  0.98000  0.00572  1.0000
  Li  Li2       1.0  0.97600  0.51500  0.01290  1.0000
  Li  Li3       1.0  0.51800  0.37600  0.29500  1.0000
  Li  Li4       1.0  0.98200  0.24900  0.45500  1.0000
  Li  Li5       1.0  0.52400  0.11000  0.73700  1.0000
  Li  Li6       1.0  0.52300  0.64500  0.74400  1.0000
  O   O1        1.0  0.72000  0.18600  0.10300  1.0000
  O   O2        1.0  0.72100  0.68000  0.13900  1.0000
  O   O3        1.0  0.25400  0.05540  0.37300  1.0000
  O   O4        1.0  0.24600  0.57000  0.37700  1.0000
  O   O5        1.0  0.77900  0.94500  0.61100  1.0000
  O   O6        1.0  0.78000  0.43900  0.64700  1.0000
  O   O7        1.0  0.25000  0.81300  0.87500  1.0000
  Zn  Zn1       1.0  0.49600  0.88000  0.24100  1.0000
  Zn  Zn2       1.0  0.00405  0.74500  0.50900  1.0000
