data_image0
_chemical_formula_structural       Li6O7Te2
_chemical_formula_sum              "Li6 O7 Te2"
_cell_length_a       5.45369
_cell_length_b       6.30544
_cell_length_c       5.38297
_cell_angle_alpha    83.6682
_cell_angle_beta     103.061
_cell_angle_gamma    108.18

_space_group_name_H-M_alt    "P 1"
_space_group_IT_number       1

loop_
  _space_group_symop_operation_xyz
  'x, y, z'

loop_
  _atom_site_type_symbol
  _atom_site_label
  _atom_site_symmetry_multiplicity
  _atom_site_fract_x
  _atom_site_fract_y
  _atom_site_fract_z
  _atom_site_occupancy
  Li  Li1       1.0  0.89800  0.46500  0.02670  1.0000
  Li  Li2       1.0  0.46900  0.44300  0.33400  1.0000
  Li  Li3       1.0  0.03070  0.18200  0.41600  1.0000
  Li  Li4       1.0  0.60200  0.16000  0.72300  1.0000
  Li  Li5       1.0  0.52300  0.65500  0.78700  1.0000
  Li  Li6       1.0  0.97700  0.97000  0.96300  1.0000
  O   O1        1.0  0.76300  0.13900  0.08380  1.0000
  O   O2        1.0  0.73900  0.64800  0.15700  1.0000
  O   O3        1.0  0.31400  0.14000  0.26200  1.0000
  O   O4        1.0  0.18600  0.48500  0.48800  1.0000
  O   O5        1.0  0.76100  0.97700  0.59300  1.0000
  O   O6        1.0  0.73700  0.48600  0.66600  1.0000
  O   O7        1.0  0.25000  0.81300  0.87500  1.0000
  Te  Te1       1.0  0.49900  0.92800  0.24000  1.0000
  Te  Te2       1.0  0.00136  0.69700  0.51000  1.0000
