data_image0
_chemical_formula_structural       Li6O7Sr2
_chemical_formula_sum              "Li6 O7 Sr2"
_cell_length_a       5.9424
_cell_length_b       5.8361
_cell_length_c       5.48008
_cell_angle_alpha    92.1951
_cell_angle_beta     94.8057
_cell_angle_gamma    109.55

_space_group_name_H-M_alt    "P 1"
_space_group_IT_number       1

loop_
  _space_group_symop_operation_xyz
  'x, y, z'

loop_
  _atom_site_type_symbol
  _atom_site_label
  _atom_site_symmetry_multiplicity
  _atom_site_fract_x
  _atom_site_fract_y
  _atom_site_fract_z
  _atom_site_occupancy
  Li  Li1       1.0  0.58100  0.39000  0.28500  1.0000
  Li  Li2       1.0  0.91900  0.23500  0.46400  1.0000
  Li  Li3       1.0  0.56000  0.63200  0.77100  1.0000
  Li  Li4       1.0  0.58100  0.12300  0.80400  1.0000
  Li  Li5       1.0  0.91900  0.50200  0.94700  1.0000
  Li  Li6       1.0  0.93900  0.99300  0.97900  1.0000
  O   O1        1.0  0.73900  0.67800  0.10700  1.0000
  O   O2        1.0  0.77500  0.21300  0.12400  1.0000
  O   O3        1.0  0.23900  0.19400  0.33000  1.0000
  O   O4        1.0  0.26100  0.43100  0.42000  1.0000
  O   O5        1.0  0.72500  0.41100  0.62600  1.0000
  O   O6        1.0  0.76100  0.94700  0.64300  1.0000
  O   O7        1.0  0.25000  0.81300  0.87500  1.0000
  Sr  Sr1       1.0  0.48600  0.86700  0.25600  1.0000
  Sr  Sr2       1.0  0.01420  0.75800  0.49300  1.0000
