data_image0
_chemical_formula_structural       Cs2Li6O7
_chemical_formula_sum              "Cs2 Li6 O7"
_cell_length_a       7.01541
_cell_length_b       6.62064
_cell_length_c       5.31568
_cell_angle_alpha    95.5746
_cell_angle_beta     95.4505
_cell_angle_gamma    124.919

_space_group_name_H-M_alt    "P 1"
_space_group_IT_number       1

loop_
  _space_group_symop_operation_xyz
  'x, y, z'

loop_
  _atom_site_type_symbol
  _atom_site_label
  _atom_site_symmetry_multiplicity
  _atom_site_fract_x
  _atom_site_fract_y
  _atom_site_fract_z
  _atom_site_occupancy
  Cs  Cs1       1.0  0.44400  0.77800  0.24300  1.0000
  Cs  Cs2       1.0  0.05570  0.84700  0.50700  1.0000
  Li  Li1       1.0  0.91200  0.04160  0.02700  1.0000
  Li  Li2       1.0  0.60000  0.36200  0.24100  1.0000
  Li  Li3       1.0  0.90000  0.26300  0.50900  1.0000
  Li  Li4       1.0  0.58800  0.58300  0.72300  1.0000
  Li  Li5       1.0  0.58500  0.09010  0.81200  1.0000
  Li  Li6       1.0  0.91500  0.53500  0.93800  1.0000
  O   O1        1.0  0.76100  0.67700  0.07640  1.0000
  O   O2        1.0  0.81700  0.26800  0.14200  1.0000
  O   O3        1.0  0.24600  0.25500  0.25800  1.0000
  O   O4        1.0  0.25400  0.37000  0.49200  1.0000
  O   O5        1.0  0.68300  0.35700  0.60800  1.0000
  O   O6        1.0  0.73900  0.94800  0.67400  1.0000
  O   O7        1.0  0.25000  0.81200  0.87500  1.0000
