data_image0
_chemical_formula_structural       Ca4Sn4Sr4
_chemical_formula_sum              "Ca4 Sn4 Sr4"
_cell_length_a       8.40395
_cell_length_b       5.17096
_cell_length_c       9.65452
_cell_angle_alpha    90
_cell_angle_beta     90
_cell_angle_gamma    90

_space_group_name_H-M_alt    "P 1"
_space_group_IT_number       1

loop_
  _space_group_symop_operation_xyz
  'x, y, z'

loop_
  _atom_site_type_symbol
  _atom_site_label
  _atom_site_symmetry_multiplicity
  _atom_site_fract_x
  _atom_site_fract_y
  _atom_site_fract_z
  _atom_site_occupancy
  Ca  Ca1       1.0  0.15000  0.25000  0.07010  1.0000
  Ca  Ca2       1.0  0.65000  0.25000  0.43000  1.0000
  Ca  Ca3       1.0  0.35000  0.75000  0.57000  1.0000
  Ca  Ca4       1.0  0.85000  0.75000  0.93000  1.0000
  Sn  Sn1       1.0  0.76300  0.25000  0.11000  1.0000
  Sn  Sn2       1.0  0.26300  0.25000  0.39000  1.0000
  Sn  Sn3       1.0  0.73700  0.75000  0.61000  1.0000
  Sn  Sn4       1.0  0.23700  0.75000  0.89000  1.0000
  Sr  Sr1       1.0  0.47800  0.75000  0.18300  1.0000
  Sr  Sr2       1.0  0.97800  0.75000  0.31700  1.0000
  Sr  Sr3       1.0  0.02150  0.25000  0.68300  1.0000
  Sr  Sr4       1.0  0.52200  0.25000  0.81700  1.0000
