data_image0
_chemical_formula_structural       Ca4Pb4Sr4
_chemical_formula_sum              "Ca4 Pb4 Sr4"
_cell_length_a       8.51578
_cell_length_b       5.20858
_cell_length_c       9.75127
_cell_angle_alpha    90
_cell_angle_beta     90
_cell_angle_gamma    90

_space_group_name_H-M_alt    "P 1"
_space_group_IT_number       1

loop_
  _space_group_symop_operation_xyz
  'x, y, z'

loop_
  _atom_site_type_symbol
  _atom_site_label
  _atom_site_symmetry_multiplicity
  _atom_site_fract_x
  _atom_site_fract_y
  _atom_site_fract_z
  _atom_site_occupancy
  Ca  Ca1       1.0  0.14900  0.25000  0.06950  1.0000
  Ca  Ca2       1.0  0.64900  0.25000  0.43000  1.0000
  Ca  Ca3       1.0  0.35100  0.75000  0.57000  1.0000
  Ca  Ca4       1.0  0.85100  0.75000  0.93000  1.0000
  Pb  Pb1       1.0  0.76200  0.25000  0.11200  1.0000
  Pb  Pb2       1.0  0.26200  0.25000  0.38800  1.0000
  Pb  Pb3       1.0  0.73800  0.75000  0.61200  1.0000
  Pb  Pb4       1.0  0.23800  0.75000  0.88800  1.0000
  Sr  Sr1       1.0  0.47800  0.75000  0.18100  1.0000
  Sr  Sr2       1.0  0.97800  0.75000  0.31900  1.0000
  Sr  Sr3       1.0  0.02190  0.25000  0.68100  1.0000
  Sr  Sr4       1.0  0.52200  0.25000  0.81900  1.0000
