data_image0
_chemical_formula_structural       Co2N2Nb2O2
_chemical_formula_sum              "Co2 N2 Nb2 O2"
_cell_length_a       3.13996
_cell_length_b       5.34916
_cell_length_c       5.52485
_cell_angle_alpha    90
_cell_angle_beta     90
_cell_angle_gamma    90

_space_group_name_H-M_alt    "P 1"
_space_group_IT_number       1

loop_
  _space_group_symop_operation_xyz
  'x, y, z'

loop_
  _atom_site_type_symbol
  _atom_site_label
  _atom_site_symmetry_multiplicity
  _atom_site_fract_x
  _atom_site_fract_y
  _atom_site_fract_z
  _atom_site_occupancy
  Co  Co1       1.0  0.00000  0.56500  0.30200  1.0000
  Co  Co2       1.0  0.00000  0.06490  0.69800  1.0000
  N   N1        1.0  0.00000  0.91300  0.37400  1.0000
  N   N2        1.0  0.00000  0.41300  0.62600  1.0000
  Nb  Nb1       1.0  0.50000  0.94600  0.15000  1.0000
  Nb  Nb2       1.0  0.50000  0.44600  0.85000  1.0000
  O   O1        1.0  0.50000  0.32900  0.19800  1.0000
  O   O2        1.0  0.50000  0.82900  0.80200  1.0000
