data_image0
_chemical_formula_structural       Bi4Li4Sr4
_chemical_formula_sum              "Bi4 Li4 Sr4"
_cell_length_a       8.17518
_cell_length_b       4.92084
_cell_length_c       8.57435
_cell_angle_alpha    90
_cell_angle_beta     90
_cell_angle_gamma    90

_space_group_name_H-M_alt    "P 1"
_space_group_IT_number       1

loop_
  _space_group_symop_operation_xyz
  'x, y, z'

loop_
  _atom_site_type_symbol
  _atom_site_label
  _atom_site_symmetry_multiplicity
  _atom_site_fract_x
  _atom_site_fract_y
  _atom_site_fract_z
  _atom_site_occupancy
  Bi  Bi1       1.0  0.27800  0.25000  0.08960  1.0000
  Bi  Bi2       1.0  0.77800  0.25000  0.41000  1.0000
  Bi  Bi3       1.0  0.22200  0.75000  0.59000  1.0000
  Bi  Bi4       1.0  0.72200  0.75000  0.91000  1.0000
  Li  Li1       1.0  0.67100  0.25000  0.08180  1.0000
  Li  Li2       1.0  0.17100  0.25000  0.41800  1.0000
  Li  Li3       1.0  0.82900  0.75000  0.58200  1.0000
  Li  Li4       1.0  0.32900  0.75000  0.91800  1.0000
  Sr  Sr1       1.0  0.99600  0.75000  0.21200  1.0000
  Sr  Sr2       1.0  0.49600  0.75000  0.28800  1.0000
  Sr  Sr3       1.0  0.50400  0.25000  0.71200  1.0000
  Sr  Sr4       1.0  0.00352  0.25000  0.78800  1.0000
