data_image0
_chemical_formula_structural       Li6O7Y2
_chemical_formula_sum              "Li6 O7 Y2"
_cell_length_a       5.58279
_cell_length_b       6.1475
_cell_length_c       5.49124
_cell_angle_alpha    82.2494
_cell_angle_beta     101.122
_cell_angle_gamma    112.318

_space_group_name_H-M_alt    "P 1"
_space_group_IT_number       1

loop_
  _space_group_symop_operation_xyz
  'x, y, z'

loop_
  _atom_site_type_symbol
  _atom_site_label
  _atom_site_symmetry_multiplicity
  _atom_site_fract_x
  _atom_site_fract_y
  _atom_site_fract_z
  _atom_site_occupancy
  Li  Li1       1.0  0.92400  0.52000  0.02430  1.0000
  Li  Li2       1.0  0.46700  0.39800  0.33800  1.0000
  Li  Li3       1.0  0.03290  0.22700  0.41200  1.0000
  Li  Li4       1.0  0.57600  0.10500  0.72600  1.0000
  Li  Li5       1.0  0.51000  0.64000  0.77900  1.0000
  Li  Li6       1.0  0.99000  0.98500  0.97100  1.0000
  O   O1        1.0  0.82000  0.19100  0.05720  1.0000
  O   O2        1.0  0.71900  0.66600  0.15100  1.0000
  O   O3        1.0  0.25500  0.06860  0.32900  1.0000
  O   O4        1.0  0.24600  0.55700  0.42100  1.0000
  O   O5        1.0  0.78000  0.95900  0.59900  1.0000
  O   O6        1.0  0.68100  0.43400  0.69300  1.0000
  O   O7        1.0  0.25000  0.81300  0.87500  1.0000
  Y   Y1        1.0  0.50400  0.89400  0.22900  1.0000
  Y   Y2        1.0  0.99600  0.73100  0.52100  1.0000
