data_image0
_chemical_formula_structural       Li6O7W2
_chemical_formula_sum              "Li6 O7 W2"
_cell_length_a       4.95508
_cell_length_b       5.88589
_cell_length_c       5.19302
_cell_angle_alpha    86.3468
_cell_angle_beta     104.264
_cell_angle_gamma    107.235

_space_group_name_H-M_alt    "P 1"
_space_group_IT_number       1

loop_
  _space_group_symop_operation_xyz
  'x, y, z'

loop_
  _atom_site_type_symbol
  _atom_site_label
  _atom_site_symmetry_multiplicity
  _atom_site_fract_x
  _atom_site_fract_y
  _atom_site_fract_z
  _atom_site_occupancy
  Li  Li1       1.0  0.99000  0.98100  0.00422  1.0000
  Li  Li2       1.0  0.95700  0.49300  0.00986  1.0000
  Li  Li3       1.0  0.49900  0.36000  0.28700  1.0000
  Li  Li4       1.0  0.00142  0.26500  0.46300  1.0000
  Li  Li5       1.0  0.54300  0.13200  0.74000  1.0000
  Li  Li6       1.0  0.51000  0.64400  0.74600  1.0000
  O   O1        1.0  0.71900  0.66000  0.11000  1.0000
  O   O2        1.0  0.72900  0.17400  0.12100  1.0000
  O   O3        1.0  0.25500  0.04610  0.36400  1.0000
  O   O4        1.0  0.24500  0.57900  0.38600  1.0000
  O   O5        1.0  0.77100  0.45100  0.62900  1.0000
  O   O6        1.0  0.78100  0.96500  0.64000  1.0000
  O   O7        1.0  0.25000  0.81200  0.87500  1.0000
  W   W1        1.0  0.53200  0.87000  0.25400  1.0000
  W   W2        1.0  0.96800  0.75500  0.49600  1.0000
