data_image0
_chemical_formula_structural       Li6Np2O7
_chemical_formula_sum              "Li6 Np2 O7"
_cell_length_a       5.73907
_cell_length_b       6.18075
_cell_length_c       5.58354
_cell_angle_alpha    86.8465
_cell_angle_beta     99.8068
_cell_angle_gamma    111.993

_space_group_name_H-M_alt    "P 1"
_space_group_IT_number       1

loop_
  _space_group_symop_operation_xyz
  'x, y, z'

loop_
  _atom_site_type_symbol
  _atom_site_label
  _atom_site_symmetry_multiplicity
  _atom_site_fract_x
  _atom_site_fract_y
  _atom_site_fract_z
  _atom_site_occupancy
  Li  Li1       1.0  0.98700  0.98800  0.00321  1.0000
  Li  Li2       1.0  0.47100  0.39000  0.35100  1.0000
  Li  Li3       1.0  0.02920  0.23500  0.39900  1.0000
  Li  Li4       1.0  0.51300  0.63700  0.74700  1.0000
  Li  Li5       1.0  0.63200  0.13900  0.75100  1.0000
  Li  Li6       1.0  0.86800  0.48600  0.99900  1.0000
  Np  Np1       1.0  0.50400  0.89000  0.22800  1.0000
  Np  Np2       1.0  0.99600  0.73500  0.52200  1.0000
  O   O1        1.0  0.79800  0.17600  0.09050  1.0000
  O   O2        1.0  0.71700  0.66600  0.14800  1.0000
  O   O3        1.0  0.24600  0.06210  0.33400  1.0000
  O   O4        1.0  0.25400  0.56300  0.41600  1.0000
  O   O5        1.0  0.78300  0.95900  0.60200  1.0000
  O   O6        1.0  0.70200  0.44900  0.66000  1.0000
  O   O7        1.0  0.25000  0.81200  0.87500  1.0000
