data_image0
_chemical_formula_structural       K8S32Sn8
_chemical_formula_sum              "K8 S32 Sn8"
_cell_length_a       9.69909
_cell_length_b       10.1043
_cell_length_c       14.3126
_cell_angle_alpha    89.9999
_cell_angle_beta     107.985
_cell_angle_gamma    90.0002

_space_group_name_H-M_alt    "P 1"
_space_group_IT_number       1

loop_
  _space_group_symop_operation_xyz
  'x, y, z'

loop_
  _atom_site_type_symbol
  _atom_site_label
  _atom_site_symmetry_multiplicity
  _atom_site_fract_x
  _atom_site_fract_y
  _atom_site_fract_z
  _atom_site_occupancy
  K   K1        1.0  0.46800  0.77400  0.09370  1.0000
  K   K2        1.0  0.34700  0.36300  0.20300  1.0000
  K   K3        1.0  0.15300  0.86300  0.29700  1.0000
  K   K4        1.0  0.03220  0.27400  0.40600  1.0000
  K   K5        1.0  0.96800  0.72600  0.59400  1.0000
  K   K6        1.0  0.84700  0.13700  0.70300  1.0000
  K   K7        1.0  0.65300  0.63700  0.79700  1.0000
  K   K8        1.0  0.53200  0.22600  0.90600  1.0000
  S   S1        1.0  0.77900  0.72500  0.03590  1.0000
  S   S2        1.0  0.14300  0.60200  0.07730  1.0000
  S   S3        1.0  0.16800  0.95900  0.08660  1.0000
  S   S4        1.0  0.64300  0.44200  0.09610  1.0000
  S   S5        1.0  0.01410  0.27100  0.16700  1.0000
  S   S6        1.0  0.68900  0.14300  0.19400  1.0000
  S   S7        1.0  0.50800  0.06550  0.21800  1.0000
  S   S8        1.0  0.68800  0.34400  0.22800  1.0000
  S   S9        1.0  0.81200  0.84400  0.27200  1.0000
  S   S10       1.0  0.99200  0.56600  0.28200  1.0000
  S   S11       1.0  0.81100  0.64300  0.30600  1.0000
  S   S12       1.0  0.48600  0.77100  0.33300  1.0000
  S   S13       1.0  0.85700  0.94200  0.40400  1.0000
  S   S14       1.0  0.33200  0.45900  0.41300  1.0000
  S   S15       1.0  0.35700  0.10200  0.42300  1.0000
  S   S16       1.0  0.72100  0.22500  0.46400  1.0000
  S   S17       1.0  0.27900  0.77500  0.53600  1.0000
  S   S18       1.0  0.64300  0.89800  0.57700  1.0000
  S   S19       1.0  0.66800  0.54100  0.58700  1.0000
  S   S20       1.0  0.14300  0.05830  0.59600  1.0000
  S   S21       1.0  0.51400  0.22900  0.66700  1.0000
  S   S22       1.0  0.18900  0.35700  0.69400  1.0000
  S   S23       1.0  0.00779  0.43400  0.71800  1.0000
  S   S24       1.0  0.18800  0.15600  0.72800  1.0000
  S   S25       1.0  0.31200  0.65600  0.77200  1.0000
  S   S26       1.0  0.49200  0.93400  0.78200  1.0000
  S   S27       1.0  0.31100  0.85700  0.80600  1.0000
  S   S28       1.0  0.98600  0.72900  0.83300  1.0000
  S   S29       1.0  0.35700  0.55800  0.90400  1.0000
  S   S30       1.0  0.83200  0.04110  0.91300  1.0000
  S   S31       1.0  0.85700  0.39800  0.92300  1.0000
  S   S32       1.0  0.22100  0.27500  0.96400  1.0000
  Sn  Sn1       1.0  0.03030  0.17300  0.01650  1.0000
  Sn  Sn2       1.0  0.90600  0.50000  0.09510  1.0000
  Sn  Sn3       1.0  0.59400  0.00000  0.40500  1.0000
  Sn  Sn4       1.0  0.47000  0.67300  0.48400  1.0000
  Sn  Sn5       1.0  0.53000  0.32700  0.51600  1.0000
  Sn  Sn6       1.0  0.40600  0.00000  0.59500  1.0000
  Sn  Sn7       1.0  0.09410  0.50000  0.90500  1.0000
  Sn  Sn8       1.0  0.97000  0.82700  0.98400  1.0000
