data_image0
_chemical_formula_structural       Li6O7Rb2
_chemical_formula_sum              "Li6 O7 Rb2"
_cell_length_a       6.25727
_cell_length_b       5.73246
_cell_length_c       6.00005
_cell_angle_alpha    91.5569
_cell_angle_beta     95.8029
_cell_angle_gamma    122.398

_space_group_name_H-M_alt    "P 1"
_space_group_IT_number       1

loop_
  _space_group_symop_operation_xyz
  'x, y, z'

loop_
  _atom_site_type_symbol
  _atom_site_label
  _atom_site_symmetry_multiplicity
  _atom_site_fract_x
  _atom_site_fract_y
  _atom_site_fract_z
  _atom_site_occupancy
  Li  Li1       1.0  0.43700  0.34700  0.18200  1.0000
  Li  Li2       1.0  0.06340  0.27800  0.56800  1.0000
  Li  Li3       1.0  0.49600  0.72800  0.78900  1.0000
  Li  Li4       1.0  0.50400  0.18500  0.81000  1.0000
  Li  Li5       1.0  0.99600  0.44000  0.94000  1.0000
  Li  Li6       1.0  0.00399  0.89700  0.96100  1.0000
  O   O1        1.0  0.72500  0.39000  0.09370  1.0000
  O   O2        1.0  0.13500  0.24900  0.27800  1.0000
  O   O3        1.0  0.36500  0.37600  0.47200  1.0000
  O   O4        1.0  0.77500  0.23500  0.65600  1.0000
  O   O5        1.0  0.84100  0.04120  0.76200  1.0000
  O   O6        1.0  0.25000  0.81300  0.87500  1.0000
  O   O7        1.0  0.65900  0.58400  0.98800  1.0000
  Rb  Rb1       1.0  0.53600  0.89900  0.27600  1.0000
  Rb  Rb2       1.0  0.96400  0.72600  0.47400  1.0000
