data_image0
_chemical_formula_structural       Li6O7U2
_chemical_formula_sum              "Li6 O7 U2"
_cell_length_a       5.751
_cell_length_b       6.21044
_cell_length_c       5.6188
_cell_angle_alpha    87.1803
_cell_angle_beta     99.4872
_cell_angle_gamma    111.336

_space_group_name_H-M_alt    "P 1"
_space_group_IT_number       1

loop_
  _space_group_symop_operation_xyz
  'x, y, z'

loop_
  _atom_site_type_symbol
  _atom_site_label
  _atom_site_symmetry_multiplicity
  _atom_site_fract_x
  _atom_site_fract_y
  _atom_site_fract_z
  _atom_site_occupancy
  Li  Li1       1.0  0.98700  0.98800  0.00247  1.0000
  Li  Li2       1.0  0.47000  0.38900  0.35600  1.0000
  Li  Li3       1.0  0.02960  0.23600  0.39400  1.0000
  Li  Li4       1.0  0.51300  0.63700  0.74800  1.0000
  Li  Li5       1.0  0.64100  0.14200  0.75300  1.0000
  Li  Li6       1.0  0.85900  0.48300  0.99700  1.0000
  O   O1        1.0  0.79700  0.17800  0.09170  1.0000
  O   O2        1.0  0.71800  0.66900  0.14500  1.0000
  O   O3        1.0  0.24600  0.06480  0.33000  1.0000
  O   O4        1.0  0.25400  0.56000  0.42000  1.0000
  O   O5        1.0  0.78200  0.95600  0.60500  1.0000
  O   O6        1.0  0.70300  0.44700  0.65800  1.0000
  O   O7        1.0  0.25000  0.81200  0.87500  1.0000
  U   U1        1.0  0.50300  0.89100  0.22800  1.0000
  U   U2        1.0  0.99700  0.73400  0.52200  1.0000
