data_image0
_chemical_formula_structural       K24S28Sn8
_chemical_formula_sum              "K24 S28 Sn8"
_cell_length_a       9.79534
_cell_length_b       13.1923
_cell_length_c       14.518
_cell_angle_alpha    90
_cell_angle_beta     90
_cell_angle_gamma    90

_space_group_name_H-M_alt    "P 1"
_space_group_IT_number       1

loop_
  _space_group_symop_operation_xyz
  'x, y, z'

loop_
  _atom_site_type_symbol
  _atom_site_label
  _atom_site_symmetry_multiplicity
  _atom_site_fract_x
  _atom_site_fract_y
  _atom_site_fract_z
  _atom_site_occupancy
  K   K1        1.0  0.22200  0.63900  0.06490  1.0000
  K   K2        1.0  0.86000  0.43000  0.08480  1.0000
  K   K3        1.0  0.44000  0.31700  0.11600  1.0000
  K   K4        1.0  0.74400  0.10900  0.12800  1.0000
  K   K5        1.0  0.65200  0.65300  0.14100  1.0000
  K   K6        1.0  0.97300  0.83900  0.18900  1.0000
  K   K7        1.0  0.02680  0.33900  0.31100  1.0000
  K   K8        1.0  0.34800  0.15300  0.35900  1.0000
  K   K9        1.0  0.25600  0.60900  0.37200  1.0000
  K   K10       1.0  0.56000  0.81700  0.38400  1.0000
  K   K11       1.0  0.14000  0.93000  0.41500  1.0000
  K   K12       1.0  0.77800  0.13900  0.43500  1.0000
  K   K13       1.0  0.27800  0.36100  0.56500  1.0000
  K   K14       1.0  0.64000  0.57000  0.58500  1.0000
  K   K15       1.0  0.06020  0.68300  0.61600  1.0000
  K   K16       1.0  0.75600  0.89100  0.62800  1.0000
  K   K17       1.0  0.84800  0.34700  0.64100  1.0000
  K   K18       1.0  0.52700  0.16100  0.68900  1.0000
  K   K19       1.0  0.47300  0.66100  0.81100  1.0000
  K   K20       1.0  0.15200  0.84700  0.85900  1.0000
  K   K21       1.0  0.24400  0.39100  0.87200  1.0000
  K   K22       1.0  0.94000  0.18300  0.88400  1.0000
  K   K23       1.0  0.36000  0.06980  0.91500  1.0000
  K   K24       1.0  0.72200  0.86100  0.93500  1.0000
  S   S1        1.0  0.01840  0.99500  0.00841  1.0000
  S   S2        1.0  0.90900  0.67700  0.00987  1.0000
  S   S3        1.0  0.11900  0.28000  0.06050  1.0000
  S   S4        1.0  0.37300  0.07670  0.14000  1.0000
  S   S5        1.0  0.66000  0.89200  0.18600  1.0000
  S   S6        1.0  0.97900  0.58800  0.23400  1.0000
  S   S7        1.0  0.28500  0.80100  0.24900  1.0000
  S   S8        1.0  0.71500  0.30100  0.25100  1.0000
  S   S9        1.0  0.02070  0.08750  0.26600  1.0000
  S   S10       1.0  0.34000  0.39200  0.31400  1.0000
  S   S11       1.0  0.62700  0.57700  0.36000  1.0000
  S   S12       1.0  0.88100  0.78000  0.44000  1.0000
  S   S13       1.0  0.09070  0.17700  0.49000  1.0000
  S   S14       1.0  0.98200  0.49500  0.49200  1.0000
  S   S15       1.0  0.48200  0.00491  0.50800  1.0000
  S   S16       1.0  0.59100  0.32300  0.51000  1.0000
  S   S17       1.0  0.38100  0.72000  0.56000  1.0000
  S   S18       1.0  0.12700  0.92300  0.64000  1.0000
  S   S19       1.0  0.84000  0.10800  0.68600  1.0000
  S   S20       1.0  0.52100  0.41200  0.73400  1.0000
  S   S21       1.0  0.21500  0.19900  0.74900  1.0000
  S   S22       1.0  0.78500  0.69900  0.75100  1.0000
  S   S23       1.0  0.47900  0.91200  0.76600  1.0000
  S   S24       1.0  0.16000  0.60800  0.81400  1.0000
  S   S25       1.0  0.87300  0.42300  0.86000  1.0000
  S   S26       1.0  0.61900  0.22000  0.94000  1.0000
  S   S27       1.0  0.40900  0.82300  0.99000  1.0000
  S   S28       1.0  0.51800  0.50500  0.99200  1.0000
  Sn  Sn1       1.0  0.12100  0.10900  0.11800  1.0000
  Sn  Sn2       1.0  0.42500  0.89100  0.14200  1.0000
  Sn  Sn3       1.0  0.57500  0.39100  0.35800  1.0000
  Sn  Sn4       1.0  0.87900  0.60900  0.38200  1.0000
  Sn  Sn5       1.0  0.37900  0.89100  0.61800  1.0000
  Sn  Sn6       1.0  0.07490  0.10900  0.64200  1.0000
  Sn  Sn7       1.0  0.92500  0.60900  0.85800  1.0000
  Sn  Sn8       1.0  0.62100  0.39100  0.88200  1.0000
