data_image0
_chemical_formula_structural       Bi4NiO7
_chemical_formula_sum              "Bi4 Ni1 O7"
_cell_length_a       6.90137
_cell_length_b       6.90137
_cell_length_c       9.21978
_cell_angle_alpha    48.7935
_cell_angle_beta     48.7935
_cell_angle_gamma    33.1398

_space_group_name_H-M_alt    "P 1"
_space_group_IT_number       1

loop_
  _space_group_symop_operation_xyz
  'x, y, z'

loop_
  _atom_site_type_symbol
  _atom_site_label
  _atom_site_symmetry_multiplicity
  _atom_site_fract_x
  _atom_site_fract_y
  _atom_site_fract_z
  _atom_site_occupancy
  Bi  Bi1       1.0  0.25300  0.25300  0.15300  1.0000
  Bi  Bi2       1.0  0.41900  0.41900  0.38600  1.0000
  Bi  Bi3       1.0  0.58100  0.58100  0.61400  1.0000
  Bi  Bi4       1.0  0.74700  0.74700  0.84700  1.0000
  Ni  Ni1       1.0  0.00000  0.00000  0.00000  1.0000
  O   O1        1.0  0.50000  0.50000  0.00000  1.0000
  O   O2        1.0  0.08850  0.08850  0.10700  1.0000
  O   O3        1.0  0.63100  0.63100  0.31900  1.0000
  O   O4        1.0  0.20300  0.20300  0.44300  1.0000
  O   O5        1.0  0.79700  0.79700  0.55700  1.0000
  O   O6        1.0  0.36900  0.36900  0.68100  1.0000
  O   O7        1.0  0.91100  0.91100  0.89300  1.0000
