data_image0
_chemical_formula_structural       Li6O7Tm2
_chemical_formula_sum              "Li6 O7 Tm2"
_cell_length_a       5.50499
_cell_length_b       6.09449
_cell_length_c       5.40225
_cell_angle_alpha    82.6229
_cell_angle_beta     101.152
_cell_angle_gamma    111.613

_space_group_name_H-M_alt    "P 1"
_space_group_IT_number       1

loop_
  _space_group_symop_operation_xyz
  'x, y, z'

loop_
  _atom_site_type_symbol
  _atom_site_label
  _atom_site_symmetry_multiplicity
  _atom_site_fract_x
  _atom_site_fract_y
  _atom_site_fract_z
  _atom_site_occupancy
  Li  Li1       1.0  0.93700  0.52100  0.02980  1.0000
  Li  Li2       1.0  0.47200  0.39700  0.33600  1.0000
  Li  Li3       1.0  0.02800  0.22800  0.41400  1.0000
  Li  Li4       1.0  0.56300  0.10400  0.72000  1.0000
  Li  Li5       1.0  0.51400  0.64200  0.77600  1.0000
  Li  Li6       1.0  0.98600  0.98300  0.97400  1.0000
  O   O1        1.0  0.80500  0.18800  0.05890  1.0000
  O   O2        1.0  0.72300  0.67000  0.15200  1.0000
  O   O3        1.0  0.26000  0.06650  0.34000  1.0000
  O   O4        1.0  0.24000  0.55900  0.41000  1.0000
  O   O5        1.0  0.77700  0.95500  0.59800  1.0000
  O   O6        1.0  0.69500  0.43700  0.69100  1.0000
  O   O7        1.0  0.25000  0.81300  0.87500  1.0000
  Tm  Tm1       1.0  0.50200  0.89000  0.23000  1.0000
  Tm  Tm2       1.0  0.99800  0.73500  0.52000  1.0000
