data_image0
_chemical_formula_structural       Ca2Li6O7
_chemical_formula_sum              "Ca2 Li6 O7"
_cell_length_a       5.71206
_cell_length_b       5.92541
_cell_length_c       4.99316
_cell_angle_alpha    102.405
_cell_angle_beta     80.9538
_cell_angle_gamma    111.533

_space_group_name_H-M_alt    "P 1"
_space_group_IT_number       1

loop_
  _space_group_symop_operation_xyz
  'x, y, z'

loop_
  _atom_site_type_symbol
  _atom_site_label
  _atom_site_symmetry_multiplicity
  _atom_site_fract_x
  _atom_site_fract_y
  _atom_site_fract_z
  _atom_site_occupancy
  Ca  Ca1       1.0  0.97500  0.71100  0.37100  1.0000
  Ca  Ca2       1.0  0.52500  0.91400  0.37900  1.0000
  Li  Li1       1.0  0.46900  0.40500  0.29000  1.0000
  Li  Li2       1.0  0.03060  0.22000  0.46000  1.0000
  Li  Li3       1.0  0.52600  0.66000  0.79000  1.0000
  Li  Li4       1.0  0.93200  0.50800  0.83400  1.0000
  Li  Li5       1.0  0.56800  0.11700  0.91600  1.0000
  Li  Li6       1.0  0.97400  0.96500  0.96000  1.0000
  O   O1        1.0  0.69100  0.65300  0.08090  1.0000
  O   O2        1.0  0.25500  0.06450  0.20300  1.0000
  O   O3        1.0  0.80700  0.26900  0.23100  1.0000
  O   O4        1.0  0.69300  0.35600  0.51900  1.0000
  O   O5        1.0  0.24500  0.56000  0.54700  1.0000
  O   O6        1.0  0.80900  0.97200  0.66900  1.0000
  O   O7        1.0  0.25000  0.81300  0.87500  1.0000
