data_image0
_chemical_formula_structural       MgSe17U8
_chemical_formula_sum              "Mg1 Se17 U8"
_cell_length_a       8.2408
_cell_length_b       8.2408
_cell_length_c       10.9755
_cell_angle_alpha    100.058
_cell_angle_beta     100.058
_cell_angle_gamma    64.1608

_space_group_name_H-M_alt    "P 1"
_space_group_IT_number       1

loop_
  _space_group_symop_operation_xyz
  'x, y, z'

loop_
  _atom_site_type_symbol
  _atom_site_label
  _atom_site_symmetry_multiplicity
  _atom_site_fract_x
  _atom_site_fract_y
  _atom_site_fract_z
  _atom_site_occupancy
  Mg  Mg1       1.0  0.00000  0.00000  0.00000  1.0000
  Se  Se1       1.0  0.67100  0.05590  0.03620  1.0000
  Se  Se2       1.0  0.05590  0.67100  0.03620  1.0000
  Se  Se3       1.0  0.52100  0.52100  0.17100  1.0000
  Se  Se4       1.0  0.06000  0.06000  0.23400  1.0000
  Se  Se5       1.0  0.30000  0.30000  0.24800  1.0000
  Se  Se6       1.0  0.78600  0.78600  0.27700  1.0000
  Se  Se7       1.0  0.81900  0.43500  0.46500  1.0000
  Se  Se8       1.0  0.43500  0.81900  0.46500  1.0000
  Se  Se9       1.0  0.00000  0.00000  0.50000  1.0000
  Se  Se10      1.0  0.56500  0.18100  0.53500  1.0000
  Se  Se11      1.0  0.18100  0.56500  0.53500  1.0000
  Se  Se12      1.0  0.21400  0.21400  0.72300  1.0000
  Se  Se13      1.0  0.70000  0.70000  0.75200  1.0000
  Se  Se14      1.0  0.94000  0.94000  0.76600  1.0000
  Se  Se15      1.0  0.47900  0.47900  0.82900  1.0000
  Se  Se16      1.0  0.94400  0.32900  0.96400  1.0000
  Se  Se17      1.0  0.32900  0.94400  0.96400  1.0000
  U   U1        1.0  0.68100  0.68100  0.01240  1.0000
  U   U2        1.0  0.69700  0.18200  0.30100  1.0000
  U   U3        1.0  0.18200  0.69700  0.30100  1.0000
  U   U4        1.0  0.20100  0.20100  0.46000  1.0000
  U   U5        1.0  0.79900  0.79900  0.54000  1.0000
  U   U6        1.0  0.81800  0.30300  0.69900  1.0000
  U   U7        1.0  0.30300  0.81800  0.69900  1.0000
  U   U8        1.0  0.31900  0.31900  0.98800  1.0000
