data_image0
_chemical_formula_structural       Li6O7Th2
_chemical_formula_sum              "Li6 O7 Th2"
_cell_length_a       5.88194
_cell_length_b       6.04851
_cell_length_c       6.00904
_cell_angle_alpha    87.5442
_cell_angle_beta     96.2648
_cell_angle_gamma    111.897

_space_group_name_H-M_alt    "P 1"
_space_group_IT_number       1

loop_
  _space_group_symop_operation_xyz
  'x, y, z'

loop_
  _atom_site_type_symbol
  _atom_site_label
  _atom_site_symmetry_multiplicity
  _atom_site_fract_x
  _atom_site_fract_y
  _atom_site_fract_z
  _atom_site_occupancy
  Li  Li1       1.0  0.80200  0.46000  0.00972  1.0000
  Li  Li2       1.0  0.06730  0.01330  0.02960  1.0000
  Li  Li3       1.0  0.02930  0.24500  0.33800  1.0000
  Li  Li4       1.0  0.47100  0.38000  0.41200  1.0000
  Li  Li5       1.0  0.43200  0.61100  0.72100  1.0000
  Li  Li6       1.0  0.69800  0.16500  0.74000  1.0000
  O   O1        1.0  0.83300  0.15700  0.04390  1.0000
  O   O2        1.0  0.71300  0.61400  0.22400  1.0000
  O   O3        1.0  0.25400  0.06150  0.32200  1.0000
  O   O4        1.0  0.24600  0.56400  0.42800  1.0000
  O   O5        1.0  0.78700  0.01110  0.52600  1.0000
  O   O6        1.0  0.66700  0.46800  0.70600  1.0000
  O   O7        1.0  0.25000  0.81200  0.87500  1.0000
  Th  Th1       1.0  0.51000  0.88000  0.20500  1.0000
  Th  Th2       1.0  0.99000  0.74500  0.54500  1.0000
