data_image0
_chemical_formula_structural       Na4S6Sn2
_chemical_formula_sum              "Na4 S6 Sn2"
_cell_length_a       5.90238
_cell_length_b       7.02484
_cell_length_c       7.94776
_cell_angle_alpha    82.4222
_cell_angle_beta     84.6711
_cell_angle_gamma    67.3326

_space_group_name_H-M_alt    "P 1"
_space_group_IT_number       1

loop_
  _space_group_symop_operation_xyz
  'x, y, z'

loop_
  _atom_site_type_symbol
  _atom_site_label
  _atom_site_symmetry_multiplicity
  _atom_site_fract_x
  _atom_site_fract_y
  _atom_site_fract_z
  _atom_site_occupancy
  Na  Na1       1.0  0.08130  0.45200  0.24100  1.0000
  Na  Na2       1.0  0.37400  0.78800  0.41800  1.0000
  Na  Na3       1.0  0.62600  0.21200  0.58200  1.0000
  Na  Na4       1.0  0.91900  0.54800  0.75900  1.0000
  S   S1        1.0  0.23000  0.05570  0.09150  1.0000
  S   S2        1.0  0.58700  0.41200  0.23700  1.0000
  S   S3        1.0  0.85200  0.80800  0.41300  1.0000
  S   S4        1.0  0.14800  0.19200  0.58700  1.0000
  S   S5        1.0  0.41300  0.58800  0.76300  1.0000
  S   S6        1.0  0.77000  0.94400  0.90800  1.0000
  Sn  Sn1       1.0  0.80900  0.06620  0.18000  1.0000
  Sn  Sn2       1.0  0.19100  0.93400  0.82000  1.0000
