data_image0
_chemical_formula_structural       Ge2O3Pd
_chemical_formula_sum              "Ge2 O3 Pd1"
_cell_length_a       6.37085
_cell_length_b       6.37085
_cell_length_c       6.37085
_cell_angle_alpha    149.351
_cell_angle_beta     142.867
_cell_angle_gamma    48.8876

_space_group_name_H-M_alt    "P 1"
_space_group_IT_number       1

loop_
  _space_group_symop_operation_xyz
  'x, y, z'

loop_
  _atom_site_type_symbol
  _atom_site_label
  _atom_site_symmetry_multiplicity
  _atom_site_fract_x
  _atom_site_fract_y
  _atom_site_fract_z
  _atom_site_occupancy
  Ge  Ge1       1.0  0.34500  0.34500  0.00000  1.0000
  Ge  Ge2       1.0  0.65500  0.65500  1.00000  1.0000
  O   O1        1.0  0.17800  0.17800  0.00000  1.0000
  O   O2        1.0  0.82200  0.82200  1.00000  1.0000
  O   O3        1.0  0.50000  0.00000  0.50000  1.0000
  Pd  Pd1       1.0  0.00000  0.00000  0.00000  1.0000
