data_image0
_chemical_formula_structural       Ac2Li6O7
_chemical_formula_sum              "Ac2 Li6 O7"
_cell_length_a       5.89333
_cell_length_b       5.34941
_cell_length_c       6.13532
_cell_angle_alpha    94.8243
_cell_angle_beta     85.3545
_cell_angle_gamma    114.126

_space_group_name_H-M_alt    "P 1"
_space_group_IT_number       1

loop_
  _space_group_symop_operation_xyz
  'x, y, z'

loop_
  _atom_site_type_symbol
  _atom_site_label
  _atom_site_symmetry_multiplicity
  _atom_site_fract_x
  _atom_site_fract_y
  _atom_site_fract_z
  _atom_site_occupancy
  Ac  Ac1       1.0  0.50700  0.70500  0.13800  1.0000
  Ac  Ac2       1.0  0.99300  0.92000  0.61200  1.0000
  Li  Li1       1.0  0.08160  0.95800  0.09580  1.0000
  Li  Li2       1.0  0.90400  0.28900  0.27800  1.0000
  Li  Li3       1.0  0.59600  0.33600  0.47200  1.0000
  Li  Li4       1.0  0.41800  0.66700  0.65400  1.0000
  Li  Li5       1.0  0.57600  0.13300  0.79900  1.0000
  Li  Li6       1.0  0.92400  0.49200  0.95100  1.0000
  O   O1        1.0  0.85900  0.62100  0.26300  1.0000
  O   O2        1.0  0.30000  0.22100  0.30300  1.0000
  O   O3        1.0  0.20000  0.40400  0.44700  1.0000
  O   O4        1.0  0.64100  0.00390  0.48700  1.0000
  O   O5        1.0  0.64100  0.51600  0.77300  1.0000
  O   O6        1.0  0.25000  0.81300  0.87500  1.0000
  O   O7        1.0  0.85900  0.10900  0.97700  1.0000
