data_image0
_chemical_formula_structural       Na20S32Sn8
_chemical_formula_sum              "Na20 S32 Sn8"
_cell_length_a       18.4033
_cell_length_b       13.1516
_cell_length_c       6.17371
_cell_angle_alpha    90
_cell_angle_beta     90.094
_cell_angle_gamma    90

_space_group_name_H-M_alt    "P 1"
_space_group_IT_number       1

loop_
  _space_group_symop_operation_xyz
  'x, y, z'

loop_
  _atom_site_type_symbol
  _atom_site_label
  _atom_site_symmetry_multiplicity
  _atom_site_fract_x
  _atom_site_fract_y
  _atom_site_fract_z
  _atom_site_occupancy
  Na  Na1       1.0  0.74900  0.33200  0.00086  1.0000
  Na  Na2       1.0  0.68300  0.94300  0.19500  1.0000
  Na  Na3       1.0  0.56700  0.64800  0.20900  1.0000
  Na  Na4       1.0  0.06840  0.35100  0.23800  1.0000
  Na  Na5       1.0  0.82100  0.55500  0.24400  1.0000
  Na  Na6       1.0  0.17900  0.05470  0.25600  1.0000
  Na  Na7       1.0  0.93200  0.85100  0.26200  1.0000
  Na  Na8       1.0  0.43300  0.14800  0.29100  1.0000
  Na  Na9       1.0  0.31700  0.44300  0.30500  1.0000
  Na  Na10      1.0  0.25100  0.83200  0.49900  1.0000
  Na  Na11      1.0  0.74900  0.16800  0.50100  1.0000
  Na  Na12      1.0  0.68300  0.55700  0.69500  1.0000
  Na  Na13      1.0  0.56700  0.85200  0.70900  1.0000
  Na  Na14      1.0  0.06840  0.14900  0.73800  1.0000
  Na  Na15      1.0  0.82100  0.94500  0.74400  1.0000
  Na  Na16      1.0  0.17900  0.44500  0.75600  1.0000
  Na  Na17      1.0  0.93200  0.64900  0.76200  1.0000
  Na  Na18      1.0  0.43300  0.35200  0.79100  1.0000
  Na  Na19      1.0  0.31700  0.05750  0.80500  1.0000
  Na  Na20      1.0  0.25100  0.66800  0.99900  1.0000
  S   S1        1.0  0.19700  0.24800  0.03200  1.0000
  S   S2        1.0  0.30500  0.25400  0.03690  1.0000
  S   S3        1.0  0.13500  0.81900  0.19100  1.0000
  S   S4        1.0  0.63600  0.18200  0.19300  1.0000
  S   S5        1.0  0.16800  0.51300  0.21400  1.0000
  S   S6        1.0  0.53500  0.86100  0.21500  1.0000
  S   S7        1.0  0.03560  0.13900  0.21500  1.0000
  S   S8        1.0  0.66800  0.48700  0.21600  1.0000
  S   S9        1.0  0.33200  0.98700  0.28400  1.0000
  S   S10       1.0  0.96400  0.63900  0.28500  1.0000
  S   S11       1.0  0.46500  0.36100  0.28500  1.0000
  S   S12       1.0  0.83200  0.01350  0.28600  1.0000
  S   S13       1.0  0.36400  0.68200  0.30700  1.0000
  S   S14       1.0  0.86500  0.31900  0.30900  1.0000
  S   S15       1.0  0.69500  0.75400  0.46300  1.0000
  S   S16       1.0  0.80300  0.74800  0.46800  1.0000
  S   S17       1.0  0.19700  0.25200  0.53200  1.0000
  S   S18       1.0  0.30500  0.24600  0.53700  1.0000
  S   S19       1.0  0.13500  0.68100  0.69100  1.0000
  S   S20       1.0  0.63600  0.31800  0.69300  1.0000
  S   S21       1.0  0.16800  0.98700  0.71400  1.0000
  S   S22       1.0  0.53500  0.63900  0.71500  1.0000
  S   S23       1.0  0.03560  0.36100  0.71500  1.0000
  S   S24       1.0  0.66800  0.01270  0.71600  1.0000
  S   S25       1.0  0.33200  0.51300  0.78400  1.0000
  S   S26       1.0  0.96400  0.86100  0.78500  1.0000
  S   S27       1.0  0.46500  0.13900  0.78500  1.0000
  S   S28       1.0  0.83200  0.48700  0.78600  1.0000
  S   S29       1.0  0.36400  0.81800  0.80700  1.0000
  S   S30       1.0  0.86500  0.18100  0.80900  1.0000
  S   S31       1.0  0.69500  0.74600  0.96300  1.0000
  S   S32       1.0  0.80300  0.75200  0.96800  1.0000
  Sn  Sn1       1.0  0.40900  0.85100  0.18100  1.0000
  Sn  Sn2       1.0  0.90900  0.15000  0.18300  1.0000
  Sn  Sn3       1.0  0.09090  0.65000  0.31700  1.0000
  Sn  Sn4       1.0  0.59100  0.35100  0.31900  1.0000
  Sn  Sn5       1.0  0.40900  0.64900  0.68100  1.0000
  Sn  Sn6       1.0  0.90900  0.35000  0.68300  1.0000
  Sn  Sn7       1.0  0.09090  0.85000  0.81700  1.0000
  Sn  Sn8       1.0  0.59100  0.14900  0.81900  1.0000
