data_image0
_chemical_formula_structural       Eu8O16Pd4
_chemical_formula_sum              "Eu8 O16 Pd4"
_cell_length_a       5.51549
_cell_length_b       5.56059
_cell_length_c       12.7729
_cell_angle_alpha    90
_cell_angle_beta     90
_cell_angle_gamma    90

_space_group_name_H-M_alt    "P 1"
_space_group_IT_number       1

loop_
  _space_group_symop_operation_xyz
  'x, y, z'

loop_
  _atom_site_type_symbol
  _atom_site_label
  _atom_site_symmetry_multiplicity
  _atom_site_fract_x
  _atom_site_fract_y
  _atom_site_fract_z
  _atom_site_occupancy
  Eu  Eu1       1.0  0.49100  0.03440  0.14800  1.0000
  Eu  Eu2       1.0  0.00905  0.53400  0.14800  1.0000
  Eu  Eu3       1.0  0.99100  0.03440  0.35200  1.0000
  Eu  Eu4       1.0  0.50900  0.53400  0.35200  1.0000
  Eu  Eu5       1.0  0.49100  0.46600  0.64800  1.0000
  Eu  Eu6       1.0  0.00905  0.96600  0.64800  1.0000
  Eu  Eu7       1.0  0.99100  0.46600  0.85200  1.0000
  Eu  Eu8       1.0  0.50900  0.96600  0.85200  1.0000
  O   O1        1.0  0.20300  0.29600  0.01060  1.0000
  O   O2        1.0  0.29700  0.79600  0.01060  1.0000
  O   O3        1.0  0.75200  0.28500  0.24500  1.0000
  O   O4        1.0  0.74800  0.78500  0.24500  1.0000
  O   O5        1.0  0.25200  0.28500  0.25500  1.0000
  O   O6        1.0  0.24800  0.78500  0.25500  1.0000
  O   O7        1.0  0.70300  0.29600  0.48900  1.0000
  O   O8        1.0  0.79700  0.79600  0.48900  1.0000
  O   O9        1.0  0.20300  0.20400  0.51100  1.0000
  O   O10       1.0  0.29700  0.70400  0.51100  1.0000
  O   O11       1.0  0.75200  0.21500  0.74500  1.0000
  O   O12       1.0  0.74800  0.71500  0.74500  1.0000
  O   O13       1.0  0.25200  0.21500  0.75500  1.0000
  O   O14       1.0  0.24800  0.71500  0.75500  1.0000
  O   O15       1.0  0.70300  0.20400  0.98900  1.0000
  O   O16       1.0  0.79700  0.70400  0.98900  1.0000
  Pd  Pd1       1.0  0.00000  0.00000  0.00000  1.0000
  Pd  Pd2       1.0  0.50000  0.50000  0.00000  1.0000
  Pd  Pd3       1.0  0.50000  0.00000  0.50000  1.0000
  Pd  Pd4       1.0  0.00000  0.50000  0.50000  1.0000
