data_image0
_chemical_formula_structural       Li2Mg8O24V6
_chemical_formula_sum              "Li2 Mg8 O24 V6"
_cell_length_a       6.85834
_cell_length_b       6.85834
_cell_length_c       10.5413
_cell_angle_alpha    108.984
_cell_angle_beta     108.984
_cell_angle_gamma    90

_space_group_name_H-M_alt    "P 1"
_space_group_IT_number       1

loop_
  _space_group_symop_operation_xyz
  'x, y, z'

loop_
  _atom_site_type_symbol
  _atom_site_label
  _atom_site_symmetry_multiplicity
  _atom_site_fract_x
  _atom_site_fract_y
  _atom_site_fract_z
  _atom_site_occupancy
  Li  Li1       1.0  0.50000  0.50000  0.00000  1.0000
  Li  Li2       1.0  0.75000  0.25000  0.50000  1.0000
  Mg  Mg1       1.0  0.02470  0.52500  0.04940  1.0000
  Mg  Mg2       1.0  0.36900  0.37500  0.25000  1.0000
  Mg  Mg3       1.0  0.88100  0.87500  0.25000  1.0000
  Mg  Mg4       1.0  0.22500  0.22500  0.45100  1.0000
  Mg  Mg5       1.0  0.77500  0.77500  0.54900  1.0000
  Mg  Mg6       1.0  0.62500  0.11900  0.75000  1.0000
  Mg  Mg7       1.0  0.12500  0.63100  0.75000  1.0000
  Mg  Mg8       1.0  0.47500  0.97500  0.95100  1.0000
  O   O1        1.0  0.09810  0.25800  0.09180  1.0000
  O   O2        1.0  0.99400  0.83300  0.09180  1.0000
  O   O3        1.0  0.54200  0.26800  0.10900  1.0000
  O   O4        1.0  0.56700  0.84200  0.10900  1.0000
  O   O5        1.0  0.87400  0.56300  0.20300  1.0000
  O   O6        1.0  0.32900  0.64000  0.20300  1.0000
  O   O7        1.0  0.37600  0.11000  0.29700  1.0000
  O   O8        1.0  0.92100  0.18700  0.29700  1.0000
  O   O9        1.0  0.68300  0.48200  0.39100  1.0000
  O   O10       1.0  0.70800  0.90800  0.39100  1.0000
  O   O11       1.0  0.25600  0.49200  0.40800  1.0000
  O   O12       1.0  0.15200  0.91700  0.40800  1.0000
  O   O13       1.0  0.08340  0.74400  0.59200  1.0000
  O   O14       1.0  0.50800  0.84800  0.59200  1.0000
  O   O15       1.0  0.51800  0.29200  0.60900  1.0000
  O   O16       1.0  0.09170  0.31700  0.60900  1.0000
  O   O17       1.0  0.89000  0.07890  0.70300  1.0000
  O   O18       1.0  0.81300  0.62400  0.70300  1.0000
  O   O19       1.0  0.36000  0.12600  0.79700  1.0000
  O   O20       1.0  0.43700  0.67100  0.79700  1.0000
  O   O21       1.0  0.73200  0.43300  0.89100  1.0000
  O   O22       1.0  0.15800  0.45800  0.89100  1.0000
  O   O23       1.0  0.74200  0.00623  0.90800  1.0000
  O   O24       1.0  0.16700  0.90200  0.90800  1.0000
  V   V1        1.0  0.00000  0.00000  0.00000  1.0000
  V   V2        1.0  0.77600  0.37500  0.25000  1.0000
  V   V3        1.0  0.47400  0.87500  0.25000  1.0000
  V   V4        1.0  0.25000  0.75000  0.50000  1.0000
  V   V5        1.0  0.12500  0.22400  0.75000  1.0000
  V   V6        1.0  0.62500  0.52600  0.75000  1.0000
