data_image0
_chemical_formula_structural       K20S32Sn8
_chemical_formula_sum              "K20 S32 Sn8"
_cell_length_a       19.7811
_cell_length_b       13.7912
_cell_length_c       6.50851
_cell_angle_alpha    90
_cell_angle_beta     90.83
_cell_angle_gamma    90

_space_group_name_H-M_alt    "P 1"
_space_group_IT_number       1

loop_
  _space_group_symop_operation_xyz
  'x, y, z'

loop_
  _atom_site_type_symbol
  _atom_site_label
  _atom_site_symmetry_multiplicity
  _atom_site_fract_x
  _atom_site_fract_y
  _atom_site_fract_z
  _atom_site_occupancy
  K   K1        1.0  0.25000  0.70100  0.00229  1.0000
  K   K2        1.0  0.68100  0.95100  0.22000  1.0000
  K   K3        1.0  0.55800  0.63500  0.22300  1.0000
  K   K4        1.0  0.05860  0.36400  0.23100  1.0000
  K   K5        1.0  0.18100  0.04870  0.24200  1.0000
  K   K6        1.0  0.81900  0.54900  0.25800  1.0000
  K   K7        1.0  0.94100  0.86400  0.26900  1.0000
  K   K8        1.0  0.44200  0.13500  0.27700  1.0000
  K   K9        1.0  0.31900  0.45100  0.28000  1.0000
  K   K10       1.0  0.75000  0.20100  0.49800  1.0000
  K   K11       1.0  0.25000  0.79900  0.50200  1.0000
  K   K12       1.0  0.68100  0.54900  0.72000  1.0000
  K   K13       1.0  0.55800  0.86500  0.72300  1.0000
  K   K14       1.0  0.05860  0.13600  0.73100  1.0000
  K   K15       1.0  0.18100  0.45100  0.74200  1.0000
  K   K16       1.0  0.81900  0.95100  0.75800  1.0000
  K   K17       1.0  0.94100  0.63600  0.76900  1.0000
  K   K18       1.0  0.44200  0.36500  0.77700  1.0000
  K   K19       1.0  0.31900  0.04900  0.78000  1.0000
  K   K20       1.0  0.75000  0.29900  0.99800  1.0000
  S   S1        1.0  0.20100  0.25400  0.01440  1.0000
  S   S2        1.0  0.30100  0.25400  0.01950  1.0000
  S   S3        1.0  0.61800  0.18000  0.19400  1.0000
  S   S4        1.0  0.11700  0.82000  0.19800  1.0000
  S   S5        1.0  0.52900  0.87200  0.22500  1.0000
  S   S6        1.0  0.02920  0.12700  0.22800  1.0000
  S   S7        1.0  0.66800  0.46100  0.22900  1.0000
  S   S8        1.0  0.16800  0.53900  0.23800  1.0000
  S   S9        1.0  0.83200  0.03880  0.26200  1.0000
  S   S10       1.0  0.33200  0.96100  0.27100  1.0000
  S   S11       1.0  0.97100  0.62700  0.27200  1.0000
  S   S12       1.0  0.47100  0.37200  0.27500  1.0000
  S   S13       1.0  0.88300  0.32000  0.30200  1.0000
  S   S14       1.0  0.38200  0.68000  0.30600  1.0000
  S   S15       1.0  0.69900  0.75400  0.48000  1.0000
  S   S16       1.0  0.79900  0.75400  0.48600  1.0000
  S   S17       1.0  0.20100  0.24600  0.51400  1.0000
  S   S18       1.0  0.30100  0.24600  0.52000  1.0000
  S   S19       1.0  0.61800  0.32000  0.69400  1.0000
  S   S20       1.0  0.11700  0.68000  0.69800  1.0000
  S   S21       1.0  0.52900  0.62800  0.72500  1.0000
  S   S22       1.0  0.02920  0.37300  0.72800  1.0000
  S   S23       1.0  0.66800  0.03880  0.72900  1.0000
  S   S24       1.0  0.16800  0.96100  0.73800  1.0000
  S   S25       1.0  0.83200  0.46100  0.76200  1.0000
  S   S26       1.0  0.33200  0.53900  0.77100  1.0000
  S   S27       1.0  0.97100  0.87300  0.77200  1.0000
  S   S28       1.0  0.47100  0.12800  0.77500  1.0000
  S   S29       1.0  0.88300  0.18000  0.80200  1.0000
  S   S30       1.0  0.38200  0.82000  0.80600  1.0000
  S   S31       1.0  0.69900  0.74600  0.98000  1.0000
  S   S32       1.0  0.79900  0.74600  0.98600  1.0000
  Sn  Sn1       1.0  0.91400  0.15600  0.17500  1.0000
  Sn  Sn2       1.0  0.41400  0.84400  0.17800  1.0000
  Sn  Sn3       1.0  0.58600  0.34400  0.32200  1.0000
  Sn  Sn4       1.0  0.08600  0.65600  0.32500  1.0000
  Sn  Sn5       1.0  0.91400  0.34400  0.67500  1.0000
  Sn  Sn6       1.0  0.41400  0.65600  0.67800  1.0000
  Sn  Sn7       1.0  0.58600  0.15600  0.82200  1.0000
  Sn  Sn8       1.0  0.08600  0.84400  0.82500  1.0000
