data_image0
_chemical_formula_structural       La2O2S2Tl2
_chemical_formula_sum              "La2 O2 S2 Tl2"
_cell_length_a       4.76724
_cell_length_b       7.89708
_cell_length_c       6.6245
_cell_angle_alpha    90
_cell_angle_beta     90
_cell_angle_gamma    90

_space_group_name_H-M_alt    "P 1"
_space_group_IT_number       1

loop_
  _space_group_symop_operation_xyz
  'x, y, z'

loop_
  _atom_site_type_symbol
  _atom_site_label
  _atom_site_symmetry_multiplicity
  _atom_site_fract_x
  _atom_site_fract_y
  _atom_site_fract_z
  _atom_site_occupancy
  La  La1       1.0  0.50000  0.85200  0.03290  1.0000
  La  La2       1.0  0.50000  0.14800  0.53300  1.0000
  O   O1        1.0  0.50000  0.08760  0.20700  1.0000
  O   O2        1.0  0.50000  0.91200  0.70700  1.0000
  S   S1        1.0  0.00000  0.68300  0.15200  1.0000
  S   S2        1.0  0.00000  0.31700  0.65200  1.0000
  Tl  Tl1       1.0  0.00000  0.30600  0.09920  1.0000
  Tl  Tl2       1.0  0.00000  0.69400  0.59900  1.0000
