data_image0
_chemical_formula_structural       Na12S14Sn4
_chemical_formula_sum              "Na12 S14 Sn4"
_cell_length_a       7.14734
_cell_length_b       7.14734
_cell_length_c       15.2727
_cell_angle_alpha    99.8412
_cell_angle_beta     99.8412
_cell_angle_gamma    97.772

_space_group_name_H-M_alt    "P 1"
_space_group_IT_number       1

loop_
  _space_group_symop_operation_xyz
  'x, y, z'

loop_
  _atom_site_type_symbol
  _atom_site_label
  _atom_site_symmetry_multiplicity
  _atom_site_fract_x
  _atom_site_fract_y
  _atom_site_fract_z
  _atom_site_occupancy
  Na  Na1       1.0  0.00000  0.50000  0.00000  1.0000
  Na  Na2       1.0  0.74600  0.95900  0.07490  1.0000
  Na  Na3       1.0  0.54600  0.50200  0.13700  1.0000
  Na  Na4       1.0  0.06990  0.43000  0.25000  1.0000
  Na  Na5       1.0  0.99800  0.95400  0.36300  1.0000
  Na  Na6       1.0  0.54100  0.75400  0.42500  1.0000
  Na  Na7       1.0  0.00000  0.50000  0.50000  1.0000
  Na  Na8       1.0  0.45900  0.24600  0.57500  1.0000
  Na  Na9       1.0  0.00206  0.04600  0.63700  1.0000
  Na  Na10      1.0  0.93000  0.57000  0.75000  1.0000
  Na  Na11      1.0  0.45400  0.49800  0.86300  1.0000
  Na  Na12      1.0  0.25400  0.04110  0.92500  1.0000
  S   S1        1.0  0.36100  0.73400  0.01580  1.0000
  S   S2        1.0  0.18800  0.23000  0.10300  1.0000
  S   S3        1.0  0.98600  0.75500  0.18000  1.0000
  S   S4        1.0  0.54900  0.95100  0.25000  1.0000
  S   S5        1.0  0.74500  0.51400  0.32000  1.0000
  S   S6        1.0  0.27000  0.31200  0.39700  1.0000
  S   S7        1.0  0.76600  0.13900  0.48400  1.0000
  S   S8        1.0  0.23400  0.86100  0.51600  1.0000
  S   S9        1.0  0.73000  0.68800  0.60300  1.0000
  S   S10       1.0  0.25500  0.48600  0.68000  1.0000
  S   S11       1.0  0.45100  0.04890  0.75000  1.0000
  S   S12       1.0  0.01390  0.24500  0.82000  1.0000
  S   S13       1.0  0.81200  0.77000  0.89700  1.0000
  S   S14       1.0  0.63900  0.26600  0.98400  1.0000
  Sn  Sn1       1.0  0.25300  0.92900  0.13700  1.0000
  Sn  Sn2       1.0  0.57100  0.24700  0.36300  1.0000
  Sn  Sn3       1.0  0.42900  0.75300  0.63700  1.0000
  Sn  Sn4       1.0  0.74700  0.07150  0.86300  1.0000
