data_image0
_chemical_formula_structural       Ag4O4Te4Tm4
_chemical_formula_sum              "Ag4 O4 Te4 Tm4"
_cell_length_a       7.76103
_cell_length_b       6.30132
_cell_length_c       6.16919
_cell_angle_alpha    90
_cell_angle_beta     92.3618
_cell_angle_gamma    90

_space_group_name_H-M_alt    "P 1"
_space_group_IT_number       1

loop_
  _space_group_symop_operation_xyz
  'x, y, z'

loop_
  _atom_site_type_symbol
  _atom_site_label
  _atom_site_symmetry_multiplicity
  _atom_site_fract_x
  _atom_site_fract_y
  _atom_site_fract_z
  _atom_site_occupancy
  Ag  Ag1       1.0  0.91100  0.28900  0.00644  1.0000
  Ag  Ag2       1.0  0.08880  0.78900  0.49400  1.0000
  Ag  Ag3       1.0  0.91100  0.21100  0.50600  1.0000
  Ag  Ag4       1.0  0.08880  0.71100  0.99400  1.0000
  O   O1        1.0  0.52400  0.26200  0.00135  1.0000
  O   O2        1.0  0.47600  0.76200  0.49900  1.0000
  O   O3        1.0  0.52400  0.23800  0.50100  1.0000
  O   O4        1.0  0.47600  0.73800  0.99900  1.0000
  Te  Te1       1.0  0.81000  0.92100  0.20500  1.0000
  Te  Te2       1.0  0.19000  0.42100  0.29500  1.0000
  Te  Te3       1.0  0.81000  0.57900  0.70500  1.0000
  Te  Te4       1.0  0.19000  0.07920  0.79500  1.0000
  Tm  Tm1       1.0  0.41500  0.00354  0.24600  1.0000
  Tm  Tm2       1.0  0.58500  0.50400  0.25400  1.0000
  Tm  Tm3       1.0  0.41500  0.49600  0.74600  1.0000
  Tm  Tm4       1.0  0.58500  0.99600  0.75400  1.0000
