data_image0
_chemical_formula_structural       H2Lu2O4
_chemical_formula_sum              "H2 Lu2 O4"
_cell_length_a       5.76795
_cell_length_b       3.505
_cell_length_c       4.20369
_cell_angle_alpha    90
_cell_angle_beta     109.18
_cell_angle_gamma    90

_space_group_name_H-M_alt    "P 1"
_space_group_IT_number       1

loop_
  _space_group_symop_operation_xyz
  'x, y, z'

loop_
  _atom_site_type_symbol
  _atom_site_label
  _atom_site_symmetry_multiplicity
  _atom_site_fract_x
  _atom_site_fract_y
  _atom_site_fract_z
  _atom_site_occupancy
  H   H1        1.0  0.07130  0.75000  0.49000  1.0000
  H   H2        1.0  0.92900  0.25000  0.51000  1.0000
  Lu  Lu1       1.0  0.31000  0.25000  0.16800  1.0000
  Lu  Lu2       1.0  0.69000  0.75000  0.83200  1.0000
  O   O1        1.0  0.05890  0.75000  0.25300  1.0000
  O   O2        1.0  0.55500  0.75000  0.26700  1.0000
  O   O3        1.0  0.44500  0.25000  0.73300  1.0000
  O   O4        1.0  0.94100  0.25000  0.74700  1.0000
