data_image0
_chemical_formula_structural       H12Mg6Mn2
_chemical_formula_sum              "H12 Mg6 Mn2"
_cell_length_a       11.8554
_cell_length_b       2.91649
_cell_length_c       5.1425
_cell_angle_alpha    90
_cell_angle_beta     112.375
_cell_angle_gamma    90

_space_group_name_H-M_alt    "P 1"
_space_group_IT_number       1

loop_
  _space_group_symop_operation_xyz
  'x, y, z'

loop_
  _atom_site_type_symbol
  _atom_site_label
  _atom_site_symmetry_multiplicity
  _atom_site_fract_x
  _atom_site_fract_y
  _atom_site_fract_z
  _atom_site_occupancy
  H   H1        1.0  0.71000  0.75000  0.05290  1.0000
  H   H2        1.0  0.18100  0.75000  0.15000  1.0000
  H   H3        1.0  0.50500  0.25000  0.17900  1.0000
  H   H4        1.0  0.02930  0.25000  0.17900  1.0000
  H   H5        1.0  0.67500  0.25000  0.32700  1.0000
  H   H6        1.0  0.89700  0.25000  0.41100  1.0000
  H   H7        1.0  0.10300  0.75000  0.58900  1.0000
  H   H8        1.0  0.32500  0.75000  0.67300  1.0000
  H   H9        1.0  0.97100  0.75000  0.82100  1.0000
  H   H10       1.0  0.49500  0.75000  0.82100  1.0000
  H   H11       1.0  0.81900  0.25000  0.85000  1.0000
  H   H12       1.0  0.29000  0.25000  0.94700  1.0000
  Mg  Mg1       1.0  0.91800  0.75000  0.14300  1.0000
  Mg  Mg2       1.0  0.38000  0.75000  0.28300  1.0000
  Mg  Mg3       1.0  0.19200  0.25000  0.45500  1.0000
  Mg  Mg4       1.0  0.80800  0.75000  0.54500  1.0000
  Mg  Mg5       1.0  0.62000  0.25000  0.71700  1.0000
  Mg  Mg6       1.0  0.08230  0.25000  0.85700  1.0000
  Mn  Mn1       1.0  0.59400  0.75000  0.17400  1.0000
  Mn  Mn2       1.0  0.40600  0.25000  0.82600  1.0000
