data_image0
_chemical_formula_structural       H4MgNb2
_chemical_formula_sum              "H4 Mg1 Nb2"
_cell_length_a       3.12882
_cell_length_b       3.12882
_cell_length_c       7.26459
_cell_angle_alpha    76.3131
_cell_angle_beta     103.687
_cell_angle_gamma    96.1999

_space_group_name_H-M_alt    "P 1"
_space_group_IT_number       1

loop_
  _space_group_symop_operation_xyz
  'x, y, z'

loop_
  _atom_site_type_symbol
  _atom_site_label
  _atom_site_symmetry_multiplicity
  _atom_site_fract_x
  _atom_site_fract_y
  _atom_site_fract_z
  _atom_site_occupancy
  H   H1        1.0  0.09240  0.40900  0.18100  1.0000
  H   H2        1.0  0.59100  0.90800  0.18100  1.0000
  H   H3        1.0  0.40900  0.09240  0.81900  1.0000
  H   H4        1.0  0.90800  0.59100  0.81900  1.0000
  Mg  Mg1       1.0  0.00000  0.00000  0.00000  1.0000
  Nb  Nb1       1.0  0.67600  0.32400  0.35200  1.0000
  Nb  Nb2       1.0  0.32400  0.67600  0.64800  1.0000
