data_image0
_chemical_formula_structural       H4I2Y2
_chemical_formula_sum              "H4 I2 Y2"
_cell_length_a       3.76805
_cell_length_b       3.76805
_cell_length_c       12.5096
_cell_angle_alpha    90
_cell_angle_beta     90
_cell_angle_gamma    120

_space_group_name_H-M_alt    "P 1"
_space_group_IT_number       1

loop_
  _space_group_symop_operation_xyz
  'x, y, z'

loop_
  _atom_site_type_symbol
  _atom_site_label
  _atom_site_symmetry_multiplicity
  _atom_site_fract_x
  _atom_site_fract_y
  _atom_site_fract_z
  _atom_site_occupancy
  H   H1        1.0  0.33300  0.66700  0.09810  1.0000
  H   H2        1.0  0.66700  0.33300  0.16500  1.0000
  H   H3        1.0  0.33300  0.66700  0.83500  1.0000
  H   H4        1.0  0.66700  0.33300  0.90200  1.0000
  I   I1        1.0  0.33300  0.66700  0.35200  1.0000
  I   I2        1.0  0.66700  0.33300  0.64800  1.0000
  Y   Y1        1.0  0.00000  0.00000  0.17700  1.0000
  Y   Y2        1.0  0.00000  0.00000  0.82300  1.0000
