data_image0
_chemical_formula_structural       Ge4La8O20
_chemical_formula_sum              "Ge4 La8 O20"
_cell_length_a       9.48851
_cell_length_b       7.31508
_cell_length_c       7.04729
_cell_angle_alpha    90
_cell_angle_beta     107.257
_cell_angle_gamma    90

_space_group_name_H-M_alt    "P 1"
_space_group_IT_number       1

loop_
  _space_group_symop_operation_xyz
  'x, y, z'

loop_
  _atom_site_type_symbol
  _atom_site_label
  _atom_site_symmetry_multiplicity
  _atom_site_fract_x
  _atom_site_fract_y
  _atom_site_fract_z
  _atom_site_occupancy
  Ge  Ge1       1.0  0.29600  0.90400  0.04480  1.0000
  Ge  Ge2       1.0  0.70400  0.40400  0.45500  1.0000
  Ge  Ge3       1.0  0.29600  0.59600  0.54500  1.0000
  Ge  Ge4       1.0  0.70400  0.09570  0.95500  1.0000
  La  La1       1.0  0.02550  0.12200  0.73700  1.0000
  La  La2       1.0  0.97500  0.62200  0.76300  1.0000
  La  La3       1.0  0.97500  0.87800  0.26300  1.0000
  La  La4       1.0  0.02550  0.37800  0.23700  1.0000
  La  La5       1.0  0.38400  0.14600  0.58700  1.0000
  La  La6       1.0  0.61600  0.64600  0.91300  1.0000
  La  La7       1.0  0.61600  0.85400  0.41300  1.0000
  La  La8       1.0  0.38400  0.35400  0.08680  1.0000
  O   O1        1.0  0.35900  0.45600  0.75500  1.0000
  O   O2        1.0  0.64100  0.95600  0.74500  1.0000
  O   O3        1.0  0.64100  0.54400  0.24500  1.0000
  O   O4        1.0  0.35900  0.04360  0.25500  1.0000
  O   O5        1.0  0.11700  0.12000  0.45200  1.0000
  O   O6        1.0  0.88300  0.62000  0.04780  1.0000
  O   O7        1.0  0.88300  0.88000  0.54800  1.0000
  O   O8        1.0  0.11700  0.38000  0.95200  1.0000
  O   O9        1.0  0.10500  0.64300  0.48900  1.0000
  O   O10       1.0  0.89500  0.14300  0.01110  1.0000
  O   O11       1.0  0.89500  0.35700  0.51100  1.0000
  O   O12       1.0  0.10500  0.85700  0.98900  1.0000
  O   O13       1.0  0.41000  0.78300  0.57100  1.0000
  O   O14       1.0  0.59000  0.28300  0.92900  1.0000
  O   O15       1.0  0.59000  0.21700  0.42900  1.0000
  O   O16       1.0  0.41000  0.71700  0.07150  1.0000
  O   O17       1.0  0.29700  0.06940  0.85800  1.0000
  O   O18       1.0  0.70300  0.56900  0.64200  1.0000
  O   O19       1.0  0.70300  0.93100  0.14200  1.0000
  O   O20       1.0  0.29700  0.43100  0.35800  1.0000
