data_image0
_chemical_formula_structural       H8La2Ni2
_chemical_formula_sum              "H8 La2 Ni2"
_cell_length_a       4.59151
_cell_length_b       4.37488
_cell_length_c       6.14169
_cell_angle_alpha    90
_cell_angle_beta     68.0499
_cell_angle_gamma    90

_space_group_name_H-M_alt    "P 1"
_space_group_IT_number       1

loop_
  _space_group_symop_operation_xyz
  'x, y, z'

loop_
  _atom_site_type_symbol
  _atom_site_label
  _atom_site_symmetry_multiplicity
  _atom_site_fract_x
  _atom_site_fract_y
  _atom_site_fract_z
  _atom_site_occupancy
  H   H1        1.0  0.26700  0.25000  0.12900  1.0000
  H   H2        1.0  0.60400  0.25000  0.12900  1.0000
  H   H3        1.0  0.82400  0.52200  0.35300  1.0000
  H   H4        1.0  0.82400  0.97800  0.35300  1.0000
  H   H5        1.0  0.17600  0.02180  0.64700  1.0000
  H   H6        1.0  0.17600  0.47800  0.64700  1.0000
  H   H7        1.0  0.39600  0.75000  0.87100  1.0000
  H   H8        1.0  0.73300  0.75000  0.87100  1.0000
  La  La1       1.0  0.36300  0.75000  0.27400  1.0000
  La  La2       1.0  0.63700  0.25000  0.72600  1.0000
  Ni  Ni1       1.0  0.92000  0.25000  0.16100  1.0000
  Ni  Ni2       1.0  0.08050  0.75000  0.83900  1.0000
