data_image0
_chemical_formula_structural       Mg41Pr5
_chemical_formula_sum              "Mg41 Pr5"
_cell_length_a       10.402
_cell_length_b       11.6402
_cell_length_c       11.6402
_cell_angle_alpha    101.516
_cell_angle_beta     63.4604
_cell_angle_gamma    116.54

_space_group_name_H-M_alt    "P 1"
_space_group_IT_number       1

loop_
  _space_group_symop_operation_xyz
  'x, y, z'

loop_
  _atom_site_type_symbol
  _atom_site_label
  _atom_site_symmetry_multiplicity
  _atom_site_fract_x
  _atom_site_fract_y
  _atom_site_fract_z
  _atom_site_occupancy
  Mg  Mg1       1.0  0.50000  0.00000  0.00000  1.0000
  Mg  Mg2       1.0  0.00000  0.50000  0.00000  1.0000
  Mg  Mg3       1.0  0.50000  0.50000  0.00000  1.0000
  Mg  Mg4       1.0  0.38600  0.21200  0.05940  1.0000
  Mg  Mg5       1.0  0.76700  0.21200  0.05940  1.0000
  Mg  Mg6       1.0  0.12200  0.34300  0.09890  1.0000
  Mg  Mg7       1.0  0.66000  0.44300  0.12400  1.0000
  Mg  Mg8       1.0  0.62700  0.71200  0.16600  1.0000
  Mg  Mg9       1.0  0.92000  0.71200  0.16600  1.0000
  Mg  Mg10      1.0  0.17400  0.94100  0.21200  1.0000
  Mg  Mg11      1.0  0.55500  0.94100  0.21200  1.0000
  Mg  Mg12      1.0  0.08560  0.16600  0.28800  1.0000
  Mg  Mg13      1.0  0.79200  0.16600  0.28800  1.0000
  Mg  Mg14      1.0  0.33400  0.44400  0.29100  1.0000
  Mg  Mg15      1.0  0.81800  0.44400  0.29100  1.0000
  Mg  Mg16      1.0  0.77900  0.90100  0.34300  1.0000
  Mg  Mg17      1.0  0.59700  0.58700  0.39300  1.0000
  Mg  Mg18      1.0  0.99000  0.39300  0.41300  1.0000
  Mg  Mg19      1.0  0.21600  0.87600  0.44300  1.0000
  Mg  Mg20      1.0  0.37500  0.70900  0.44400  1.0000
  Mg  Mg21      1.0  0.89100  0.70900  0.44400  1.0000
  Mg  Mg22      1.0  0.00000  0.00000  0.50000  1.0000
  Mg  Mg23      1.0  0.50000  0.00000  0.50000  1.0000
  Mg  Mg24      1.0  0.10900  0.29100  0.55600  1.0000
  Mg  Mg25      1.0  0.62500  0.29100  0.55600  1.0000
  Mg  Mg26      1.0  0.78400  0.12400  0.55700  1.0000
  Mg  Mg27      1.0  0.00996  0.60700  0.58700  1.0000
  Mg  Mg28      1.0  0.40300  0.41300  0.60700  1.0000
  Mg  Mg29      1.0  0.22100  0.09890  0.65700  1.0000
  Mg  Mg30      1.0  0.18200  0.55600  0.70900  1.0000
  Mg  Mg31      1.0  0.66600  0.55600  0.70900  1.0000
  Mg  Mg32      1.0  0.20800  0.83400  0.71200  1.0000
  Mg  Mg33      1.0  0.91400  0.83400  0.71200  1.0000
  Mg  Mg34      1.0  0.44500  0.05940  0.78800  1.0000
  Mg  Mg35      1.0  0.82600  0.05940  0.78800  1.0000
  Mg  Mg36      1.0  0.08030  0.28800  0.83400  1.0000
  Mg  Mg37      1.0  0.37300  0.28800  0.83400  1.0000
  Mg  Mg38      1.0  0.34000  0.55700  0.87600  1.0000
  Mg  Mg39      1.0  0.87800  0.65700  0.90100  1.0000
  Mg  Mg40      1.0  0.23300  0.78800  0.94100  1.0000
  Mg  Mg41      1.0  0.61400  0.78800  0.94100  1.0000
  Pr  Pr1       1.0  0.00000  0.00000  0.00000  1.0000
  Pr  Pr2       1.0  0.23600  0.66500  0.19200  1.0000
  Pr  Pr3       1.0  0.42900  0.19200  0.33500  1.0000
  Pr  Pr4       1.0  0.57100  0.80800  0.66500  1.0000
  Pr  Pr5       1.0  0.76400  0.33500  0.80800  1.0000
