data_image0
_chemical_formula_structural       Cd4Sb4Tl4
_chemical_formula_sum              "Cd4 Sb4 Tl4"
_cell_length_a       8.29956
_cell_length_b       4.95711
_cell_length_c       8.5636
_cell_angle_alpha    90
_cell_angle_beta     90
_cell_angle_gamma    90

_space_group_name_H-M_alt    "P 1"
_space_group_IT_number       1

loop_
  _space_group_symop_operation_xyz
  'x, y, z'

loop_
  _atom_site_type_symbol
  _atom_site_label
  _atom_site_symmetry_multiplicity
  _atom_site_fract_x
  _atom_site_fract_y
  _atom_site_fract_z
  _atom_site_occupancy
  Cd  Cd1       1.0  0.34100  0.75000  0.08700  1.0000
  Cd  Cd2       1.0  0.84100  0.75000  0.41300  1.0000
  Cd  Cd3       1.0  0.15900  0.25000  0.58700  1.0000
  Cd  Cd4       1.0  0.65900  0.25000  0.91300  1.0000
  Sb  Sb1       1.0  0.70600  0.75000  0.09570  1.0000
  Sb  Sb2       1.0  0.20600  0.75000  0.40400  1.0000
  Sb  Sb3       1.0  0.79400  0.25000  0.59600  1.0000
  Sb  Sb4       1.0  0.29400  0.25000  0.90400  1.0000
  Tl  Tl1       1.0  0.00415  0.25000  0.17900  1.0000
  Tl  Tl2       1.0  0.50400  0.25000  0.32100  1.0000
  Tl  Tl3       1.0  0.49600  0.75000  0.67900  1.0000
  Tl  Tl4       1.0  0.99600  0.75000  0.82100  1.0000
