data_image0
_chemical_formula_structural       F2H8Mg2Na2O12S2
_chemical_formula_sum              "F2 H8 Mg2 Na2 O12 S2"
_cell_length_a       7.04969
_cell_length_b       7.11168
_cell_length_c       5.58025
_cell_angle_alpha    90
_cell_angle_beta     113.725
_cell_angle_gamma    90

_space_group_name_H-M_alt    "P 1"
_space_group_IT_number       1

loop_
  _space_group_symop_operation_xyz
  'x, y, z'

loop_
  _atom_site_type_symbol
  _atom_site_label
  _atom_site_symmetry_multiplicity
  _atom_site_fract_x
  _atom_site_fract_y
  _atom_site_fract_z
  _atom_site_occupancy
  F   F1        1.0  0.98600  0.75000  0.12300  1.0000
  F   F2        1.0  0.01440  0.25000  0.87700  1.0000
  H   H1        1.0  0.37900  0.09870  0.30500  1.0000
  H   H2        1.0  0.37900  0.40100  0.30500  1.0000
  H   H3        1.0  0.31100  0.57400  0.43300  1.0000
  H   H4        1.0  0.31100  0.92600  0.43300  1.0000
  H   H5        1.0  0.68900  0.07380  0.56700  1.0000
  H   H6        1.0  0.68900  0.42600  0.56700  1.0000
  H   H7        1.0  0.62100  0.59900  0.69500  1.0000
  H   H8        1.0  0.62100  0.90100  0.69500  1.0000
  Mg  Mg1       1.0  0.00000  0.00000  0.00000  1.0000
  Mg  Mg2       1.0  0.00000  0.50000  0.00000  1.0000
  Na  Na1       1.0  0.81200  0.75000  0.37900  1.0000
  Na  Na2       1.0  0.18800  0.25000  0.62100  1.0000
  O   O1        1.0  0.46600  0.75000  0.12000  1.0000
  O   O2        1.0  0.82400  0.07990  0.20700  1.0000
  O   O3        1.0  0.82400  0.42000  0.20700  1.0000
  O   O4        1.0  0.26000  0.04380  0.33200  1.0000
  O   O5        1.0  0.26000  0.45600  0.33200  1.0000
  O   O6        1.0  0.58500  0.25000  0.33800  1.0000
  O   O7        1.0  0.41500  0.75000  0.66200  1.0000
  O   O8        1.0  0.74000  0.54400  0.66800  1.0000
  O   O9        1.0  0.74000  0.95600  0.66800  1.0000
  O   O10       1.0  0.17600  0.58000  0.79300  1.0000
  O   O11       1.0  0.17600  0.92000  0.79300  1.0000
  O   O12       1.0  0.53400  0.25000  0.88000  1.0000
  S   S1        1.0  0.69000  0.25000  0.14700  1.0000
  S   S2        1.0  0.31000  0.75000  0.85300  1.0000
