data_image0
_chemical_formula_structural       MoO4Sr2
_chemical_formula_sum              "Mo1 O4 Sr2"
_cell_length_a       3.91237
_cell_length_b       3.91237
_cell_length_c       6.99815
_cell_angle_alpha    106.232
_cell_angle_beta     106.232
_cell_angle_gamma    90

_space_group_name_H-M_alt    "P 1"
_space_group_IT_number       1

loop_
  _space_group_symop_operation_xyz
  'x, y, z'

loop_
  _atom_site_type_symbol
  _atom_site_label
  _atom_site_symmetry_multiplicity
  _atom_site_fract_x
  _atom_site_fract_y
  _atom_site_fract_z
  _atom_site_occupancy
  Mo  Mo1       1.0  0.00000  0.00000  0.00000  1.0000
  O   O1        1.0  0.50000  0.00000  0.00000  1.0000
  O   O2        1.0  0.00000  0.50000  0.00000  1.0000
  O   O3        1.0  0.16500  0.16500  0.32900  1.0000
  O   O4        1.0  0.83500  0.83500  0.67100  1.0000
  Sr  Sr1       1.0  0.64900  0.64900  0.29800  1.0000
  Sr  Sr2       1.0  0.35100  0.35100  0.70200  1.0000
