data_image0
_chemical_formula_structural       Al2MnTe4
_chemical_formula_sum              "Al2 Mn1 Te4"
_cell_length_a       5.98125
_cell_length_b       5.98125
_cell_length_c       7.55469
_cell_angle_alpha    113.32
_cell_angle_beta     113.32
_cell_angle_gamma    90

_space_group_name_H-M_alt    "P 1"
_space_group_IT_number       1

loop_
  _space_group_symop_operation_xyz
  'x, y, z'

loop_
  _atom_site_type_symbol
  _atom_site_label
  _atom_site_symmetry_multiplicity
  _atom_site_fract_x
  _atom_site_fract_y
  _atom_site_fract_z
  _atom_site_occupancy
  Al  Al1       1.0  0.75000  0.25000  0.50000  1.0000
  Al  Al2       1.0  0.25000  0.75000  0.50000  1.0000
  Mn  Mn1       1.0  0.00000  0.00000  0.00000  1.0000
  Te  Te1       1.0  0.38800  0.38800  0.24300  1.0000
  Te  Te2       1.0  0.85400  0.85400  0.24300  1.0000
  Te  Te3       1.0  0.61200  0.14600  0.75700  1.0000
  Te  Te4       1.0  0.14600  0.61200  0.75700  1.0000
