data_image0
_chemical_formula_structural       Ge6Ru6Zr6
_chemical_formula_sum              "Ge6 Ru6 Zr6"
_cell_length_a       6.80781
_cell_length_b       7.55825
_cell_length_c       7.7646
_cell_angle_alpha    119.125
_cell_angle_beta     116.001
_cell_angle_gamma    90

_space_group_name_H-M_alt    "P 1"
_space_group_IT_number       1

loop_
  _space_group_symop_operation_xyz
  'x, y, z'

loop_
  _atom_site_type_symbol
  _atom_site_label
  _atom_site_symmetry_multiplicity
  _atom_site_fract_x
  _atom_site_fract_y
  _atom_site_fract_z
  _atom_site_occupancy
  Ge  Ge1       1.0  0.52200  0.27600  0.05230  1.0000
  Ge  Ge2       1.0  0.17200  0.16200  0.33500  1.0000
  Ge  Ge3       1.0  0.17200  0.67200  0.33500  1.0000
  Ge  Ge4       1.0  0.83800  0.32800  0.66500  1.0000
  Ge  Ge5       1.0  0.83800  0.83800  0.66500  1.0000
  Ge  Ge6       1.0  0.47000  0.72400  0.94800  1.0000
  Ru  Ru1       1.0  0.74700  0.00000  0.00000  1.0000
  Ru  Ru2       1.0  0.74700  0.50000  0.00000  1.0000
  Ru  Ru3       1.0  0.50300  0.09440  0.24600  1.0000
  Ru  Ru4       1.0  0.50300  0.65100  0.24600  1.0000
  Ru  Ru5       1.0  0.25700  0.34900  0.75400  1.0000
  Ru  Ru6       1.0  0.25700  0.90600  0.75400  1.0000
  Zr  Zr1       1.0  0.08560  0.25200  0.00312  1.0000
  Zr  Zr2       1.0  0.90000  0.94700  0.39500  1.0000
  Zr  Zr3       1.0  0.95000  0.47100  0.44100  1.0000
  Zr  Zr4       1.0  0.50800  0.52900  0.55900  1.0000
  Zr  Zr5       1.0  0.50600  0.05260  0.60500  1.0000
  Zr  Zr6       1.0  0.08240  0.74800  0.99700  1.0000
