data_image0
_chemical_formula_structural       Ni2Si4Tm2
_chemical_formula_sum              "Ni2 Si4 Tm2"
_cell_length_a       3.9325
_cell_length_b       3.91594
_cell_length_c       8.44286
_cell_angle_alpha    76.5905
_cell_angle_beta     90
_cell_angle_gamma    90

_space_group_name_H-M_alt    "P 1"
_space_group_IT_number       1

loop_
  _space_group_symop_operation_xyz
  'x, y, z'

loop_
  _atom_site_type_symbol
  _atom_site_label
  _atom_site_symmetry_multiplicity
  _atom_site_fract_x
  _atom_site_fract_y
  _atom_site_fract_z
  _atom_site_occupancy
  Ni  Ni1       1.0  0.75000  0.32400  0.35200  1.0000
  Ni  Ni2       1.0  0.25000  0.67600  0.64800  1.0000
  Si  Si1       1.0  0.75000  0.46000  0.07940  1.0000
  Si  Si2       1.0  0.25000  0.25100  0.49900  1.0000
  Si  Si3       1.0  0.75000  0.74900  0.50100  1.0000
  Si  Si4       1.0  0.25000  0.54000  0.92100  1.0000
  Tm  Tm1       1.0  0.25000  0.89500  0.21000  1.0000
  Tm  Tm2       1.0  0.75000  0.10500  0.79000  1.0000
