data_image0
_chemical_formula_structural       Ag2Al2S4
_chemical_formula_sum              "Ag2 Al2 S4"
_cell_length_a       5.7528
_cell_length_b       5.7528
_cell_length_c       6.60738
_cell_angle_alpha    115.806
_cell_angle_beta     115.806
_cell_angle_gamma    90

_space_group_name_H-M_alt    "P 1"
_space_group_IT_number       1

loop_
  _space_group_symop_operation_xyz
  'x, y, z'

loop_
  _atom_site_type_symbol
  _atom_site_label
  _atom_site_symmetry_multiplicity
  _atom_site_fract_x
  _atom_site_fract_y
  _atom_site_fract_z
  _atom_site_occupancy
  Ag  Ag1       1.0  0.00000  0.00000  0.00000  1.0000
  Ag  Ag2       1.0  0.25000  0.75000  0.50000  1.0000
  Al  Al1       1.0  0.50000  0.50000  0.00000  1.0000
  Al  Al2       1.0  0.75000  0.25000  0.50000  1.0000
  S   S1        1.0  0.41900  0.37500  0.25000  1.0000
  S   S2        1.0  0.83100  0.87500  0.25000  1.0000
  S   S3        1.0  0.62500  0.16900  0.75000  1.0000
  S   S4        1.0  0.12500  0.58100  0.75000  1.0000
