data_image0
_chemical_formula_structural       Ce2Ir2P2
_chemical_formula_sum              "Ce2 Ir2 P2"
_cell_length_a       4.17289
_cell_length_b       4.17289
_cell_length_c       7.72212
_cell_angle_alpha    105.676
_cell_angle_beta     105.676
_cell_angle_gamma    90

_space_group_name_H-M_alt    "P 1"
_space_group_IT_number       1

loop_
  _space_group_symop_operation_xyz
  'x, y, z'

loop_
  _atom_site_type_symbol
  _atom_site_label
  _atom_site_symmetry_multiplicity
  _atom_site_fract_x
  _atom_site_fract_y
  _atom_site_fract_z
  _atom_site_occupancy
  Ce  Ce1       1.0  0.00090  0.00090  0.00181  1.0000
  Ce  Ce2       1.0  0.25100  0.75100  0.50200  1.0000
  Ir  Ir1       1.0  0.66300  0.16300  0.32600  1.0000
  Ir  Ir2       1.0  0.41300  0.41300  0.82600  1.0000
  P   P1        1.0  0.58100  0.58100  0.16100  1.0000
  P   P2        1.0  0.83100  0.33100  0.66100  1.0000
