data_image0
_chemical_formula_structural       Ge2Na4Zn2
_chemical_formula_sum              "Ge2 Na4 Zn2"
_cell_length_a       5.50083
_cell_length_b       5.90917
_cell_length_c       5.90917
_cell_angle_alpha    102.249
_cell_angle_beta     90
_cell_angle_gamma    90

_space_group_name_H-M_alt    "P 1"
_space_group_IT_number       1

loop_
  _space_group_symop_operation_xyz
  'x, y, z'

loop_
  _atom_site_type_symbol
  _atom_site_label
  _atom_site_symmetry_multiplicity
  _atom_site_fract_x
  _atom_site_fract_y
  _atom_site_fract_z
  _atom_site_occupancy
  Ge  Ge1       1.0  0.75000  0.22600  0.22600  1.0000
  Ge  Ge2       1.0  0.25000  0.77400  0.77400  1.0000
  Na  Na1       1.0  0.75000  0.68200  0.03410  1.0000
  Na  Na2       1.0  0.25000  0.96600  0.31800  1.0000
  Na  Na3       1.0  0.75000  0.03410  0.68200  1.0000
  Na  Na4       1.0  0.25000  0.31800  0.96600  1.0000
  Zn  Zn1       1.0  0.00000  0.50000  0.50000  1.0000
  Zn  Zn2       1.0  0.50000  0.50000  0.50000  1.0000
