data_image0
_chemical_formula_structural       B4Nb3
_chemical_formula_sum              "B4 Nb3"
_cell_length_a       3.15216
_cell_length_b       3.31511
_cell_length_c       7.44232
_cell_angle_alpha    102.869
_cell_angle_beta     102.226
_cell_angle_gamma    90

_space_group_name_H-M_alt    "P 1"
_space_group_IT_number       1

loop_
  _space_group_symop_operation_xyz
  'x, y, z'

loop_
  _atom_site_type_symbol
  _atom_site_label
  _atom_site_symmetry_multiplicity
  _atom_site_fract_x
  _atom_site_fract_y
  _atom_site_fract_z
  _atom_site_occupancy
  B   B1        1.0  0.06430  0.56400  0.12900  1.0000
  B   B2        1.0  0.63200  0.63200  0.26400  1.0000
  B   B3        1.0  0.36800  0.36800  0.73600  1.0000
  B   B4        1.0  0.93600  0.43600  0.87100  1.0000
  Nb  Nb1       1.0  0.50000  0.00000  0.00000  1.0000
  Nb  Nb2       1.0  0.18500  0.18500  0.37000  1.0000
  Nb  Nb3       1.0  0.81500  0.81500  0.63000  1.0000
