data_image0
_chemical_formula_structural       Cu2GeTe3
_chemical_formula_sum              "Cu2 Ge1 Te3"
_cell_length_a       4.32836
_cell_length_b       5.96547
_cell_length_c       7.3713
_cell_angle_alpha    113.869
_cell_angle_beta     107.073
_cell_angle_gamma    90

_space_group_name_H-M_alt    "P 1"
_space_group_IT_number       1

loop_
  _space_group_symop_operation_xyz
  'x, y, z'

loop_
  _atom_site_type_symbol
  _atom_site_label
  _atom_site_symmetry_multiplicity
  _atom_site_fract_x
  _atom_site_fract_y
  _atom_site_fract_z
  _atom_site_occupancy
  Cu  Cu1       1.0  0.16900  0.90600  0.33700  1.0000
  Cu  Cu2       1.0  0.83100  0.56900  0.66300  1.0000
  Ge  Ge1       1.0  0.50000  0.26100  0.00000  1.0000
  Te  Te1       1.0  0.00000  0.98000  0.00000  1.0000
  Te  Te2       1.0  0.67300  0.67800  0.34600  1.0000
  Te  Te3       1.0  0.32700  0.33200  0.65400  1.0000
