data_image0
_chemical_formula_structural       B4O2
_chemical_formula_sum              "B4 O2"
_cell_length_a       2.56282
_cell_length_b       2.56567
_cell_length_c       8.62941
_cell_angle_alpha    90
_cell_angle_beta     90.0139
_cell_angle_gamma    120.037

_space_group_name_H-M_alt    "P 1"
_space_group_IT_number       1

loop_
  _space_group_symop_operation_xyz
  'x, y, z'

loop_
  _atom_site_type_symbol
  _atom_site_label
  _atom_site_symmetry_multiplicity
  _atom_site_fract_x
  _atom_site_fract_y
  _atom_site_fract_z
  _atom_site_occupancy
  B   B1        1.0  0.66600  0.33300  0.02910  1.0000
  B   B2        1.0  0.00015  0.00007  0.40000  1.0000
  B   B3        1.0  1.00000  1.00000  0.60000  1.0000
  B   B4        1.0  0.33400  0.66700  0.97100  1.0000
  O   O1        1.0  0.66700  0.33300  0.33700  1.0000
  O   O2        1.0  0.33300  0.66700  0.66300  1.0000
