data_image0
_chemical_formula_structural       Cs4Fe4N4O4
_chemical_formula_sum              "Cs4 Fe4 N4 O4"
_cell_length_a       5.96
_cell_length_b       8.74427
_cell_length_c       5.63596
_cell_angle_alpha    90
_cell_angle_beta     90
_cell_angle_gamma    90

_space_group_name_H-M_alt    "P 1"
_space_group_IT_number       1

loop_
  _space_group_symop_operation_xyz
  'x, y, z'

loop_
  _atom_site_type_symbol
  _atom_site_label
  _atom_site_symmetry_multiplicity
  _atom_site_fract_x
  _atom_site_fract_y
  _atom_site_fract_z
  _atom_site_occupancy
  Cs  Cs1       1.0  0.54000  0.34400  0.01010  1.0000
  Cs  Cs2       1.0  0.03980  0.65600  0.01010  1.0000
  Cs  Cs3       1.0  0.96000  0.34400  0.51000  1.0000
  Cs  Cs4       1.0  0.46000  0.65600  0.51000  1.0000
  Fe  Fe1       1.0  0.08970  0.07920  0.00522  1.0000
  Fe  Fe2       1.0  0.59000  0.92100  0.00522  1.0000
  Fe  Fe3       1.0  0.41000  0.07920  0.50500  1.0000
  Fe  Fe4       1.0  0.91000  0.92100  0.50500  1.0000
  N   N1        1.0  0.35400  0.02080  0.17800  1.0000
  N   N2        1.0  0.85400  0.97900  0.17800  1.0000
  N   N3        1.0  0.14600  0.02080  0.67800  1.0000
  N   N4        1.0  0.64600  0.97900  0.67800  1.0000
  O   O1        1.0  0.04410  0.27900  0.00862  1.0000
  O   O2        1.0  0.54400  0.72100  0.00862  1.0000
  O   O3        1.0  0.45600  0.27900  0.50900  1.0000
  O   O4        1.0  0.95600  0.72100  0.50900  1.0000
