data_image0
_chemical_formula_structural       GaMnU
_chemical_formula_sum              "Ga1 Mn1 U1"
_cell_length_a       3.85572
_cell_length_b       3.85572
_cell_length_c       3.85572
_cell_angle_alpha    78.7285
_cell_angle_beta     78.7285
_cell_angle_gamma    78.7285

_space_group_name_H-M_alt    "P 1"
_space_group_IT_number       1

loop_
  _space_group_symop_operation_xyz
  'x, y, z'

loop_
  _atom_site_type_symbol
  _atom_site_label
  _atom_site_symmetry_multiplicity
  _atom_site_fract_x
  _atom_site_fract_y
  _atom_site_fract_z
  _atom_site_occupancy
  Ga  Ga1       1.0  0.36900  0.36900  0.36900  1.0000
  Mn  Mn1       1.0  0.68600  0.68600  0.68600  1.0000
  U   U1        1.0  0.94500  0.94500  0.94500  1.0000
