data_image0
_chemical_formula_structural       Ce4Cs4N4O4
_chemical_formula_sum              "Ce4 Cs4 N4 O4"
_cell_length_a       7.60738
_cell_length_b       9.25362
_cell_length_c       6.23122
_cell_angle_alpha    90
_cell_angle_beta     90
_cell_angle_gamma    90

_space_group_name_H-M_alt    "P 1"
_space_group_IT_number       1

loop_
  _space_group_symop_operation_xyz
  'x, y, z'

loop_
  _atom_site_type_symbol
  _atom_site_label
  _atom_site_symmetry_multiplicity
  _atom_site_fract_x
  _atom_site_fract_y
  _atom_site_fract_z
  _atom_site_occupancy
  Ce  Ce1       1.0  0.08840  0.11400  0.01560  1.0000
  Ce  Ce2       1.0  0.58800  0.88600  0.01560  1.0000
  Ce  Ce3       1.0  0.41200  0.11400  0.51600  1.0000
  Ce  Ce4       1.0  0.91200  0.88600  0.51600  1.0000
  Cs  Cs1       1.0  0.58300  0.37500  0.02640  1.0000
  Cs  Cs2       1.0  0.08310  0.62500  0.02640  1.0000
  Cs  Cs3       1.0  0.91700  0.37500  0.52600  1.0000
  Cs  Cs4       1.0  0.41700  0.62500  0.52600  1.0000
  N   N1        1.0  0.38700  0.07710  0.12700  1.0000
  N   N2        1.0  0.88700  0.92300  0.12700  1.0000
  N   N3        1.0  0.11300  0.07710  0.62700  1.0000
  N   N4        1.0  0.61300  0.92300  0.62700  1.0000
  O   O1        1.0  0.97000  0.32600  0.03380  1.0000
  O   O2        1.0  0.47000  0.67400  0.03380  1.0000
  O   O3        1.0  0.53000  0.32600  0.53400  1.0000
  O   O4        1.0  0.02970  0.67400  0.53400  1.0000
