data_image0
_chemical_formula_structural       B4Mn4
_chemical_formula_sum              "B4 Mn4"
_cell_length_a       5.44499
_cell_length_b       2.98276
_cell_length_c       4.11396
_cell_angle_alpha    90
_cell_angle_beta     90
_cell_angle_gamma    90

_space_group_name_H-M_alt    "P 1"
_space_group_IT_number       1

loop_
  _space_group_symop_operation_xyz
  'x, y, z'

loop_
  _atom_site_type_symbol
  _atom_site_label
  _atom_site_symmetry_multiplicity
  _atom_site_fract_x
  _atom_site_fract_y
  _atom_site_fract_z
  _atom_site_occupancy
  B   B1        1.0  0.46700  0.75000  0.11600  1.0000
  B   B2        1.0  0.96700  0.75000  0.38400  1.0000
  B   B3        1.0  0.03350  0.25000  0.61600  1.0000
  B   B4        1.0  0.53300  0.25000  0.88400  1.0000
  Mn  Mn1       1.0  0.17500  0.25000  0.12300  1.0000
  Mn  Mn2       1.0  0.67500  0.25000  0.37700  1.0000
  Mn  Mn3       1.0  0.32500  0.75000  0.62300  1.0000
  Mn  Mn4       1.0  0.82500  0.75000  0.87700  1.0000
