data_image0
_chemical_formula_structural       Mg42Zn50
_chemical_formula_sum              "Mg42 Zn50"
_cell_length_a       8.6304
_cell_length_b       14.9718
_cell_length_c       14.9718
_cell_angle_alpha    116.399
_cell_angle_beta     101.078
_cell_angle_gamma    101.078

_space_group_name_H-M_alt    "P 1"
_space_group_IT_number       1

loop_
  _space_group_symop_operation_xyz
  'x, y, z'

loop_
  _atom_site_type_symbol
  _atom_site_label
  _atom_site_symmetry_multiplicity
  _atom_site_fract_x
  _atom_site_fract_y
  _atom_site_fract_z
  _atom_site_occupancy
  Mg  Mg1       1.0  0.14100  0.57800  0.09640  1.0000
  Mg  Mg2       1.0  0.45500  0.51800  0.09640  1.0000
  Mg  Mg3       1.0  0.68100  0.23200  0.11500  1.0000
  Mg  Mg4       1.0  0.93400  0.88300  0.11500  1.0000
  Mg  Mg5       1.0  0.56600  0.88500  0.11700  1.0000
  Mg  Mg6       1.0  0.05100  0.23200  0.11700  1.0000
  Mg  Mg7       1.0  0.27600  0.45900  0.22800  1.0000
  Mg  Mg8       1.0  0.45200  0.76800  0.22800  1.0000
  Mg  Mg9       1.0  0.04780  0.77200  0.23200  1.0000
  Mg  Mg10      1.0  0.68400  0.45900  0.23200  1.0000
  Mg  Mg11      1.0  0.18100  0.11500  0.23200  1.0000
  Mg  Mg12      1.0  0.55100  0.11700  0.23200  1.0000
  Mg  Mg13      1.0  0.05720  0.61400  0.30700  1.0000
  Mg  Mg14      1.0  0.75000  0.69300  0.30700  1.0000
  Mg  Mg15      1.0  0.44300  0.69300  0.38600  1.0000
  Mg  Mg16      1.0  0.56300  0.51800  0.42200  1.0000
  Mg  Mg17      1.0  0.35900  0.90400  0.42200  1.0000
  Mg  Mg18      1.0  0.77600  0.22800  0.45900  1.0000
  Mg  Mg19      1.0  0.18400  0.23200  0.45900  1.0000
  Mg  Mg20      1.0  0.93700  0.57800  0.48200  1.0000
  Mg  Mg21      1.0  0.04490  0.90400  0.48200  1.0000
  Mg  Mg22      1.0  0.06330  0.42200  0.51800  1.0000
  Mg  Mg23      1.0  0.95500  0.09640  0.51800  1.0000
  Mg  Mg24      1.0  0.81600  0.76800  0.54100  1.0000
  Mg  Mg25      1.0  0.22400  0.77200  0.54100  1.0000
  Mg  Mg26      1.0  0.64100  0.09640  0.57800  1.0000
  Mg  Mg27      1.0  0.43700  0.48200  0.57800  1.0000
  Mg  Mg28      1.0  0.55700  0.30700  0.61400  1.0000
  Mg  Mg29      1.0  0.25000  0.30700  0.69300  1.0000
  Mg  Mg30      1.0  0.94300  0.38600  0.69300  1.0000
  Mg  Mg31      1.0  0.44900  0.88300  0.76800  1.0000
  Mg  Mg32      1.0  0.81900  0.88500  0.76800  1.0000
  Mg  Mg33      1.0  0.95200  0.22800  0.76800  1.0000
  Mg  Mg34      1.0  0.31600  0.54100  0.76800  1.0000
  Mg  Mg35      1.0  0.72400  0.54100  0.77200  1.0000
  Mg  Mg36      1.0  0.54800  0.23200  0.77200  1.0000
  Mg  Mg37      1.0  0.94900  0.76800  0.88300  1.0000
  Mg  Mg38      1.0  0.43400  0.11500  0.88300  1.0000
  Mg  Mg39      1.0  0.06610  0.11700  0.88500  1.0000
  Mg  Mg40      1.0  0.31900  0.76800  0.88500  1.0000
  Mg  Mg41      1.0  0.85900  0.42200  0.90400  1.0000
  Mg  Mg42      1.0  0.54500  0.48200  0.90400  1.0000
  Zn  Zn1       1.0  0.00000  0.00000  0.00000  1.0000
  Zn  Zn2       1.0  0.50000  0.00000  0.00000  1.0000
  Zn  Zn3       1.0  0.12000  0.35500  0.00040  1.0000
  Zn  Zn4       1.0  0.38100  0.64500  0.00040  1.0000
  Zn  Zn5       1.0  0.25000  0.93900  0.06080  1.0000
  Zn  Zn6       1.0  0.31100  0.12200  0.06080  1.0000
  Zn  Zn7       1.0  0.19200  0.76400  0.06380  1.0000
  Zn  Zn8       1.0  0.37200  0.30000  0.06380  1.0000
  Zn  Zn9       1.0  0.80800  0.55800  0.11600  1.0000
  Zn  Zn10      1.0  0.92800  0.40900  0.11700  1.0000
  Zn  Zn11      1.0  0.68900  0.70800  0.11700  1.0000
  Zn  Zn12      1.0  0.81100  0.06080  0.12200  1.0000
  Zn  Zn13      1.0  0.30800  0.93600  0.23600  1.0000
  Zn  Zn14      1.0  0.42800  0.30000  0.23600  1.0000
  Zn  Zn15      1.0  0.81100  0.88300  0.29200  1.0000
  Zn  Zn16      1.0  0.98100  0.40900  0.29200  1.0000
  Zn  Zn17      1.0  0.92800  0.23600  0.30000  1.0000
  Zn  Zn18      1.0  0.87200  0.06380  0.30000  1.0000
  Zn  Zn19      1.0  0.11900  0.00000  0.35500  1.0000
  Zn  Zn20      1.0  0.73600  0.35500  0.35500  1.0000
  Zn  Zn21      1.0  0.62000  0.00040  0.35500  1.0000
  Zn  Zn22      1.0  0.23600  0.35500  0.35500  1.0000
  Zn  Zn23      1.0  0.48100  0.29200  0.40900  1.0000
  Zn  Zn24      1.0  0.42800  0.11700  0.40900  1.0000
  Zn  Zn25      1.0  0.25000  0.55800  0.44200  1.0000
  Zn  Zn26      1.0  0.69200  0.88400  0.44200  1.0000
  Zn  Zn27      1.0  0.30800  0.11600  0.55800  1.0000
  Zn  Zn28      1.0  0.75000  0.44200  0.55800  1.0000
  Zn  Zn29      1.0  0.57200  0.88300  0.59100  1.0000
  Zn  Zn30      1.0  0.51900  0.70800  0.59100  1.0000
  Zn  Zn31      1.0  0.76400  0.64500  0.64500  1.0000
  Zn  Zn32      1.0  0.38000  0.00000  0.64500  1.0000
  Zn  Zn33      1.0  0.26400  0.64500  0.64500  1.0000
  Zn  Zn34      1.0  0.88100  0.00040  0.64500  1.0000
  Zn  Zn35      1.0  0.07170  0.76400  0.70000  1.0000
  Zn  Zn36      1.0  0.12800  0.93600  0.70000  1.0000
  Zn  Zn37      1.0  0.01940  0.59100  0.70800  1.0000
  Zn  Zn38      1.0  0.18900  0.11700  0.70800  1.0000
  Zn  Zn39      1.0  0.69200  0.06380  0.76400  1.0000
  Zn  Zn40      1.0  0.57200  0.70000  0.76400  1.0000
  Zn  Zn41      1.0  0.18900  0.93900  0.87800  1.0000
  Zn  Zn42      1.0  0.07160  0.59100  0.88300  1.0000
  Zn  Zn43      1.0  0.31100  0.29200  0.88300  1.0000
  Zn  Zn44      1.0  0.19200  0.44200  0.88400  1.0000
  Zn  Zn45      1.0  0.80800  0.23600  0.93600  1.0000
  Zn  Zn46      1.0  0.62800  0.70000  0.93600  1.0000
  Zn  Zn47      1.0  0.68900  0.87800  0.93900  1.0000
  Zn  Zn48      1.0  0.75000  0.06080  0.93900  1.0000
  Zn  Zn49      1.0  0.88000  0.64500  0.00000  1.0000
  Zn  Zn50      1.0  0.61900  0.35500  0.00000  1.0000
