data_image0
_chemical_formula_structural       Cl2H2O2Sr2
_chemical_formula_sum              "Cl2 H2 O2 Sr2"
_cell_length_a       4.13368
_cell_length_b       4.13373
_cell_length_c       9.91459
_cell_angle_alpha    90
_cell_angle_beta     90
_cell_angle_gamma    120

_space_group_name_H-M_alt    "P 1"
_space_group_IT_number       1

loop_
  _space_group_symop_operation_xyz
  'x, y, z'

loop_
  _atom_site_type_symbol
  _atom_site_label
  _atom_site_symmetry_multiplicity
  _atom_site_fract_x
  _atom_site_fract_y
  _atom_site_fract_z
  _atom_site_occupancy
  Cl  Cl1       1.0  0.33300  0.66700  0.00697  1.0000
  Cl  Cl2       1.0  0.66700  0.33300  0.50700  1.0000
  H   H1        1.0  0.00000  0.00000  0.36400  1.0000
  H   H2        1.0  0.00000  0.00000  0.86400  1.0000
  O   O1        1.0  0.00001  0.00003  0.26500  1.0000
  O   O2        1.0  0.00000  0.00000  0.76500  1.0000
  Sr  Sr1       1.0  0.66700  0.33300  0.19500  1.0000
  Sr  Sr2       1.0  0.33300  0.66700  0.69500  1.0000
