data_image0
_chemical_formula_structural       Cs2Ga2S4
_chemical_formula_sum              "Cs2 Ga2 S4"
_cell_length_a       5.97204
_cell_length_b       7.20886
_cell_length_c       7.20886
_cell_angle_alpha    117.388
_cell_angle_beta     101.727
_cell_angle_gamma    101.727

_space_group_name_H-M_alt    "P 1"
_space_group_IT_number       1

loop_
  _space_group_symop_operation_xyz
  'x, y, z'

loop_
  _atom_site_type_symbol
  _atom_site_label
  _atom_site_symmetry_multiplicity
  _atom_site_fract_x
  _atom_site_fract_y
  _atom_site_fract_z
  _atom_site_occupancy
  Cs  Cs1       1.0  0.25000  0.64500  0.35500  1.0000
  Cs  Cs2       1.0  0.75000  0.35500  0.64500  1.0000
  Ga  Ga1       1.0  0.75000  0.99700  0.00294  1.0000
  Ga  Ga2       1.0  0.25000  0.00295  0.99700  1.0000
  S   S1        1.0  0.59300  0.28100  0.07980  1.0000
  S   S2        1.0  0.09310  0.07980  0.28100  1.0000
  S   S3        1.0  0.90700  0.92000  0.71900  1.0000
  S   S4        1.0  0.40700  0.71900  0.92000  1.0000
