data_image0
_chemical_formula_structural       Pd4Si4U4
_chemical_formula_sum              "Pd4 Si4 U4"
_cell_length_a       7.51922
_cell_length_b       3.74116
_cell_length_c       7.40283
_cell_angle_alpha    90
_cell_angle_beta     89.9992
_cell_angle_gamma    90

_space_group_name_H-M_alt    "P 1"
_space_group_IT_number       1

loop_
  _space_group_symop_operation_xyz
  'x, y, z'

loop_
  _atom_site_type_symbol
  _atom_site_label
  _atom_site_symmetry_multiplicity
  _atom_site_fract_x
  _atom_site_fract_y
  _atom_site_fract_z
  _atom_site_occupancy
  Pd  Pd1       1.0  0.37100  0.75000  0.06820  1.0000
  Pd  Pd2       1.0  0.87100  0.75000  0.43200  1.0000
  Pd  Pd3       1.0  0.12900  0.25000  0.56800  1.0000
  Pd  Pd4       1.0  0.62900  0.25000  0.93200  1.0000
  Si  Si1       1.0  0.70500  0.75000  0.13800  1.0000
  Si  Si2       1.0  0.20500  0.75000  0.36200  1.0000
  Si  Si3       1.0  0.79500  0.25000  0.63800  1.0000
  Si  Si4       1.0  0.29500  0.25000  0.86200  1.0000
  U   U1        1.0  0.00850  0.25000  0.12100  1.0000
  U   U2        1.0  0.50800  0.25000  0.37900  1.0000
  U   U3        1.0  0.49200  0.75000  0.62100  1.0000
  U   U4        1.0  0.99200  0.75000  0.87900  1.0000
