data_image0
_chemical_formula_structural       P2Pd2Tb
_chemical_formula_sum              "P2 Pd2 Tb1"
_cell_length_a       5.75683
_cell_length_b       4.09862
_cell_length_c       9.94899
_cell_angle_alpha    90.0064
_cell_angle_beta     30.2286
_cell_angle_gamma    69.1507

_space_group_name_H-M_alt    "P 1"
_space_group_IT_number       1

loop_
  _space_group_symop_operation_xyz
  'x, y, z'

loop_
  _atom_site_type_symbol
  _atom_site_label
  _atom_site_symmetry_multiplicity
  _atom_site_fract_x
  _atom_site_fract_y
  _atom_site_fract_z
  _atom_site_occupancy
  P   P1        1.0  0.00036  0.00000  0.38900  1.0000
  P   P2        1.0  1.00000  0.00000  0.61100  1.0000
  Pd  Pd1       1.0  0.00000  0.50000  0.25000  1.0000
  Pd  Pd2       1.0  0.00000  0.50000  0.75000  1.0000
  Tb  Tb1       1.0  0.00000  0.00000  0.00000  1.0000
