data_image0
_chemical_formula_structural       As2Te2U2
_chemical_formula_sum              "As2 Te2 U2"
_cell_length_a       4.15237
_cell_length_b       4.15237
_cell_length_c       9.09483
_cell_angle_alpha    103.196
_cell_angle_beta     103.196
_cell_angle_gamma    90

_space_group_name_H-M_alt    "P 1"
_space_group_IT_number       1

loop_
  _space_group_symop_operation_xyz
  'x, y, z'

loop_
  _atom_site_type_symbol
  _atom_site_label
  _atom_site_symmetry_multiplicity
  _atom_site_fract_x
  _atom_site_fract_y
  _atom_site_fract_z
  _atom_site_occupancy
  As  As1       1.0  0.50000  0.00000  0.00000  1.0000
  As  As2       1.0  0.00000  0.50000  0.00000  1.0000
  Te  Te1       1.0  0.68600  0.68600  0.37200  1.0000
  Te  Te2       1.0  0.31400  0.31400  0.62800  1.0000
  U   U1        1.0  0.11800  0.11800  0.23700  1.0000
  U   U2        1.0  0.88200  0.88200  0.76300  1.0000
