data_image0
_chemical_formula_structural       Fe3Ga3U3
_chemical_formula_sum              "Fe3 Ga3 U3"
_cell_length_a       6.54949
_cell_length_b       6.54949
_cell_length_c       3.96371
_cell_angle_alpha    90
_cell_angle_beta     90
_cell_angle_gamma    119.99

_space_group_name_H-M_alt    "P 1"
_space_group_IT_number       1

loop_
  _space_group_symop_operation_xyz
  'x, y, z'

loop_
  _atom_site_type_symbol
  _atom_site_label
  _atom_site_symmetry_multiplicity
  _atom_site_fract_x
  _atom_site_fract_y
  _atom_site_fract_z
  _atom_site_occupancy
  Fe  Fe1       1.0  0.66700  0.33300  0.00000  1.0000
  Fe  Fe2       1.0  0.33300  0.66700  0.00000  1.0000
  Fe  Fe3       1.0  0.00005  0.00005  0.50000  1.0000
  Ga  Ga1       1.0  0.23700  0.00004  0.00000  1.0000
  Ga  Ga2       1.0  0.00004  0.23700  0.00000  1.0000
  Ga  Ga3       1.0  0.76300  0.76300  0.00000  1.0000
  U   U1        1.0  0.57700  0.99999  0.50000  1.0000
  U   U2        1.0  0.42300  0.42300  0.50000  1.0000
  U   U3        1.0  0.99999  0.57700  0.50000  1.0000
