data_image0
_chemical_formula_structural       HoP2Pd2
_chemical_formula_sum              "Ho1 P2 Pd2"
_cell_length_a       5.75034
_cell_length_b       4.07869
_cell_length_c       9.95045
_cell_angle_alpha    90.0066
_cell_angle_beta     30.1032
_cell_angle_gamma    69.2333

_space_group_name_H-M_alt    "P 1"
_space_group_IT_number       1

loop_
  _space_group_symop_operation_xyz
  'x, y, z'

loop_
  _atom_site_type_symbol
  _atom_site_label
  _atom_site_symmetry_multiplicity
  _atom_site_fract_x
  _atom_site_fract_y
  _atom_site_fract_z
  _atom_site_occupancy
  Ho  Ho1       1.0  0.00000  0.00000  0.00000  1.0000
  P   P1        1.0  0.00036  0.00000  0.39000  1.0000
  P   P2        1.0  0.00000  0.00000  0.61000  1.0000
  Pd  Pd1       1.0  0.00000  0.50000  0.25000  1.0000
  Pd  Pd2       1.0  0.00000  0.50000  0.75000  1.0000
