data_image0
_chemical_formula_structural       ErP2Pd2
_chemical_formula_sum              "Er1 P2 Pd2"
_cell_length_a       5.71337
_cell_length_b       4.09034
_cell_length_c       9.85517
_cell_angle_alpha    90.0127
_cell_angle_beta     30.4235
_cell_angle_gamma    69.0234

_space_group_name_H-M_alt    "P 1"
_space_group_IT_number       1

loop_
  _space_group_symop_operation_xyz
  'x, y, z'

loop_
  _atom_site_type_symbol
  _atom_site_label
  _atom_site_symmetry_multiplicity
  _atom_site_fract_x
  _atom_site_fract_y
  _atom_site_fract_z
  _atom_site_occupancy
  Er  Er1       1.0  0.00000  0.00000  0.00000  1.0000
  P   P1        1.0  0.00000  0.00000  0.38900  1.0000
  P   P2        1.0  0.00000  0.00000  0.61100  1.0000
  Pd  Pd1       1.0  0.00000  0.50000  0.25000  1.0000
  Pd  Pd2       1.0  0.00020  0.50000  0.75000  1.0000
