data_image0
_chemical_formula_structural       CeP2Pd2
_chemical_formula_sum              "Ce1 P2 Pd2"
_cell_length_a       5.8185
_cell_length_b       4.20727
_cell_length_c       10.0009
_cell_angle_alpha    90
_cell_angle_beta     30.7503
_cell_angle_gamma    68.8051

_space_group_name_H-M_alt    "P 1"
_space_group_IT_number       1

loop_
  _space_group_symop_operation_xyz
  'x, y, z'

loop_
  _atom_site_type_symbol
  _atom_site_label
  _atom_site_symmetry_multiplicity
  _atom_site_fract_x
  _atom_site_fract_y
  _atom_site_fract_z
  _atom_site_occupancy
  Ce  Ce1       1.0  0.00000  0.00000  0.00000  1.0000
  P   P1        1.0  0.00000  0.00000  0.38600  1.0000
  P   P2        1.0  0.00000  0.00000  0.61400  1.0000
  Pd  Pd1       1.0  0.00000  0.50000  0.25000  1.0000
  Pd  Pd2       1.0  1.00000  0.50000  0.75000  1.0000
