data_image0
_chemical_formula_structural       Co4Ge4U4
_chemical_formula_sum              "Co4 Ge4 U4"
_cell_length_a       6.69566
_cell_length_b       4.29387
_cell_length_c       7.06108
_cell_angle_alpha    90
_cell_angle_beta     90
_cell_angle_gamma    90

_space_group_name_H-M_alt    "P 1"
_space_group_IT_number       1

loop_
  _space_group_symop_operation_xyz
  'x, y, z'

loop_
  _atom_site_type_symbol
  _atom_site_label
  _atom_site_symmetry_multiplicity
  _atom_site_fract_x
  _atom_site_fract_y
  _atom_site_fract_z
  _atom_site_occupancy
  Co  Co1       1.0  0.78400  0.25000  0.06920  1.0000
  Co  Co2       1.0  0.28300  0.25000  0.43100  1.0000
  Co  Co3       1.0  0.71600  0.75000  0.56900  1.0000
  Co  Co4       1.0  0.21600  0.75000  0.93100  1.0000
  Ge  Ge1       1.0  0.18700  0.25000  0.09270  1.0000
  Ge  Ge2       1.0  0.68700  0.25000  0.40700  1.0000
  Ge  Ge3       1.0  0.31300  0.75000  0.59300  1.0000
  Ge  Ge4       1.0  0.81300  0.75000  0.90700  1.0000
  U   U1        1.0  0.48100  0.75000  0.20100  1.0000
  U   U2        1.0  0.98100  0.75000  0.29900  1.0000
  U   U3        1.0  0.01910  0.25000  0.70100  1.0000
  U   U4        1.0  0.51900  0.25000  0.79900  1.0000
