data_image0
_chemical_formula_structural       Ge4Rh4U4
_chemical_formula_sum              "Ge4 Rh4 U4"
_cell_length_a       6.51487
_cell_length_b       4.46934
_cell_length_c       7.62566
_cell_angle_alpha    90
_cell_angle_beta     90
_cell_angle_gamma    90

_space_group_name_H-M_alt    "P 1"
_space_group_IT_number       1

loop_
  _space_group_symop_operation_xyz
  'x, y, z'

loop_
  _atom_site_type_symbol
  _atom_site_label
  _atom_site_symmetry_multiplicity
  _atom_site_fract_x
  _atom_site_fract_y
  _atom_site_fract_z
  _atom_site_occupancy
  Ge  Ge1       1.0  0.69200  0.75000  0.08670  1.0000
  Ge  Ge2       1.0  0.19200  0.75000  0.41300  1.0000
  Ge  Ge3       1.0  0.80800  0.25000  0.58700  1.0000
  Ge  Ge4       1.0  0.30800  0.25000  0.91300  1.0000
  Rh  Rh1       1.0  0.27600  0.75000  0.07880  1.0000
  Rh  Rh2       1.0  0.77600  0.75000  0.42100  1.0000
  Rh  Rh3       1.0  0.22400  0.25000  0.57900  1.0000
  Rh  Rh4       1.0  0.72400  0.25000  0.92100  1.0000
  U   U1        1.0  0.98800  0.25000  0.20800  1.0000
  U   U2        1.0  0.48800  0.25000  0.29200  1.0000
  U   U3        1.0  0.51200  0.75000  0.70800  1.0000
  U   U4        1.0  0.01180  0.75000  0.79200  1.0000
