data_image0
_chemical_formula_structural       Al2HgTe4
_chemical_formula_sum              "Al2 Hg1 Te4"
_cell_length_a       6.23849
_cell_length_b       6.23849
_cell_length_c       7.46107
_cell_angle_alpha    114.713
_cell_angle_beta     114.713
_cell_angle_gamma    90

_space_group_name_H-M_alt    "P 1"
_space_group_IT_number       1

loop_
  _space_group_symop_operation_xyz
  'x, y, z'

loop_
  _atom_site_type_symbol
  _atom_site_label
  _atom_site_symmetry_multiplicity
  _atom_site_fract_x
  _atom_site_fract_y
  _atom_site_fract_z
  _atom_site_occupancy
  Al  Al1       1.0  0.50000  0.50000  0.00000  1.0000
  Al  Al2       1.0  0.25000  0.75000  0.50000  1.0000
  Hg  Hg1       1.0  0.00000  0.00000  0.00000  1.0000
  Te  Te1       1.0  0.41600  0.39300  0.27800  1.0000
  Te  Te2       1.0  0.86200  0.88500  0.27800  1.0000
  Te  Te3       1.0  0.60700  0.13800  0.72200  1.0000
  Te  Te4       1.0  0.11500  0.58400  0.72200  1.0000
