data_image0
_chemical_formula_structural       Hf2N2O2Rb2
_chemical_formula_sum              "Hf2 N2 O2 Rb2"
_cell_length_a       4.22766
_cell_length_b       4.22766
_cell_length_c       11.2123
_cell_angle_alpha    90
_cell_angle_beta     90
_cell_angle_gamma    90

_space_group_name_H-M_alt    "P 1"
_space_group_IT_number       1

loop_
  _space_group_symop_operation_xyz
  'x, y, z'

loop_
  _atom_site_type_symbol
  _atom_site_label
  _atom_site_symmetry_multiplicity
  _atom_site_fract_x
  _atom_site_fract_y
  _atom_site_fract_z
  _atom_site_occupancy
  Hf  Hf1       1.0  0.75000  0.25000  0.50000  1.0000
  Hf  Hf2       1.0  0.25000  0.75000  0.50000  1.0000
  N   N1        1.0  0.75000  0.75000  0.46700  1.0000
  N   N2        1.0  0.25000  0.25000  0.53300  1.0000
  O   O1        1.0  0.75000  0.25000  0.00000  1.0000
  O   O2        1.0  0.25000  0.75000  0.00000  1.0000
  Rb  Rb1       1.0  0.25000  0.25000  0.14400  1.0000
  Rb  Rb2       1.0  0.75000  0.75000  0.85600  1.0000
