data_image0
_chemical_formula_structural       Ge5Tb
_chemical_formula_sum              "Ge5 Tb1"
_cell_length_a       3.98799
_cell_length_b       6.14611
_cell_length_c       6.15858
_cell_angle_alpha    119.933
_cell_angle_beta     108.891
_cell_angle_gamma    90

_space_group_name_H-M_alt    "P 1"
_space_group_IT_number       1

loop_
  _space_group_symop_operation_xyz
  'x, y, z'

loop_
  _atom_site_type_symbol
  _atom_site_label
  _atom_site_symmetry_multiplicity
  _atom_site_fract_x
  _atom_site_fract_y
  _atom_site_fract_z
  _atom_site_occupancy
  Ge  Ge1       1.0  0.00000  0.50000  0.00000  1.0000
  Ge  Ge2       1.0  0.66800  0.45800  0.33500  1.0000
  Ge  Ge3       1.0  0.66800  0.87700  0.33500  1.0000
  Ge  Ge4       1.0  0.33200  0.12300  0.66500  1.0000
  Ge  Ge5       1.0  0.33200  0.54200  0.66500  1.0000
  Tb  Tb1       1.0  0.00000  0.00000  0.00000  1.0000
