data_image0
_chemical_formula_structural       CdH2O6Ti2
_chemical_formula_sum              "Cd1 H2 O6 Ti2"
_cell_length_a       4.95817
_cell_length_b       4.95817
_cell_length_c       5.02894
_cell_angle_alpha    90
_cell_angle_beta     90
_cell_angle_gamma    60

_space_group_name_H-M_alt    "P 1"
_space_group_IT_number       1

loop_
  _space_group_symop_operation_xyz
  'x, y, z'

loop_
  _atom_site_type_symbol
  _atom_site_label
  _atom_site_symmetry_multiplicity
  _atom_site_fract_x
  _atom_site_fract_y
  _atom_site_fract_z
  _atom_site_occupancy
  Cd  Cd1       1.0  0.00000  0.00000  0.00000  1.0000
  H   H1        1.0  0.66700  0.66700  0.19500  1.0000
  H   H2        1.0  0.33300  0.33300  0.80500  1.0000
  O   O1        1.0  0.63800  0.39900  0.26400  1.0000
  O   O2        1.0  0.96300  0.63800  0.26400  1.0000
  O   O3        1.0  0.39900  0.96300  0.26400  1.0000
  O   O4        1.0  0.60100  0.03670  0.73600  1.0000
  O   O5        1.0  0.03670  0.36200  0.73600  1.0000
  O   O6        1.0  0.36200  0.60100  0.73600  1.0000
  Ti  Ti1       1.0  0.33300  0.33300  0.41400  1.0000
  Ti  Ti2       1.0  0.66700  0.66700  0.58600  1.0000
