data_image0
_chemical_formula_structural       H24Mn2O28Se4Tl4
_chemical_formula_sum              "H24 Mn2 O28 Se4 Tl4"
_cell_length_a       9.29917
_cell_length_b       12.4116
_cell_length_c       6.18203
_cell_angle_alpha    90
_cell_angle_beta     105.384
_cell_angle_gamma    90

_space_group_name_H-M_alt    "P 1"
_space_group_IT_number       1

loop_
  _space_group_symop_operation_xyz
  'x, y, z'

loop_
  _atom_site_type_symbol
  _atom_site_label
  _atom_site_symmetry_multiplicity
  _atom_site_fract_x
  _atom_site_fract_y
  _atom_site_fract_z
  _atom_site_occupancy
  H   H1        1.0  0.85000  0.19300  0.00092  1.0000
  H   H2        1.0  0.35000  0.30700  0.00092  1.0000
  H   H3        1.0  0.77300  0.59900  0.06540  1.0000
  H   H4        1.0  0.27300  0.90100  0.06540  1.0000
  H   H5        1.0  0.24900  0.13000  0.08930  1.0000
  H   H6        1.0  0.74900  0.37000  0.08930  1.0000
  H   H7        1.0  0.22000  0.09040  0.32100  1.0000
  H   H8        1.0  0.72000  0.41000  0.32100  1.0000
  H   H9        1.0  0.02450  0.85400  0.34700  1.0000
  H   H10       1.0  0.52500  0.64600  0.34700  1.0000
  H   H11       1.0  0.90600  0.94500  0.36100  1.0000
  H   H12       1.0  0.40600  0.55500  0.36100  1.0000
  H   H13       1.0  0.59400  0.44500  0.63900  1.0000
  H   H14       1.0  0.09390  0.05530  0.63900  1.0000
  H   H15       1.0  0.97500  0.14600  0.65300  1.0000
  H   H16       1.0  0.47500  0.35400  0.65300  1.0000
  H   H17       1.0  0.28000  0.59000  0.67900  1.0000
  H   H18       1.0  0.78000  0.91000  0.67900  1.0000
  H   H19       1.0  0.25100  0.63000  0.91100  1.0000
  H   H20       1.0  0.75100  0.87000  0.91100  1.0000
  H   H21       1.0  0.72700  0.09920  0.93500  1.0000
  H   H22       1.0  0.22700  0.40100  0.93500  1.0000
  H   H23       1.0  0.65000  0.69300  0.99900  1.0000
  H   H24       1.0  0.15000  0.80700  0.99900  1.0000
  Mn  Mn1       1.0  0.00000  0.00000  0.00000  1.0000
  Mn  Mn2       1.0  0.50000  0.50000  0.00000  1.0000
  O   O1        1.0  0.11900  0.67600  0.02830  1.0000
  O   O2        1.0  0.61900  0.82400  0.02830  1.0000
  O   O3        1.0  0.32800  0.38300  0.03560  1.0000
  O   O4        1.0  0.82800  0.11700  0.03560  1.0000
  O   O5        1.0  0.16900  0.11600  0.16700  1.0000
  O   O6        1.0  0.66900  0.38400  0.16700  1.0000
  O   O7        1.0  0.93400  0.55700  0.21800  1.0000
  O   O8        1.0  0.43400  0.94300  0.21800  1.0000
  O   O9        1.0  0.49900  0.56800  0.31500  1.0000
  O   O10       1.0  0.99900  0.93200  0.31500  1.0000
  O   O11       1.0  0.73200  0.94800  0.40600  1.0000
  O   O12       1.0  0.23200  0.55200  0.40600  1.0000
  O   O13       1.0  0.57900  0.76600  0.43500  1.0000
  O   O14       1.0  0.07900  0.73400  0.43500  1.0000
  O   O15       1.0  0.92100  0.26600  0.56500  1.0000
  O   O16       1.0  0.42100  0.23400  0.56500  1.0000
  O   O17       1.0  0.76800  0.44800  0.59400  1.0000
  O   O18       1.0  0.26800  0.05210  0.59400  1.0000
  O   O19       1.0  0.50100  0.43200  0.68500  1.0000
  O   O20       1.0  0.00088  0.06810  0.68500  1.0000
  O   O21       1.0  0.56600  0.05690  0.78200  1.0000
  O   O22       1.0  0.06620  0.44300  0.78200  1.0000
  O   O23       1.0  0.33100  0.61600  0.83300  1.0000
  O   O24       1.0  0.83100  0.88400  0.83300  1.0000
  O   O25       1.0  0.17200  0.88300  0.96400  1.0000
  O   O26       1.0  0.67200  0.61700  0.96400  1.0000
  O   O27       1.0  0.38100  0.17600  0.97200  1.0000
  O   O28       1.0  0.88100  0.32400  0.97200  1.0000
  Se  Se1       1.0  0.08910  0.63000  0.26800  1.0000
  Se  Se2       1.0  0.58900  0.87000  0.26800  1.0000
  Se  Se3       1.0  0.91100  0.37000  0.73200  1.0000
  Se  Se4       1.0  0.41100  0.13000  0.73200  1.0000
  Tl  Tl1       1.0  0.64200  0.16300  0.35000  1.0000
  Tl  Tl2       1.0  0.14200  0.33700  0.35000  1.0000
  Tl  Tl3       1.0  0.85800  0.66300  0.65000  1.0000
  Tl  Tl4       1.0  0.35800  0.83700  0.65000  1.0000
