data_image0
_chemical_formula_structural       Li16S16Si4
_chemical_formula_sum              "Li16 S16 Si4"
_cell_length_a       9.31522
_cell_length_b       4.89529
_cell_length_c       13.3562
_cell_angle_alpha    90
_cell_angle_beta     90
_cell_angle_gamma    90

_space_group_name_H-M_alt    "P 1"
_space_group_IT_number       1

loop_
  _space_group_symop_operation_xyz
  'x, y, z'

loop_
  _atom_site_type_symbol
  _atom_site_label
  _atom_site_symmetry_multiplicity
  _atom_site_fract_x
  _atom_site_fract_y
  _atom_site_fract_z
  _atom_site_occupancy
  Li  Li1       1.0  0.04760  0.50000  0.02680  1.0000
  Li  Li2       1.0  0.41100  0.00000  0.12300  1.0000
  Li  Li3       1.0  0.11900  0.00000  0.17200  1.0000
  Li  Li4       1.0  0.82200  0.50000  0.17500  1.0000
  Li  Li5       1.0  0.32200  0.50000  0.32500  1.0000
  Li  Li6       1.0  0.61900  0.00000  0.32800  1.0000
  Li  Li7       1.0  0.91100  0.00000  0.37700  1.0000
  Li  Li8       1.0  0.54800  0.50000  0.47300  1.0000
  Li  Li9       1.0  0.45200  0.00000  0.52700  1.0000
  Li  Li10      1.0  0.08870  0.50000  0.62300  1.0000
  Li  Li11      1.0  0.38100  0.50000  0.67200  1.0000
  Li  Li12      1.0  0.67800  0.00000  0.67500  1.0000
  Li  Li13      1.0  0.17800  0.00000  0.82500  1.0000
  Li  Li14      1.0  0.88100  0.50000  0.82800  1.0000
  Li  Li15      1.0  0.58900  0.50000  0.87700  1.0000
  Li  Li16      1.0  0.95200  0.00000  0.97300  1.0000
  S   S1        1.0  0.77800  0.50000  0.00176  1.0000
  S   S2        1.0  0.35100  0.50000  0.12800  1.0000
  S   S3        1.0  0.86000  0.00000  0.15700  1.0000
  S   S4        1.0  0.14500  0.50000  0.19500  1.0000
  S   S5        1.0  0.64500  0.50000  0.30500  1.0000
  S   S6        1.0  0.36000  0.00000  0.34300  1.0000
  S   S7        1.0  0.85100  0.50000  0.37200  1.0000
  S   S8        1.0  0.27800  0.50000  0.49800  1.0000
  S   S9        1.0  0.72200  0.00000  0.50200  1.0000
  S   S10       1.0  0.14900  0.00000  0.62800  1.0000
  S   S11       1.0  0.64000  0.50000  0.65700  1.0000
  S   S12       1.0  0.35500  0.00000  0.69500  1.0000
  S   S13       1.0  0.85500  0.00000  0.80500  1.0000
  S   S14       1.0  0.14000  0.50000  0.84300  1.0000
  S   S15       1.0  0.64900  0.00000  0.87200  1.0000
  S   S16       1.0  0.22200  0.00000  0.99800  1.0000
  Si  Si1       1.0  0.67600  0.00000  0.05070  1.0000
  Si  Si2       1.0  0.17600  0.00000  0.44900  1.0000
  Si  Si3       1.0  0.82400  0.50000  0.55100  1.0000
  Si  Si4       1.0  0.32400  0.50000  0.94900  1.0000
