data_image0
_chemical_formula_structural       Sb2SnTe4
_chemical_formula_sum              "Sb2 Sn1 Te4"
_cell_length_a       4.38248
_cell_length_b       4.38249
_cell_length_c       14.1718
_cell_angle_alpha    81.1052
_cell_angle_beta     98.8948
_cell_angle_gamma    120

_space_group_name_H-M_alt    "P 1"
_space_group_IT_number       1

loop_
  _space_group_symop_operation_xyz
  'x, y, z'

loop_
  _atom_site_type_symbol
  _atom_site_label
  _atom_site_symmetry_multiplicity
  _atom_site_fract_x
  _atom_site_fract_y
  _atom_site_fract_z
  _atom_site_occupancy
  Sb  Sb1       1.0  0.42600  0.57400  0.27900  1.0000
  Sb  Sb2       1.0  0.57400  0.42600  0.72100  1.0000
  Sn  Sn1       1.0  0.00000  0.00000  0.00000  1.0000
  Te  Te1       1.0  0.71200  0.28800  0.13700  1.0000
  Te  Te2       1.0  0.13300  0.86700  0.39900  1.0000
  Te  Te3       1.0  0.86700  0.13300  0.60100  1.0000
  Te  Te4       1.0  0.28800  0.71200  0.86300  1.0000
