data_image0
_chemical_formula_structural       Al2La2Si4
_chemical_formula_sum              "Al2 La2 Si4"
_cell_length_a       4.18447
_cell_length_b       4.1845
_cell_length_c       11.4118
_cell_angle_alpha    90
_cell_angle_beta     90.0016
_cell_angle_gamma    120

_space_group_name_H-M_alt    "P 1"
_space_group_IT_number       1

loop_
  _space_group_symop_operation_xyz
  'x, y, z'

loop_
  _atom_site_type_symbol
  _atom_site_label
  _atom_site_symmetry_multiplicity
  _atom_site_fract_x
  _atom_site_fract_y
  _atom_site_fract_z
  _atom_site_occupancy
  Al  Al1       1.0  0.66700  0.33300  0.41700  1.0000
  Al  Al2       1.0  0.33300  0.66700  0.58300  1.0000
  La  La1       1.0  0.00000  0.00000  0.18400  1.0000
  La  La2       1.0  0.00000  0.00000  0.81600  1.0000
  Si  Si1       1.0  0.66700  0.33300  0.00607  1.0000
  Si  Si2       1.0  0.33300  0.66700  0.35800  1.0000
  Si  Si3       1.0  0.66700  0.33300  0.64200  1.0000
  Si  Si4       1.0  0.33300  0.66700  0.99400  1.0000
