data_image0
_chemical_formula_structural       As4Cs12P12Se36
_chemical_formula_sum              "As4 Cs12 P12 Se36"
_cell_length_a       20.2319
_cell_length_b       8.26047
_cell_length_c       13.4773
_cell_angle_alpha    90
_cell_angle_beta     102.062
_cell_angle_gamma    90

_space_group_name_H-M_alt    "P 1"
_space_group_IT_number       1

loop_
  _space_group_symop_operation_xyz
  'x, y, z'

loop_
  _atom_site_type_symbol
  _atom_site_label
  _atom_site_symmetry_multiplicity
  _atom_site_fract_x
  _atom_site_fract_y
  _atom_site_fract_z
  _atom_site_occupancy
  As  As1       1.0  0.17600  0.00048  0.05990  1.0000
  As  As2       1.0  0.82400  0.50000  0.44000  1.0000
  As  As3       1.0  0.17600  0.50000  0.56000  1.0000
  As  As4       1.0  0.82400  0.00000  0.94000  1.0000
  Cs  Cs1       1.0  0.73700  0.52900  0.08200  1.0000
  Cs  Cs2       1.0  0.56500  0.02150  0.18700  1.0000
  Cs  Cs3       1.0  0.07520  0.53400  0.19600  1.0000
  Cs  Cs4       1.0  0.92500  0.03440  0.30400  1.0000
  Cs  Cs5       1.0  0.43500  0.52100  0.31300  1.0000
  Cs  Cs6       1.0  0.26300  0.02930  0.41800  1.0000
  Cs  Cs7       1.0  0.73700  0.97100  0.58200  1.0000
  Cs  Cs8       1.0  0.56500  0.47900  0.68700  1.0000
  Cs  Cs9       1.0  0.07520  0.96600  0.69600  1.0000
  Cs  Cs10      1.0  0.92500  0.46600  0.80400  1.0000
  Cs  Cs11      1.0  0.43500  0.97900  0.81300  1.0000
  Cs  Cs12      1.0  0.26300  0.47100  0.91800  1.0000
  P   P1        1.0  0.02000  0.11400  0.04400  1.0000
  P   P2        1.0  0.32400  0.87800  0.06750  1.0000
  P   P3        1.0  0.35800  0.11200  0.15400  1.0000
  P   P4        1.0  0.64200  0.61200  0.34600  1.0000
  P   P5        1.0  0.67600  0.37800  0.43300  1.0000
  P   P6        1.0  0.98000  0.61400  0.45600  1.0000
  P   P7        1.0  0.02000  0.38600  0.54400  1.0000
  P   P8        1.0  0.32400  0.62200  0.56700  1.0000
  P   P9        1.0  0.35800  0.38800  0.65400  1.0000
  P   P10       1.0  0.64200  0.88800  0.84600  1.0000
  P   P11       1.0  0.67600  0.12200  0.93300  1.0000
  P   P12       1.0  0.98000  0.88600  0.95600  1.0000
  Se  Se1       1.0  0.40900  0.73900  0.04720  1.0000
  Se  Se2       1.0  0.91300  0.77300  0.04820  1.0000
  Se  Se3       1.0  0.93300  0.26000  0.05760  1.0000
  Se  Se4       1.0  0.41000  0.25600  0.06160  1.0000
  Se  Se5       1.0  0.74700  0.03370  0.07480  1.0000
  Se  Se6       1.0  0.25200  0.21900  0.15600  1.0000
  Se  Se7       1.0  0.25500  0.76200  0.15700  1.0000
  Se  Se8       1.0  0.08190  0.02700  0.19000  1.0000
  Se  Se9       1.0  0.58800  0.54500  0.19600  1.0000
  Se  Se10      1.0  0.41200  0.04450  0.30400  1.0000
  Se  Se11      1.0  0.91800  0.52700  0.31000  1.0000
  Se  Se12      1.0  0.74500  0.26200  0.34300  1.0000
  Se  Se13      1.0  0.74800  0.71900  0.34400  1.0000
  Se  Se14      1.0  0.25300  0.53400  0.42500  1.0000
  Se  Se15      1.0  0.59000  0.75600  0.43800  1.0000
  Se  Se16      1.0  0.06730  0.76000  0.44200  1.0000
  Se  Se17      1.0  0.08710  0.27300  0.45200  1.0000
  Se  Se18      1.0  0.59100  0.23900  0.45300  1.0000
  Se  Se19      1.0  0.40900  0.76100  0.54700  1.0000
  Se  Se20      1.0  0.91300  0.72700  0.54800  1.0000
  Se  Se21      1.0  0.93300  0.24000  0.55800  1.0000
  Se  Se22      1.0  0.41000  0.24400  0.56200  1.0000
  Se  Se23      1.0  0.74700  0.46600  0.57500  1.0000
  Se  Se24      1.0  0.25200  0.28100  0.65600  1.0000
  Se  Se25      1.0  0.25500  0.73800  0.65700  1.0000
  Se  Se26      1.0  0.08190  0.47300  0.69000  1.0000
  Se  Se27      1.0  0.58800  0.95500  0.69600  1.0000
  Se  Se28      1.0  0.41200  0.45500  0.80400  1.0000
  Se  Se29      1.0  0.91800  0.97300  0.81000  1.0000
  Se  Se30      1.0  0.74500  0.23800  0.84300  1.0000
  Se  Se31      1.0  0.74800  0.78100  0.84400  1.0000
  Se  Se32      1.0  0.25300  0.96600  0.92500  1.0000
  Se  Se33      1.0  0.59000  0.74400  0.93800  1.0000
  Se  Se34      1.0  0.06730  0.74000  0.94200  1.0000
  Se  Se35      1.0  0.08710  0.22700  0.95200  1.0000
  Se  Se36      1.0  0.59100  0.26100  0.95300  1.0000
