data_image0
_chemical_formula_structural       H8Mg2N4O16
_chemical_formula_sum              "H8 Mg2 N4 O16"
_cell_length_a       5.56913
_cell_length_b       5.7055
_cell_length_c       8.37833
_cell_angle_alpha    90
_cell_angle_beta     91.0774
_cell_angle_gamma    90

_space_group_name_H-M_alt    "P 1"
_space_group_IT_number       1

loop_
  _space_group_symop_operation_xyz
  'x, y, z'

loop_
  _atom_site_type_symbol
  _atom_site_label
  _atom_site_symmetry_multiplicity
  _atom_site_fract_x
  _atom_site_fract_y
  _atom_site_fract_z
  _atom_site_occupancy
  H   H1        1.0  0.58300  0.28500  0.01760  1.0000
  H   H2        1.0  0.27000  0.82500  0.11500  1.0000
  H   H3        1.0  0.73000  0.32500  0.38500  1.0000
  H   H4        1.0  0.41700  0.78500  0.48200  1.0000
  H   H5        1.0  0.58300  0.21500  0.51800  1.0000
  H   H6        1.0  0.27000  0.67500  0.61500  1.0000
  H   H7        1.0  0.73000  0.17500  0.88500  1.0000
  H   H8        1.0  0.41700  0.71500  0.98200  1.0000
  Mg  Mg1       1.0  0.00000  0.50000  0.00000  1.0000
  Mg  Mg2       1.0  0.00000  0.00000  0.50000  1.0000
  N   N1        1.0  0.74400  0.84400  0.19900  1.0000
  N   N2        1.0  0.25600  0.34400  0.30100  1.0000
  N   N3        1.0  0.74400  0.65600  0.69900  1.0000
  N   N4        1.0  0.25600  0.15600  0.80100  1.0000
  O   O1        1.0  0.25100  0.75600  0.00905  1.0000
  O   O2        1.0  0.73800  0.73000  0.06780  1.0000
  O   O3        1.0  0.05250  0.37600  0.23300  1.0000
  O   O4        1.0  0.44500  0.42000  0.24400  1.0000
  O   O5        1.0  0.55500  0.92000  0.25600  1.0000
  O   O6        1.0  0.94700  0.87600  0.26700  1.0000
  O   O7        1.0  0.26200  0.23000  0.43200  1.0000
  O   O8        1.0  0.74900  0.25600  0.49100  1.0000
  O   O9        1.0  0.25100  0.74400  0.50900  1.0000
  O   O10       1.0  0.73800  0.77000  0.56800  1.0000
  O   O11       1.0  0.05250  0.12400  0.73300  1.0000
  O   O12       1.0  0.44500  0.07970  0.74400  1.0000
  O   O13       1.0  0.55500  0.58000  0.75600  1.0000
  O   O14       1.0  0.94700  0.62400  0.76700  1.0000
  O   O15       1.0  0.26200  0.27000  0.93200  1.0000
  O   O16       1.0  0.74900  0.24400  0.99100  1.0000
