data_image0
_chemical_formula_structural       F40Fe8H8O4Sr8
_chemical_formula_sum              "F40 Fe8 H8 O4 Sr8"
_cell_length_a       7.7459
_cell_length_b       10.3814
_cell_length_c       10.5234
_cell_angle_alpha    90
_cell_angle_beta     90
_cell_angle_gamma    68.0951

_space_group_name_H-M_alt    "P 1"
_space_group_IT_number       1

loop_
  _space_group_symop_operation_xyz
  'x, y, z'

loop_
  _atom_site_type_symbol
  _atom_site_label
  _atom_site_symmetry_multiplicity
  _atom_site_fract_x
  _atom_site_fract_y
  _atom_site_fract_z
  _atom_site_occupancy
  F   F1        1.0  0.56800  0.37600  0.07560  1.0000
  F   F2        1.0  0.05590  0.37600  0.07560  1.0000
  F   F3        1.0  0.72000  0.56100  0.09960  1.0000
  F   F4        1.0  0.19700  0.60600  0.12000  1.0000
  F   F5        1.0  0.68000  0.06700  0.12100  1.0000
  F   F6        1.0  0.25300  0.06700  0.12100  1.0000
  F   F7        1.0  0.81300  0.78500  0.13100  1.0000
  F   F8        1.0  0.40200  0.78500  0.13100  1.0000
  F   F9        1.0  0.03010  0.94000  0.21500  1.0000
  F   F10       1.0  0.82600  0.34800  0.24600  1.0000
  F   F11       1.0  0.32600  0.34800  0.25400  1.0000
  F   F12       1.0  0.53000  0.94000  0.28500  1.0000
  F   F13       1.0  0.90200  0.78500  0.36900  1.0000
  F   F14       1.0  0.31300  0.78500  0.36900  1.0000
  F   F15       1.0  0.75300  0.06700  0.37900  1.0000
  F   F16       1.0  0.18000  0.06700  0.37900  1.0000
  F   F17       1.0  0.69700  0.60600  0.38000  1.0000
  F   F18       1.0  0.22000  0.56100  0.40000  1.0000
  F   F19       1.0  0.55600  0.37600  0.42400  1.0000
  F   F20       1.0  0.06820  0.37600  0.42400  1.0000
  F   F21       1.0  0.93200  0.62400  0.57600  1.0000
  F   F22       1.0  0.44400  0.62400  0.57600  1.0000
  F   F23       1.0  0.78000  0.43900  0.60000  1.0000
  F   F24       1.0  0.30300  0.39400  0.62000  1.0000
  F   F25       1.0  0.82000  0.93300  0.62100  1.0000
  F   F26       1.0  0.24700  0.93300  0.62100  1.0000
  F   F27       1.0  0.68700  0.21500  0.63100  1.0000
  F   F28       1.0  0.09750  0.21500  0.63100  1.0000
  F   F29       1.0  0.47000  0.06020  0.71500  1.0000
  F   F30       1.0  0.67400  0.65200  0.74600  1.0000
  F   F31       1.0  0.17400  0.65200  0.75400  1.0000
  F   F32       1.0  0.97000  0.06020  0.78500  1.0000
  F   F33       1.0  0.59800  0.21500  0.86900  1.0000
  F   F34       1.0  0.18700  0.21500  0.86900  1.0000
  F   F35       1.0  0.74700  0.93300  0.87900  1.0000
  F   F36       1.0  0.32000  0.93300  0.87900  1.0000
  F   F37       1.0  0.80300  0.39400  0.88000  1.0000
  F   F38       1.0  0.28000  0.43900  0.90000  1.0000
  F   F39       1.0  0.94400  0.62400  0.92400  1.0000
  F   F40       1.0  0.43200  0.62400  0.92400  1.0000
  Fe  Fe1       1.0  0.82100  0.35900  0.05890  1.0000
  Fe  Fe2       1.0  0.78600  0.92800  0.25000  1.0000
  Fe  Fe3       1.0  0.28600  0.92800  0.25000  1.0000
  Fe  Fe4       1.0  0.32100  0.35900  0.44100  1.0000
  Fe  Fe5       1.0  0.67900  0.64100  0.55900  1.0000
  Fe  Fe6       1.0  0.71400  0.07180  0.75000  1.0000
  Fe  Fe7       1.0  0.21400  0.07180  0.75000  1.0000
  Fe  Fe8       1.0  0.17900  0.64100  0.94100  1.0000
  H   H1        1.0  0.83800  0.11100  0.07100  1.0000
  H   H2        1.0  0.05100  0.11100  0.07100  1.0000
  H   H3        1.0  0.55100  0.11100  0.42900  1.0000
  H   H4        1.0  0.33800  0.11100  0.42900  1.0000
  H   H5        1.0  0.66200  0.88900  0.57100  1.0000
  H   H6        1.0  0.44900  0.88900  0.57100  1.0000
  H   H7        1.0  0.94900  0.88900  0.92900  1.0000
  H   H8        1.0  0.16200  0.88900  0.92900  1.0000
  O   O1        1.0  0.92200  0.15700  0.03680  1.0000
  O   O2        1.0  0.42200  0.15700  0.46300  1.0000
  O   O3        1.0  0.57800  0.84300  0.53700  1.0000
  O   O4        1.0  0.07840  0.84300  0.96300  1.0000
  Sr  Sr1       1.0  0.38300  0.23500  0.04640  1.0000
  Sr  Sr2       1.0  0.97300  0.55400  0.25000  1.0000
  Sr  Sr3       1.0  0.47300  0.55400  0.25000  1.0000
  Sr  Sr4       1.0  0.88300  0.23500  0.45400  1.0000
  Sr  Sr5       1.0  0.11700  0.76500  0.54600  1.0000
  Sr  Sr6       1.0  0.52700  0.44600  0.75000  1.0000
  Sr  Sr7       1.0  0.02700  0.44600  0.75000  1.0000
  Sr  Sr8       1.0  0.61700  0.76500  0.95400  1.0000
