data_image0
_chemical_formula_structural       Ba10O42Si16
_chemical_formula_sum              "Ba10 O42 Si16"
_cell_length_a       4.66933
_cell_length_b       13.8816
_cell_length_c       16.4938
_cell_angle_alpha    97.9522
_cell_angle_beta     98.1374
_cell_angle_gamma    90

_space_group_name_H-M_alt    "P 1"
_space_group_IT_number       1

loop_
  _space_group_symop_operation_xyz
  'x, y, z'

loop_
  _atom_site_type_symbol
  _atom_site_label
  _atom_site_symmetry_multiplicity
  _atom_site_fract_x
  _atom_site_fract_y
  _atom_site_fract_z
  _atom_site_occupancy
  Ba  Ba1       1.0  0.00000  0.00000  0.00000  1.0000
  Ba  Ba2       1.0  0.00000  0.50000  0.00000  1.0000
  Ba  Ba3       1.0  0.59900  0.44700  0.22400  1.0000
  Ba  Ba4       1.0  0.62500  0.94700  0.22400  1.0000
  Ba  Ba5       1.0  0.23200  0.88400  0.43600  1.0000
  Ba  Ba6       1.0  0.20400  0.38400  0.43600  1.0000
  Ba  Ba7       1.0  0.79600  0.61600  0.56400  1.0000
  Ba  Ba8       1.0  0.76800  0.11600  0.56400  1.0000
  Ba  Ba9       1.0  0.37500  0.05340  0.77600  1.0000
  Ba  Ba10      1.0  0.40100  0.55300  0.77600  1.0000
  O   O1        1.0  0.96300  0.25000  0.00000  1.0000
  O   O2        1.0  0.03690  0.75000  0.00000  1.0000
  O   O3        1.0  0.54300  0.06320  0.08450  1.0000
  O   O4        1.0  0.54200  0.56300  0.08450  1.0000
  O   O5        1.0  0.64400  0.26300  0.12200  1.0000
  O   O6        1.0  0.47800  0.76300  0.12200  1.0000
  O   O7        1.0  0.07390  0.38900  0.13100  1.0000
  O   O8        1.0  0.05690  0.88900  0.13100  1.0000
  O   O9        1.0  0.15300  0.19000  0.13900  1.0000
  O   O10       1.0  0.98600  0.69000  0.13900  1.0000
  O   O11       1.0  0.61300  0.14700  0.23900  1.0000
  O   O12       1.0  0.62600  0.64700  0.23900  1.0000
  O   O13       1.0  0.17400  0.50700  0.31800  1.0000
  O   O14       1.0  0.14400  0.00666  0.31800  1.0000
  O   O15       1.0  0.68800  0.32300  0.33500  1.0000
  O   O16       1.0  0.64700  0.82300  0.33500  1.0000
  O   O17       1.0  0.28900  0.20000  0.35900  1.0000
  O   O18       1.0  0.06990  0.70000  0.35900  1.0000
  O   O19       1.0  0.58600  0.64600  0.39300  1.0000
  O   O20       1.0  0.80800  0.14600  0.39300  1.0000
  O   O21       1.0  0.25200  0.08130  0.47900  1.0000
  O   O22       1.0  0.22700  0.58100  0.47900  1.0000
  O   O23       1.0  0.77300  0.41900  0.52100  1.0000
  O   O24       1.0  0.74800  0.91900  0.52100  1.0000
  O   O25       1.0  0.41400  0.35400  0.60700  1.0000
  O   O26       1.0  0.19200  0.85400  0.60700  1.0000
  O   O27       1.0  0.93000  0.30000  0.64100  1.0000
  O   O28       1.0  0.71100  0.80000  0.64100  1.0000
  O   O29       1.0  0.35300  0.17700  0.66500  1.0000
  O   O30       1.0  0.31200  0.67700  0.66500  1.0000
  O   O31       1.0  0.85600  0.99300  0.68200  1.0000
  O   O32       1.0  0.82600  0.49300  0.68200  1.0000
  O   O33       1.0  0.37400  0.35300  0.76100  1.0000
  O   O34       1.0  0.38700  0.85300  0.76100  1.0000
  O   O35       1.0  0.01380  0.31000  0.86100  1.0000
  O   O36       1.0  0.84700  0.81000  0.86100  1.0000
  O   O37       1.0  0.94300  0.11100  0.86900  1.0000
  O   O38       1.0  0.92600  0.61100  0.86900  1.0000
  O   O39       1.0  0.52200  0.23700  0.87800  1.0000
  O   O40       1.0  0.35600  0.73700  0.87800  1.0000
  O   O41       1.0  0.45800  0.43700  0.91500  1.0000
  O   O42       1.0  0.45700  0.93700  0.91500  1.0000
  Si  Si1       1.0  0.12600  0.77900  0.09940  1.0000
  Si  Si2       1.0  0.97300  0.27900  0.09940  1.0000
  Si  Si3       1.0  0.49700  0.16200  0.14200  1.0000
  Si  Si4       1.0  0.64500  0.66200  0.14200  1.0000
  Si  Si5       1.0  0.61000  0.21100  0.33000  1.0000
  Si  Si6       1.0  0.72000  0.71100  0.33000  1.0000
  Si  Si7       1.0  0.13900  0.10200  0.38600  1.0000
  Si  Si8       1.0  0.24800  0.60200  0.38600  1.0000
  Si  Si9       1.0  0.75200  0.39800  0.61400  1.0000
  Si  Si10      1.0  0.86100  0.89800  0.61400  1.0000
  Si  Si11      1.0  0.28000  0.28900  0.67000  1.0000
  Si  Si12      1.0  0.39000  0.78900  0.67000  1.0000
  Si  Si13      1.0  0.35500  0.33800  0.85800  1.0000
  Si  Si14      1.0  0.50300  0.83800  0.85800  1.0000
  Si  Si15      1.0  0.87400  0.22100  0.90100  1.0000
  Si  Si16      1.0  0.02680  0.72100  0.90100  1.0000
