data_image0
_chemical_formula_structural       Ba12C16N32Na8
_chemical_formula_sum              "Ba12 C16 N32 Na8"
_cell_length_a       6.26527
_cell_length_b       10.0255
_cell_length_c       17.7063
_cell_angle_alpha    90
_cell_angle_beta     110.361
_cell_angle_gamma    90

_space_group_name_H-M_alt    "P 1"
_space_group_IT_number       1

loop_
  _space_group_symop_operation_xyz
  'x, y, z'

loop_
  _atom_site_type_symbol
  _atom_site_label
  _atom_site_symmetry_multiplicity
  _atom_site_fract_x
  _atom_site_fract_y
  _atom_site_fract_z
  _atom_site_occupancy
  Ba  Ba1       1.0  0.76600  0.31200  0.00670  1.0000
  Ba  Ba2       1.0  0.89400  0.87300  0.14300  1.0000
  Ba  Ba3       1.0  0.41400  0.18100  0.15500  1.0000
  Ba  Ba4       1.0  0.58600  0.68100  0.34500  1.0000
  Ba  Ba5       1.0  0.10600  0.37300  0.35700  1.0000
  Ba  Ba6       1.0  0.23400  0.81200  0.49300  1.0000
  Ba  Ba7       1.0  0.76600  0.18800  0.50700  1.0000
  Ba  Ba8       1.0  0.89400  0.62700  0.64300  1.0000
  Ba  Ba9       1.0  0.41400  0.31900  0.65500  1.0000
  Ba  Ba10      1.0  0.58600  0.81900  0.84500  1.0000
  Ba  Ba11      1.0  0.10600  0.12700  0.85700  1.0000
  Ba  Ba12      1.0  0.23400  0.68800  0.99300  1.0000
  C   C1        1.0  0.00000  0.00000  0.00000  1.0000
  C   C2        1.0  0.50000  0.00000  0.00000  1.0000
  C   C3        1.0  0.25700  0.39600  0.00247  1.0000
  C   C4        1.0  0.43900  0.82700  0.19100  1.0000
  C   C5        1.0  0.95600  0.22300  0.20100  1.0000
  C   C6        1.0  0.04430  0.72300  0.29900  1.0000
  C   C7        1.0  0.56100  0.32700  0.30900  1.0000
  C   C8        1.0  0.74300  0.89600  0.49800  1.0000
  C   C9        1.0  0.50000  0.50000  0.50000  1.0000
  C   C10       1.0  0.00000  0.50000  0.50000  1.0000
  C   C11       1.0  0.25700  0.10400  0.50200  1.0000
  C   C12       1.0  0.43900  0.67300  0.69100  1.0000
  C   C13       1.0  0.95600  0.27700  0.70100  1.0000
  C   C14       1.0  0.04430  0.77700  0.79900  1.0000
  C   C15       1.0  0.56100  0.17300  0.80900  1.0000
  C   C16       1.0  0.74300  0.60400  0.99800  1.0000
  N   N1        1.0  0.06510  0.11700  0.01240  1.0000
  N   N2        1.0  0.60600  0.07920  0.05350  1.0000
  N   N3        1.0  0.73000  0.62200  0.06500  1.0000
  N   N4        1.0  0.24200  0.42000  0.06940  1.0000
  N   N5        1.0  0.32800  0.72500  0.16200  1.0000
  N   N6        1.0  0.84800  0.32800  0.17600  1.0000
  N   N7        1.0  0.55400  0.92500  0.22400  1.0000
  N   N8        1.0  0.06620  0.12100  0.22800  1.0000
  N   N9        1.0  0.93400  0.62100  0.27200  1.0000
  N   N10       1.0  0.44600  0.42500  0.27600  1.0000
  N   N11       1.0  0.15200  0.82800  0.32400  1.0000
  N   N12       1.0  0.67200  0.22500  0.33800  1.0000
  N   N13       1.0  0.75800  0.92000  0.43100  1.0000
  N   N14       1.0  0.27000  0.12200  0.43500  1.0000
  N   N15       1.0  0.39400  0.57900  0.44600  1.0000
  N   N16       1.0  0.93500  0.61700  0.48800  1.0000
  N   N17       1.0  0.06510  0.38300  0.51200  1.0000
  N   N18       1.0  0.60600  0.42100  0.55400  1.0000
  N   N19       1.0  0.73000  0.87800  0.56500  1.0000
  N   N20       1.0  0.24200  0.08000  0.56900  1.0000
  N   N21       1.0  0.32800  0.77500  0.66200  1.0000
  N   N22       1.0  0.84800  0.17200  0.67600  1.0000
  N   N23       1.0  0.55400  0.57500  0.72400  1.0000
  N   N24       1.0  0.06620  0.37900  0.72800  1.0000
  N   N25       1.0  0.93400  0.87900  0.77200  1.0000
  N   N26       1.0  0.44600  0.07470  0.77600  1.0000
  N   N27       1.0  0.15200  0.67200  0.82400  1.0000
  N   N28       1.0  0.67200  0.27500  0.83800  1.0000
  N   N29       1.0  0.75800  0.58000  0.93100  1.0000
  N   N30       1.0  0.27000  0.37800  0.93500  1.0000
  N   N31       1.0  0.39400  0.92100  0.94600  1.0000
  N   N32       1.0  0.93500  0.88300  0.98800  1.0000
  Na  Na1       1.0  0.61000  0.52200  0.16900  1.0000
  Na  Na2       1.0  0.10700  0.52400  0.17000  1.0000
  Na  Na3       1.0  0.89300  0.02360  0.33000  1.0000
  Na  Na4       1.0  0.39000  0.02170  0.33100  1.0000
  Na  Na5       1.0  0.61000  0.97800  0.66900  1.0000
  Na  Na6       1.0  0.10700  0.97600  0.67000  1.0000
  Na  Na7       1.0  0.89300  0.47600  0.83000  1.0000
  Na  Na8       1.0  0.39000  0.47800  0.83100  1.0000
