data_image0
_chemical_formula_structural       O2S2Sc2Tl2
_chemical_formula_sum              "O2 S2 Sc2 Tl2"
_cell_length_a       4.04246
_cell_length_b       7.95085
_cell_length_c       6.28768
_cell_angle_alpha    90
_cell_angle_beta     90
_cell_angle_gamma    90

_space_group_name_H-M_alt    "P 1"
_space_group_IT_number       1

loop_
  _space_group_symop_operation_xyz
  'x, y, z'

loop_
  _atom_site_type_symbol
  _atom_site_label
  _atom_site_symmetry_multiplicity
  _atom_site_fract_x
  _atom_site_fract_y
  _atom_site_fract_z
  _atom_site_occupancy
  O   O1        1.0  0.50000  0.07260  0.23400  1.0000
  O   O2        1.0  0.50000  0.92700  0.73400  1.0000
  S   S1        1.0  0.00000  0.70800  0.10600  1.0000
  S   S2        1.0  0.00000  0.29200  0.60600  1.0000
  Sc  Sc1       1.0  0.50000  0.88100  0.04020  1.0000
  Sc  Sc2       1.0  0.50000  0.11900  0.54000  1.0000
  Tl  Tl1       1.0  0.00000  0.30800  0.11000  1.0000
  Tl  Tl2       1.0  0.00000  0.69200  0.61000  1.0000
