data_image0
_chemical_formula_structural       Ga16K16O32
_chemical_formula_sum              "Ga16 K16 O32"
_cell_length_a       5.4956
_cell_length_b       11.0107
_cell_length_c       15.8366
_cell_angle_alpha    90
_cell_angle_beta     90
_cell_angle_gamma    90

_space_group_name_H-M_alt    "P 1"
_space_group_IT_number       1

loop_
  _space_group_symop_operation_xyz
  'x, y, z'

loop_
  _atom_site_type_symbol
  _atom_site_label
  _atom_site_symmetry_multiplicity
  _atom_site_fract_x
  _atom_site_fract_y
  _atom_site_fract_z
  _atom_site_occupancy
  Ga  Ga1       1.0  0.28500  0.26300  0.06480  1.0000
  Ga  Ga2       1.0  0.21500  0.76300  0.06480  1.0000
  Ga  Ga3       1.0  0.26100  0.00881  0.18900  1.0000
  Ga  Ga4       1.0  0.23900  0.50900  0.18900  1.0000
  Ga  Ga5       1.0  0.76100  0.00881  0.31100  1.0000
  Ga  Ga6       1.0  0.73900  0.50900  0.31100  1.0000
  Ga  Ga7       1.0  0.78500  0.26300  0.43500  1.0000
  Ga  Ga8       1.0  0.71500  0.76300  0.43500  1.0000
  Ga  Ga9       1.0  0.28500  0.23700  0.56500  1.0000
  Ga  Ga10      1.0  0.21500  0.73700  0.56500  1.0000
  Ga  Ga11      1.0  0.26100  0.49100  0.68900  1.0000
  Ga  Ga12      1.0  0.23900  0.99100  0.68900  1.0000
  Ga  Ga13      1.0  0.76100  0.49100  0.81100  1.0000
  Ga  Ga14      1.0  0.73900  0.99100  0.81100  1.0000
  Ga  Ga15      1.0  0.78500  0.23700  0.93500  1.0000
  Ga  Ga16      1.0  0.71500  0.73700  0.93500  1.0000
  K   K1        1.0  0.75700  0.01850  0.06120  1.0000
  K   K2        1.0  0.74300  0.51800  0.06120  1.0000
  K   K3        1.0  0.80200  0.26500  0.18300  1.0000
  K   K4        1.0  0.69800  0.76500  0.18300  1.0000
  K   K5        1.0  0.30200  0.26500  0.31700  1.0000
  K   K6        1.0  0.19800  0.76500  0.31700  1.0000
  K   K7        1.0  0.25700  0.01850  0.43900  1.0000
  K   K8        1.0  0.24300  0.51800  0.43900  1.0000
  K   K9        1.0  0.75700  0.48200  0.56100  1.0000
  K   K10       1.0  0.74300  0.98200  0.56100  1.0000
  K   K11       1.0  0.80200  0.23500  0.68300  1.0000
  K   K12       1.0  0.69800  0.73500  0.68300  1.0000
  K   K13       1.0  0.30200  0.23500  0.81700  1.0000
  K   K14       1.0  0.19800  0.73500  0.81700  1.0000
  K   K15       1.0  0.25700  0.48200  0.93900  1.0000
  K   K16       1.0  0.24300  0.98200  0.93900  1.0000
  O   O1        1.0  0.58000  0.30500  0.01510  1.0000
  O   O2        1.0  0.92000  0.80500  0.01510  1.0000
  O   O3        1.0  0.14800  0.41000  0.09970  1.0000
  O   O4        1.0  0.35200  0.91000  0.09970  1.0000
  O   O5        1.0  0.33300  0.16900  0.16000  1.0000
  O   O6        1.0  0.16700  0.66900  0.16000  1.0000
  O   O7        1.0  0.56400  0.47700  0.21200  1.0000
  O   O8        1.0  0.93600  0.97700  0.21200  1.0000
  O   O9        1.0  0.06430  0.47700  0.28800  1.0000
  O   O10       1.0  0.43600  0.97700  0.28800  1.0000
  O   O11       1.0  0.83300  0.16900  0.34000  1.0000
  O   O12       1.0  0.66700  0.66900  0.34000  1.0000
  O   O13       1.0  0.64800  0.41000  0.40000  1.0000
  O   O14       1.0  0.85200  0.91000  0.40000  1.0000
  O   O15       1.0  0.08050  0.30500  0.48500  1.0000
  O   O16       1.0  0.42000  0.80500  0.48500  1.0000
  O   O17       1.0  0.58000  0.19500  0.51500  1.0000
  O   O18       1.0  0.92000  0.69500  0.51500  1.0000
  O   O19       1.0  0.14800  0.09040  0.60000  1.0000
  O   O20       1.0  0.35200  0.59000  0.60000  1.0000
  O   O21       1.0  0.33300  0.33100  0.66000  1.0000
  O   O22       1.0  0.16700  0.83100  0.66000  1.0000
  O   O23       1.0  0.56400  0.02260  0.71200  1.0000
  O   O24       1.0  0.93600  0.52300  0.71200  1.0000
  O   O25       1.0  0.06430  0.02260  0.78800  1.0000
  O   O26       1.0  0.43600  0.52300  0.78800  1.0000
  O   O27       1.0  0.83300  0.33100  0.84000  1.0000
  O   O28       1.0  0.66700  0.83100  0.84000  1.0000
  O   O29       1.0  0.64800  0.09040  0.90000  1.0000
  O   O30       1.0  0.85200  0.59000  0.90000  1.0000
  O   O31       1.0  0.08050  0.19500  0.98500  1.0000
  O   O32       1.0  0.42000  0.69500  0.98500  1.0000
