data_image0
_chemical_formula_structural       O4TaTi
_chemical_formula_sum              "O4 Ta1 Ti1"
_cell_length_a       4.35104
_cell_length_b       4.35104
_cell_length_c       4.35104
_cell_angle_alpha    90.0077
_cell_angle_beta     90.0077
_cell_angle_gamma    90.0077

_space_group_name_H-M_alt    "P 1"
_space_group_IT_number       1

loop_
  _space_group_symop_operation_xyz
  'x, y, z'

loop_
  _atom_site_type_symbol
  _atom_site_label
  _atom_site_symmetry_multiplicity
  _atom_site_fract_x
  _atom_site_fract_y
  _atom_site_fract_z
  _atom_site_occupancy
  O   O1        1.0  0.24700  0.24700  0.24700  1.0000
  O   O2        1.0  0.75200  0.75200  0.24900  1.0000
  O   O3        1.0  0.75200  0.24900  0.75200  1.0000
  O   O4        1.0  0.24900  0.75200  0.75200  1.0000
  Ta  Ta1       1.0  0.99900  0.99900  0.99900  1.0000
  Ti  Ti1       1.0  0.49900  0.49900  0.49900  1.0000
