data_image0
_chemical_formula_structural       Ce4Rh4Sb4
_chemical_formula_sum              "Ce4 Rh4 Sb4"
_cell_length_a       7.53502
_cell_length_b       4.67206
_cell_length_c       7.96159
_cell_angle_alpha    90
_cell_angle_beta     90
_cell_angle_gamma    90

_space_group_name_H-M_alt    "P 1"
_space_group_IT_number       1

loop_
  _space_group_symop_operation_xyz
  'x, y, z'

loop_
  _atom_site_type_symbol
  _atom_site_label
  _atom_site_symmetry_multiplicity
  _atom_site_fract_x
  _atom_site_fract_y
  _atom_site_fract_z
  _atom_site_occupancy
  Ce  Ce1       1.0  0.48700  0.75000  0.19700  1.0000
  Ce  Ce2       1.0  0.98700  0.75000  0.30300  1.0000
  Ce  Ce3       1.0  0.01250  0.25000  0.69700  1.0000
  Ce  Ce4       1.0  0.51300  0.25000  0.80300  1.0000
  Rh  Rh1       1.0  0.80700  0.25000  0.08450  1.0000
  Rh  Rh2       1.0  0.30700  0.25000  0.41600  1.0000
  Rh  Rh3       1.0  0.69300  0.75000  0.58400  1.0000
  Rh  Rh4       1.0  0.19300  0.75000  0.91600  1.0000
  Sb  Sb1       1.0  0.18600  0.25000  0.08910  1.0000
  Sb  Sb2       1.0  0.68600  0.25000  0.41100  1.0000
  Sb  Sb3       1.0  0.31400  0.75000  0.58900  1.0000
  Sb  Sb4       1.0  0.81400  0.75000  0.91100  1.0000
