data_image0
_chemical_formula_structural       Al4Rh4Tm4
_chemical_formula_sum              "Al4 Rh4 Tm4"
_cell_length_a       6.78929
_cell_length_b       4.17112
_cell_length_c       7.93416
_cell_angle_alpha    90
_cell_angle_beta     90
_cell_angle_gamma    90

_space_group_name_H-M_alt    "P 1"
_space_group_IT_number       1

loop_
  _space_group_symop_operation_xyz
  'x, y, z'

loop_
  _atom_site_type_symbol
  _atom_site_label
  _atom_site_symmetry_multiplicity
  _atom_site_fract_x
  _atom_site_fract_y
  _atom_site_fract_z
  _atom_site_occupancy
  Al  Al1       1.0  0.86300  0.25000  0.05910  1.0000
  Al  Al2       1.0  0.36300  0.25000  0.44100  1.0000
  Al  Al3       1.0  0.63700  0.75000  0.55900  1.0000
  Al  Al4       1.0  0.13700  0.75000  0.94100  1.0000
  Rh  Rh1       1.0  0.23600  0.25000  0.12400  1.0000
  Rh  Rh2       1.0  0.73600  0.25000  0.37600  1.0000
  Rh  Rh3       1.0  0.26400  0.75000  0.62400  1.0000
  Rh  Rh4       1.0  0.76400  0.75000  0.87600  1.0000
  Tm  Tm1       1.0  0.53600  0.75000  0.17900  1.0000
  Tm  Tm2       1.0  0.03600  0.75000  0.32100  1.0000
  Tm  Tm3       1.0  0.96400  0.25000  0.67900  1.0000
  Tm  Tm4       1.0  0.46400  0.25000  0.82100  1.0000
