data_image0
_chemical_formula_structural       Ce4Ge4Rh4
_chemical_formula_sum              "Ce4 Ge4 Rh4"
_cell_length_a       7.35191
_cell_length_b       4.58084
_cell_length_c       7.48771
_cell_angle_alpha    90
_cell_angle_beta     90
_cell_angle_gamma    90

_space_group_name_H-M_alt    "P 1"
_space_group_IT_number       1

loop_
  _space_group_symop_operation_xyz
  'x, y, z'

loop_
  _atom_site_type_symbol
  _atom_site_label
  _atom_site_symmetry_multiplicity
  _atom_site_fract_x
  _atom_site_fract_y
  _atom_site_fract_z
  _atom_site_occupancy
  Ce  Ce1       1.0  0.97900  0.25000  0.19300  1.0000
  Ce  Ce2       1.0  0.47900  0.25000  0.30700  1.0000
  Ce  Ce3       1.0  0.52100  0.75000  0.69300  1.0000
  Ce  Ce4       1.0  0.02090  0.75000  0.80700  1.0000
  Ge  Ge1       1.0  0.68000  0.75000  0.08780  1.0000
  Ge  Ge2       1.0  0.18000  0.75000  0.41200  1.0000
  Ge  Ge3       1.0  0.82000  0.25000  0.58800  1.0000
  Ge  Ge4       1.0  0.32000  0.25000  0.91200  1.0000
  Rh  Rh1       1.0  0.31200  0.75000  0.08680  1.0000
  Rh  Rh2       1.0  0.81200  0.75000  0.41300  1.0000
  Rh  Rh3       1.0  0.18800  0.25000  0.58700  1.0000
  Rh  Rh4       1.0  0.68800  0.25000  0.91300  1.0000
