data_image0
_chemical_formula_structural       Nd2O24P8Rb2
_chemical_formula_sum              "Nd2 O24 P8 Rb2"
_cell_length_a       7.40219
_cell_length_b       7.40219
_cell_length_c       10.5962
_cell_angle_alpha    100.99
_cell_angle_beta     100.99
_cell_angle_gamma    116.371

_space_group_name_H-M_alt    "P 1"
_space_group_IT_number       1

loop_
  _space_group_symop_operation_xyz
  'x, y, z'

loop_
  _atom_site_type_symbol
  _atom_site_label
  _atom_site_symmetry_multiplicity
  _atom_site_fract_x
  _atom_site_fract_y
  _atom_site_fract_z
  _atom_site_occupancy
  Nd  Nd1       1.0  0.37800  0.12200  0.25000  1.0000
  Nd  Nd2       1.0  0.62200  0.87800  0.75000  1.0000
  O   O1        1.0  0.77900  0.53100  0.07020  1.0000
  O   O2        1.0  0.36200  0.84300  0.07730  1.0000
  O   O3        1.0  0.00895  0.36600  0.09320  1.0000
  O   O4        1.0  0.32500  0.32100  0.10500  1.0000
  O   O5        1.0  0.00760  0.91200  0.10600  1.0000
  O   O6        1.0  0.69900  0.25300  0.18200  1.0000
  O   O7        1.0  0.24700  0.80100  0.31800  1.0000
  O   O8        1.0  0.58800  0.49200  0.39400  1.0000
  O   O9        1.0  0.17900  0.17500  0.39500  1.0000
  O   O10       1.0  0.13400  0.49100  0.40700  1.0000
  O   O11       1.0  0.65700  0.13800  0.42300  1.0000
  O   O12       1.0  0.96900  0.72100  0.43000  1.0000
  O   O13       1.0  0.03130  0.27900  0.57000  1.0000
  O   O14       1.0  0.34300  0.86200  0.57700  1.0000
  O   O15       1.0  0.86600  0.50900  0.59300  1.0000
  O   O16       1.0  0.82100  0.82500  0.60500  1.0000
  O   O17       1.0  0.41200  0.50800  0.60600  1.0000
  O   O18       1.0  0.75300  0.19900  0.68200  1.0000
  O   O19       1.0  0.30100  0.74700  0.81800  1.0000
  O   O20       1.0  0.99200  0.08850  0.89400  1.0000
  O   O21       1.0  0.67500  0.67900  0.89500  1.0000
  O   O22       1.0  0.99100  0.63400  0.90700  1.0000
  O   O23       1.0  0.63800  0.15700  0.92300  1.0000
  O   O24       1.0  0.22100  0.46900  0.93000  1.0000
  P   P1        1.0  0.13300  0.29400  0.00624  1.0000
  P   P2        1.0  0.76300  0.30600  0.06350  1.0000
  P   P3        1.0  0.19400  0.73700  0.43600  1.0000
  P   P4        1.0  0.20600  0.36700  0.49400  1.0000
  P   P5        1.0  0.79400  0.63300  0.50600  1.0000
  P   P6        1.0  0.80600  0.26300  0.56400  1.0000
  P   P7        1.0  0.23700  0.69400  0.93600  1.0000
  P   P8        1.0  0.86700  0.70600  0.99400  1.0000
  Rb  Rb1       1.0  0.68400  0.81600  0.25000  1.0000
  Rb  Rb2       1.0  0.31600  0.18400  0.75000  1.0000
