data_image0
_chemical_formula_structural       Eu4In4Rh4
_chemical_formula_sum              "Eu4 In4 Rh4"
_cell_length_a       7.41155
_cell_length_b       4.31664
_cell_length_c       8.46946
_cell_angle_alpha    90
_cell_angle_beta     90
_cell_angle_gamma    90

_space_group_name_H-M_alt    "P 1"
_space_group_IT_number       1

loop_
  _space_group_symop_operation_xyz
  'x, y, z'

loop_
  _atom_site_type_symbol
  _atom_site_label
  _atom_site_symmetry_multiplicity
  _atom_site_fract_x
  _atom_site_fract_y
  _atom_site_fract_z
  _atom_site_occupancy
  Eu  Eu1       1.0  0.47300  0.75000  0.17700  1.0000
  Eu  Eu2       1.0  0.97300  0.75000  0.32300  1.0000
  Eu  Eu3       1.0  0.02730  0.25000  0.67700  1.0000
  Eu  Eu4       1.0  0.52700  0.25000  0.82300  1.0000
  In  In1       1.0  0.14700  0.25000  0.06440  1.0000
  In  In2       1.0  0.64700  0.25000  0.43600  1.0000
  In  In3       1.0  0.35300  0.75000  0.56400  1.0000
  In  In4       1.0  0.85300  0.75000  0.93600  1.0000
  Rh  Rh1       1.0  0.77500  0.25000  0.12800  1.0000
  Rh  Rh2       1.0  0.27500  0.25000  0.37200  1.0000
  Rh  Rh3       1.0  0.72500  0.75000  0.62800  1.0000
  Rh  Rh4       1.0  0.22500  0.75000  0.87200  1.0000
