data_image0
_chemical_formula_structural       Er2Ni2Si4
_chemical_formula_sum              "Er2 Ni2 Si4"
_cell_length_a       3.94041
_cell_length_b       3.95183
_cell_length_c       8.42261
_cell_angle_alpha    90
_cell_angle_beta     76.4721
_cell_angle_gamma    90

_space_group_name_H-M_alt    "P 1"
_space_group_IT_number       1

loop_
  _space_group_symop_operation_xyz
  'x, y, z'

loop_
  _atom_site_type_symbol
  _atom_site_label
  _atom_site_symmetry_multiplicity
  _atom_site_fract_x
  _atom_site_fract_y
  _atom_site_fract_z
  _atom_site_occupancy
  Er  Er1       1.0  0.89500  0.25000  0.21100  1.0000
  Er  Er2       1.0  0.10500  0.75000  0.78900  1.0000
  Ni  Ni1       1.0  0.32300  0.75000  0.35300  1.0000
  Ni  Ni2       1.0  0.67700  0.25000  0.64700  1.0000
  Si  Si1       1.0  0.46000  0.75000  0.07920  1.0000
  Si  Si2       1.0  0.25000  0.25000  0.49900  1.0000
  Si  Si3       1.0  0.75000  0.75000  0.50100  1.0000
  Si  Si4       1.0  0.54000  0.25000  0.92100  1.0000
