data_image0
_chemical_formula_structural       C12Cl8Cu4H36N4O8
_chemical_formula_sum              "C12 Cl8 Cu4 H36 N4 O8"
_cell_length_a       8.98145
_cell_length_b       12.3573
_cell_length_c       6.84734
_cell_angle_alpha    90
_cell_angle_beta     99.1863
_cell_angle_gamma    90

_space_group_name_H-M_alt    "P 1"
_space_group_IT_number       1

loop_
  _space_group_symop_operation_xyz
  'x, y, z'

loop_
  _atom_site_type_symbol
  _atom_site_label
  _atom_site_symmetry_multiplicity
  _atom_site_fract_x
  _atom_site_fract_y
  _atom_site_fract_z
  _atom_site_occupancy
  C   C1        1.0  0.84500  0.85200  0.03060  1.0000
  C   C2        1.0  0.21600  0.96300  0.06610  1.0000
  C   C3        1.0  0.88700  0.57700  0.20300  1.0000
  C   C4        1.0  0.11300  0.07750  0.29700  1.0000
  C   C5        1.0  0.78400  0.46300  0.43400  1.0000
  C   C6        1.0  0.15500  0.35200  0.46900  1.0000
  C   C7        1.0  0.84500  0.64800  0.53100  1.0000
  C   C8        1.0  0.21600  0.53700  0.56600  1.0000
  C   C9        1.0  0.88700  0.92300  0.70300  1.0000
  C   C10       1.0  0.11300  0.42300  0.79700  1.0000
  C   C11       1.0  0.78400  0.03700  0.93400  1.0000
  C   C12       1.0  0.15500  0.14800  0.96900  1.0000
  Cl  Cl1       1.0  0.79700  0.29500  0.00674  1.0000
  Cl  Cl2       1.0  0.47300  0.33600  0.17700  1.0000
  Cl  Cl3       1.0  0.52700  0.83600  0.32300  1.0000
  Cl  Cl4       1.0  0.20300  0.79500  0.49300  1.0000
  Cl  Cl5       1.0  0.79700  0.20500  0.50700  1.0000
  Cl  Cl6       1.0  0.47300  0.16400  0.67700  1.0000
  Cl  Cl7       1.0  0.52700  0.66400  0.82300  1.0000
  Cl  Cl8       1.0  0.20300  0.70500  0.99300  1.0000
  Cu  Cu1       1.0  0.63700  0.19500  0.14800  1.0000
  Cu  Cu2       1.0  0.36300  0.69500  0.35200  1.0000
  Cu  Cu3       1.0  0.63700  0.30500  0.64800  1.0000
  Cu  Cu4       1.0  0.36300  0.80500  0.85200  1.0000
  H   H1        1.0  0.24800  0.20300  0.02460  1.0000
  H   H2        1.0  0.95300  0.80900  0.04000  1.0000
  H   H3        1.0  0.51700  0.61600  0.10900  1.0000
  H   H4        1.0  0.80700  0.63500  0.11900  1.0000
  H   H5        1.0  0.88300  0.50100  0.12000  1.0000
  H   H6        1.0  0.83000  0.88200  0.17600  1.0000
  H   H7        1.0  0.21700  0.90100  0.18000  1.0000
  H   H8        1.0  0.00106  0.61100  0.22100  1.0000
  H   H9        1.0  0.47200  0.52100  0.24300  1.0000
  H   H10       1.0  0.52800  0.02100  0.25700  1.0000
  H   H11       1.0  0.99900  0.11100  0.27900  1.0000
  H   H12       1.0  0.78300  0.40100  0.32000  1.0000
  H   H13       1.0  0.17000  0.38200  0.32400  1.0000
  H   H14       1.0  0.11700  0.00139  0.38000  1.0000
  H   H15       1.0  0.19300  0.13500  0.38100  1.0000
  H   H16       1.0  0.48300  0.11600  0.39100  1.0000
  H   H17       1.0  0.04690  0.30900  0.46000  1.0000
  H   H18       1.0  0.75200  0.70300  0.47500  1.0000
  H   H19       1.0  0.24800  0.29700  0.52500  1.0000
  H   H20       1.0  0.95300  0.69100  0.54000  1.0000
  H   H21       1.0  0.51700  0.88400  0.60900  1.0000
  H   H22       1.0  0.80700  0.86500  0.61900  1.0000
  H   H23       1.0  0.88300  0.99900  0.62000  1.0000
  H   H24       1.0  0.83000  0.61800  0.67600  1.0000
  H   H25       1.0  0.21700  0.59900  0.68000  1.0000
  H   H26       1.0  0.00106  0.88900  0.72100  1.0000
  H   H27       1.0  0.47200  0.97900  0.74300  1.0000
  H   H28       1.0  0.52800  0.47900  0.75700  1.0000
  H   H29       1.0  0.99900  0.38900  0.77900  1.0000
  H   H30       1.0  0.78300  0.09950  0.82000  1.0000
  H   H31       1.0  0.17000  0.11800  0.82400  1.0000
  H   H32       1.0  0.11700  0.49900  0.88000  1.0000
  H   H33       1.0  0.19300  0.36500  0.88100  1.0000
  H   H34       1.0  0.48300  0.38400  0.89100  1.0000
  H   H35       1.0  0.04690  0.19100  0.96000  1.0000
  H   H36       1.0  0.75200  0.79700  0.97500  1.0000
  N   N1        1.0  0.15700  0.05730  0.10500  1.0000
  N   N2        1.0  0.84300  0.55700  0.39500  1.0000
  N   N3        1.0  0.15700  0.44300  0.60500  1.0000
  N   N4        1.0  0.84300  0.94300  0.89500  1.0000
  O   O1        1.0  0.73400  0.05540  0.09370  1.0000
  O   O2        1.0  0.51200  0.59600  0.24900  1.0000
  O   O3        1.0  0.48800  0.09560  0.25100  1.0000
  O   O4        1.0  0.26600  0.55500  0.40600  1.0000
  O   O5        1.0  0.73400  0.44500  0.59400  1.0000
  O   O6        1.0  0.51200  0.90400  0.74900  1.0000
  O   O7        1.0  0.48800  0.40400  0.75100  1.0000
  O   O8        1.0  0.26600  0.94500  0.90600  1.0000
