data_image0
_chemical_formula_structural       As8Cd32I24P8
_chemical_formula_sum              "As8 Cd32 I24 P8"
_cell_length_a       12.9957
_cell_length_b       12.9957
_cell_length_c       12.9957
_cell_angle_alpha    90
_cell_angle_beta     90
_cell_angle_gamma    90

_space_group_name_H-M_alt    "P 1"
_space_group_IT_number       1

loop_
  _space_group_symop_operation_xyz
  'x, y, z'

loop_
  _atom_site_type_symbol
  _atom_site_label
  _atom_site_symmetry_multiplicity
  _atom_site_fract_x
  _atom_site_fract_y
  _atom_site_fract_z
  _atom_site_occupancy
  As  As1       1.0  0.10300  0.10300  0.10300  1.0000
  As  As2       1.0  0.39700  0.60300  0.10300  1.0000
  As  As3       1.0  0.60300  0.10300  0.39700  1.0000
  As  As4       1.0  0.89700  0.60300  0.39700  1.0000
  As  As5       1.0  0.10300  0.39700  0.60300  1.0000
  As  As6       1.0  0.39700  0.89700  0.60300  1.0000
  As  As7       1.0  0.60300  0.39700  0.89700  1.0000
  As  As8       1.0  0.89700  0.89700  0.89700  1.0000
  Cd  Cd1       1.0  0.26400  0.03280  0.00605  1.0000
  Cd  Cd2       1.0  0.23600  0.53300  0.00605  1.0000
  Cd  Cd3       1.0  0.00605  0.26400  0.03280  1.0000
  Cd  Cd4       1.0  0.49400  0.76400  0.03280  1.0000
  Cd  Cd5       1.0  0.21900  0.21900  0.21900  1.0000
  Cd  Cd6       1.0  0.28100  0.71900  0.21900  1.0000
  Cd  Cd7       1.0  0.53300  0.00605  0.23600  1.0000
  Cd  Cd8       1.0  0.96700  0.50600  0.23600  1.0000
  Cd  Cd9       1.0  0.03280  0.00605  0.26400  1.0000
  Cd  Cd10      1.0  0.46700  0.50600  0.26400  1.0000
  Cd  Cd11      1.0  0.71900  0.21900  0.28100  1.0000
  Cd  Cd12      1.0  0.78100  0.71900  0.28100  1.0000
  Cd  Cd13      1.0  0.50600  0.26400  0.46700  1.0000
  Cd  Cd14      1.0  0.99400  0.76400  0.46700  1.0000
  Cd  Cd15      1.0  0.76400  0.03280  0.49400  1.0000
  Cd  Cd16      1.0  0.73600  0.53300  0.49400  1.0000
  Cd  Cd17      1.0  0.26400  0.46700  0.50600  1.0000
  Cd  Cd18      1.0  0.23600  0.96700  0.50600  1.0000
  Cd  Cd19      1.0  0.00605  0.23600  0.53300  1.0000
  Cd  Cd20      1.0  0.49400  0.73600  0.53300  1.0000
  Cd  Cd21      1.0  0.21900  0.28100  0.71900  1.0000
  Cd  Cd22      1.0  0.28100  0.78100  0.71900  1.0000
  Cd  Cd23      1.0  0.53300  0.49400  0.73600  1.0000
  Cd  Cd24      1.0  0.96700  0.99400  0.73600  1.0000
  Cd  Cd25      1.0  0.03280  0.49400  0.76400  1.0000
  Cd  Cd26      1.0  0.46700  0.99400  0.76400  1.0000
  Cd  Cd27      1.0  0.71900  0.28100  0.78100  1.0000
  Cd  Cd28      1.0  0.78100  0.78100  0.78100  1.0000
  Cd  Cd29      1.0  0.50600  0.23600  0.96700  1.0000
  Cd  Cd30      1.0  0.99400  0.73600  0.96700  1.0000
  Cd  Cd31      1.0  0.76400  0.46700  0.99400  1.0000
  Cd  Cd32      1.0  0.73600  0.96700  0.99400  1.0000
  I   I1        1.0  0.75800  0.18900  0.05970  1.0000
  I   I2        1.0  0.74200  0.68900  0.05970  1.0000
  I   I3        1.0  0.44000  0.25800  0.18900  1.0000
  I   I4        1.0  0.05970  0.75800  0.18900  1.0000
  I   I5        1.0  0.68900  0.44000  0.24200  1.0000
  I   I6        1.0  0.81100  0.94000  0.24200  1.0000
  I   I7        1.0  0.18900  0.44000  0.25800  1.0000
  I   I8        1.0  0.31100  0.94000  0.25800  1.0000
  I   I9        1.0  0.94000  0.25800  0.31100  1.0000
  I   I10       1.0  0.56000  0.75800  0.31100  1.0000
  I   I11       1.0  0.25800  0.18900  0.44000  1.0000
  I   I12       1.0  0.24200  0.68900  0.44000  1.0000
  I   I13       1.0  0.75800  0.31100  0.56000  1.0000
  I   I14       1.0  0.74200  0.81100  0.56000  1.0000
  I   I15       1.0  0.44000  0.24200  0.68900  1.0000
  I   I16       1.0  0.05970  0.74200  0.68900  1.0000
  I   I17       1.0  0.68900  0.05970  0.74200  1.0000
  I   I18       1.0  0.81100  0.56000  0.74200  1.0000
  I   I19       1.0  0.18900  0.05970  0.75800  1.0000
  I   I20       1.0  0.31100  0.56000  0.75800  1.0000
  I   I21       1.0  0.94000  0.24200  0.81100  1.0000
  I   I22       1.0  0.56000  0.74200  0.81100  1.0000
  I   I23       1.0  0.25800  0.31100  0.94000  1.0000
  I   I24       1.0  0.24200  0.81100  0.94000  1.0000
  P   P1        1.0  0.95100  0.45100  0.04880  1.0000
  P   P2        1.0  0.54900  0.95100  0.04880  1.0000
  P   P3        1.0  0.45100  0.45100  0.45100  1.0000
  P   P4        1.0  0.04880  0.95100  0.45100  1.0000
  P   P5        1.0  0.95100  0.04880  0.54900  1.0000
  P   P6        1.0  0.54900  0.54900  0.54900  1.0000
  P   P7        1.0  0.45100  0.04880  0.95100  1.0000
  P   P8        1.0  0.04880  0.54900  0.95100  1.0000
