data_image0
_chemical_formula_structural       H2O48P14Ta4Tl4
_chemical_formula_sum              "H2 O48 P14 Ta4 Tl4"
_cell_length_a       5.08445
_cell_length_b       17.9816
_cell_length_c       10.7171
_cell_angle_alpha    90
_cell_angle_beta     95.7508
_cell_angle_gamma    90

_space_group_name_H-M_alt    "P 1"
_space_group_IT_number       1

loop_
  _space_group_symop_operation_xyz
  'x, y, z'

loop_
  _atom_site_type_symbol
  _atom_site_label
  _atom_site_symmetry_multiplicity
  _atom_site_fract_x
  _atom_site_fract_y
  _atom_site_fract_z
  _atom_site_occupancy
  H   H1        1.0  0.15700  0.75000  0.27000  1.0000
  H   H2        1.0  0.84300  0.25000  0.73000  1.0000
  O   O1        1.0  0.68200  0.16900  0.02920  1.0000
  O   O2        1.0  0.68200  0.33100  0.02920  1.0000
  O   O3        1.0  0.74200  0.02810  0.03620  1.0000
  O   O4        1.0  0.74200  0.47200  0.03620  1.0000
  O   O5        1.0  0.01520  0.60200  0.11100  1.0000
  O   O6        1.0  0.01520  0.89800  0.11100  1.0000
  O   O7        1.0  0.49900  0.58500  0.15300  1.0000
  O   O8        1.0  0.49900  0.91500  0.15300  1.0000
  O   O9        1.0  0.13700  0.03440  0.22800  1.0000
  O   O10       1.0  0.13700  0.46600  0.22800  1.0000
  O   O11       1.0  0.34500  0.75000  0.24500  1.0000
  O   O12       1.0  0.84300  0.75000  0.25800  1.0000
  O   O13       1.0  0.31300  0.16700  0.26100  1.0000
  O   O14       1.0  0.31300  0.33300  0.26100  1.0000
  O   O15       1.0  0.61800  0.05230  0.28000  1.0000
  O   O16       1.0  0.61800  0.44800  0.28000  1.0000
  O   O17       1.0  0.88000  0.57500  0.35700  1.0000
  O   O18       1.0  0.88000  0.92500  0.35700  1.0000
  O   O19       1.0  0.59900  0.68000  0.42100  1.0000
  O   O20       1.0  0.59900  0.82000  0.42100  1.0000
  O   O21       1.0  0.31400  0.07230  0.44300  1.0000
  O   O22       1.0  0.31400  0.42800  0.44300  1.0000
  O   O23       1.0  0.92200  0.16200  0.47300  1.0000
  O   O24       1.0  0.92200  0.33800  0.47300  1.0000
  O   O25       1.0  0.07810  0.66200  0.52700  1.0000
  O   O26       1.0  0.07810  0.83800  0.52700  1.0000
  O   O27       1.0  0.68600  0.57200  0.55700  1.0000
  O   O28       1.0  0.68600  0.92800  0.55700  1.0000
  O   O29       1.0  0.40100  0.18000  0.57900  1.0000
  O   O30       1.0  0.40100  0.32000  0.57900  1.0000
  O   O31       1.0  0.12000  0.07470  0.64300  1.0000
  O   O32       1.0  0.12000  0.42500  0.64300  1.0000
  O   O33       1.0  0.38200  0.55200  0.72000  1.0000
  O   O34       1.0  0.38200  0.94800  0.72000  1.0000
  O   O35       1.0  0.68700  0.66700  0.73900  1.0000
  O   O36       1.0  0.68700  0.83300  0.73900  1.0000
  O   O37       1.0  0.15700  0.25000  0.74200  1.0000
  O   O38       1.0  0.65500  0.25000  0.75500  1.0000
  O   O39       1.0  0.86300  0.53400  0.77200  1.0000
  O   O40       1.0  0.86300  0.96600  0.77200  1.0000
  O   O41       1.0  0.50100  0.08530  0.84700  1.0000
  O   O42       1.0  0.50100  0.41500  0.84700  1.0000
  O   O43       1.0  0.98500  0.10200  0.88900  1.0000
  O   O44       1.0  0.98500  0.39800  0.88900  1.0000
  O   O45       1.0  0.25800  0.52800  0.96400  1.0000
  O   O46       1.0  0.25800  0.97200  0.96400  1.0000
  O   O47       1.0  0.31800  0.66900  0.97100  1.0000
  O   O48       1.0  0.31800  0.83100  0.97100  1.0000
  P   P1        1.0  0.27500  0.60100  0.04480  1.0000
  P   P2        1.0  0.27500  0.89900  0.04480  1.0000
  P   P3        1.0  0.34700  0.08720  0.29500  1.0000
  P   P4        1.0  0.34700  0.41300  0.29500  1.0000
  P   P5        1.0  0.60800  0.75000  0.32900  1.0000
  P   P6        1.0  0.83900  0.62500  0.46900  1.0000
  P   P7        1.0  0.83900  0.87500  0.46900  1.0000
  P   P8        1.0  0.16100  0.12500  0.53100  1.0000
  P   P9        1.0  0.16100  0.37500  0.53100  1.0000
  P   P10       1.0  0.39200  0.25000  0.67100  1.0000
  P   P11       1.0  0.65300  0.58700  0.70500  1.0000
  P   P12       1.0  0.65300  0.91300  0.70500  1.0000
  P   P13       1.0  0.72500  0.10100  0.95500  1.0000
  P   P14       1.0  0.72500  0.39900  0.95500  1.0000
  Ta  Ta1       1.0  0.81500  0.52500  0.19400  1.0000
  Ta  Ta2       1.0  0.81500  0.97500  0.19400  1.0000
  Ta  Ta3       1.0  0.18500  0.02470  0.80600  1.0000
  Ta  Ta4       1.0  0.18500  0.47500  0.80600  1.0000
  Tl  Tl1       1.0  0.22700  0.25000  0.02270  1.0000
  Tl  Tl2       1.0  0.80600  0.25000  0.27000  1.0000
  Tl  Tl3       1.0  0.19400  0.75000  0.73000  1.0000
  Tl  Tl4       1.0  0.77300  0.75000  0.97700  1.0000
