data_image0
_chemical_formula_structural       Cl11N3P4
_chemical_formula_sum              "Cl11 N3 P4"
_cell_length_a       7.79913
_cell_length_b       7.79913
_cell_length_c       7.79913
_cell_angle_alpha    93.4111
_cell_angle_beta     86.5889
_cell_angle_gamma    93.4111

_space_group_name_H-M_alt    "P 1"
_space_group_IT_number       1

loop_
  _space_group_symop_operation_xyz
  'x, y, z'

loop_
  _atom_site_type_symbol
  _atom_site_label
  _atom_site_symmetry_multiplicity
  _atom_site_fract_x
  _atom_site_fract_y
  _atom_site_fract_z
  _atom_site_occupancy
  Cl  Cl1       1.0  0.00000  0.00006  0.00000  1.0000
  Cl  Cl2       1.0  0.72800  0.28900  0.05120  1.0000
  Cl  Cl3       1.0  0.31800  0.24400  0.06260  1.0000
  Cl  Cl4       1.0  0.23200  0.76800  0.23200  1.0000
  Cl  Cl5       1.0  0.75600  0.93700  0.31800  1.0000
  Cl  Cl6       1.0  0.86700  0.48800  0.44900  1.0000
  Cl  Cl7       1.0  0.44900  0.13300  0.51200  1.0000
  Cl  Cl8       1.0  0.05120  0.27200  0.71100  1.0000
  Cl  Cl9       1.0  0.71100  0.94900  0.72800  1.0000
  Cl  Cl10      1.0  0.06260  0.68200  0.75600  1.0000
  Cl  Cl11      1.0  0.51200  0.55100  0.86700  1.0000
  N   N1        1.0  0.51900  0.53600  0.25000  1.0000
  N   N2        1.0  0.25000  0.48100  0.46400  1.0000
  N   N3        1.0  0.46400  0.75000  0.51900  1.0000
  P   P1        1.0  0.51600  0.41900  0.08080  1.0000
  P   P2        1.0  0.37500  0.62500  0.37500  1.0000
  P   P3        1.0  0.58100  0.91900  0.51600  1.0000
  P   P4        1.0  0.08080  0.48400  0.58100  1.0000
