data_image0
_chemical_formula_structural       H16Mg3O16P2
_chemical_formula_sum              "H16 Mg3 O16 P2"
_cell_length_a       4.60354
_cell_length_b       8.07735
_cell_length_c       8.07735
_cell_angle_alpha    104.548
_cell_angle_beta     99.0688
_cell_angle_gamma    99.0688

_space_group_name_H-M_alt    "P 1"
_space_group_IT_number       1

loop_
  _space_group_symop_operation_xyz
  'x, y, z'

loop_
  _atom_site_type_symbol
  _atom_site_label
  _atom_site_symmetry_multiplicity
  _atom_site_fract_x
  _atom_site_fract_y
  _atom_site_fract_z
  _atom_site_occupancy
  H   H1        1.0  0.63500  0.20900  0.04300  1.0000
  H   H2        1.0  0.96200  0.32200  0.05970  1.0000
  H   H3        1.0  0.50800  0.56800  0.17000  1.0000
  H   H4        1.0  0.71700  0.75200  0.17800  1.0000
  H   H5        1.0  0.63500  0.04300  0.20900  1.0000
  H   H6        1.0  0.28300  0.82200  0.24800  1.0000
  H   H7        1.0  0.96200  0.05970  0.32200  1.0000
  H   H8        1.0  0.49200  0.83000  0.43200  1.0000
  H   H9        1.0  0.50800  0.17000  0.56800  1.0000
  H   H10       1.0  0.03790  0.94000  0.67800  1.0000
  H   H11       1.0  0.71700  0.17800  0.75200  1.0000
  H   H12       1.0  0.36500  0.95700  0.79100  1.0000
  H   H13       1.0  0.28300  0.24800  0.82200  1.0000
  H   H14       1.0  0.49200  0.43200  0.83000  1.0000
  H   H15       1.0  0.03790  0.67800  0.94000  1.0000
  H   H16       1.0  0.36500  0.79100  0.95700  1.0000
  Mg  Mg1       1.0  0.00000  0.00000  0.00000  1.0000
  Mg  Mg2       1.0  0.00000  0.61600  0.38400  1.0000
  Mg  Mg3       1.0  0.00000  0.38400  0.61600  1.0000
  O   O1        1.0  0.19000  0.78400  0.01810  1.0000
  O   O2        1.0  0.38300  0.15500  0.15500  1.0000
  O   O3        1.0  0.71500  0.62700  0.16800  1.0000
  O   O4        1.0  0.81000  0.98200  0.21600  1.0000
  O   O5        1.0  0.22600  0.44400  0.24000  1.0000
  O   O6        1.0  0.28500  0.83200  0.37300  1.0000
  O   O7        1.0  0.71800  0.39800  0.39800  1.0000
  O   O8        1.0  0.22600  0.24000  0.44400  1.0000
  O   O9        1.0  0.77400  0.76000  0.55600  1.0000
  O   O10       1.0  0.28200  0.60200  0.60200  1.0000
  O   O11       1.0  0.71500  0.16800  0.62700  1.0000
  O   O12       1.0  0.77400  0.55600  0.76000  1.0000
  O   O13       1.0  0.19000  0.01810  0.78400  1.0000
  O   O14       1.0  0.28500  0.37300  0.83200  1.0000
  O   O15       1.0  0.61700  0.84500  0.84500  1.0000
  O   O16       1.0  0.81000  0.21600  0.98200  1.0000
  P   P1        1.0  0.38600  0.31400  0.31400  1.0000
  P   P2        1.0  0.61400  0.68600  0.68600  1.0000
