data_image0
_chemical_formula_structural       Ge4Ti2
_chemical_formula_sum              "Ge4 Ti2"
_cell_length_a       5.07323
_cell_length_b       5.07323
_cell_length_c       5.00374
_cell_angle_alpha    104.581
_cell_angle_beta     104.581
_cell_angle_gamma    120.226

_space_group_name_H-M_alt    "P 1"
_space_group_IT_number       1

loop_
  _space_group_symop_operation_xyz
  'x, y, z'

loop_
  _atom_site_type_symbol
  _atom_site_label
  _atom_site_symmetry_multiplicity
  _atom_site_fract_x
  _atom_site_fract_y
  _atom_site_fract_z
  _atom_site_occupancy
  Ge  Ge1       1.0  0.58100  0.08140  0.16300  1.0000
  Ge  Ge2       1.0  0.66900  0.66900  0.33700  1.0000
  Ge  Ge3       1.0  0.33100  0.33100  0.66300  1.0000
  Ge  Ge4       1.0  0.91900  0.41900  0.83700  1.0000
  Ti  Ti1       1.0  0.00000  0.00000  0.00000  1.0000
  Ti  Ti2       1.0  0.25000  0.75000  0.50000  1.0000
