data_image0
_chemical_formula_structural       BaBeO4Si
_chemical_formula_sum              "Ba1 Be1 O4 Si1"
_cell_length_a       4.9946
_cell_length_b       5.1091
_cell_length_c       5.1091
_cell_angle_alpha    61.5532
_cell_angle_beta     118.839
_cell_angle_gamma    118.839

_space_group_name_H-M_alt    "P 1"
_space_group_IT_number       1

loop_
  _space_group_symop_operation_xyz
  'x, y, z'

loop_
  _atom_site_type_symbol
  _atom_site_label
  _atom_site_symmetry_multiplicity
  _atom_site_fract_x
  _atom_site_fract_y
  _atom_site_fract_z
  _atom_site_occupancy
  Ba  Ba1       1.0  0.96200  0.97900  0.97900  1.0000
  Be  Be1       1.0  0.73700  0.25300  0.25300  1.0000
  O   O1        1.0  0.11300  0.32100  0.32100  1.0000
  O   O2        1.0  0.55100  0.88000  0.37600  1.0000
  O   O3        1.0  0.73800  0.43800  0.43800  1.0000
  O   O4        1.0  0.55100  0.37600  0.88000  1.0000
  Si  Si1       1.0  0.48600  0.50200  0.50200  1.0000
