data_image0
_chemical_formula_structural       Al8K12O48P12
_chemical_formula_sum              "Al8 K12 O48 P12"
_cell_length_a       8.5515
_cell_length_b       16.8458
_cell_length_c       8.34173
_cell_angle_alpha    90
_cell_angle_beta     90
_cell_angle_gamma    90

_space_group_name_H-M_alt    "P 1"
_space_group_IT_number       1

loop_
  _space_group_symop_operation_xyz
  'x, y, z'

loop_
  _atom_site_type_symbol
  _atom_site_label
  _atom_site_symmetry_multiplicity
  _atom_site_fract_x
  _atom_site_fract_y
  _atom_site_fract_z
  _atom_site_occupancy
  Al  Al1       1.0  0.63100  0.16700  0.28800  1.0000
  Al  Al2       1.0  0.13100  0.33300  0.28800  1.0000
  Al  Al3       1.0  0.14800  0.66100  0.30100  1.0000
  Al  Al4       1.0  0.64800  0.83900  0.30100  1.0000
  Al  Al5       1.0  0.86900  0.66700  0.78800  1.0000
  Al  Al6       1.0  0.36900  0.83300  0.78800  1.0000
  Al  Al7       1.0  0.35200  0.16100  0.80100  1.0000
  Al  Al8       1.0  0.85200  0.33900  0.80100  1.0000
  K   K1        1.0  0.01140  0.09710  0.10600  1.0000
  K   K2        1.0  0.51100  0.40300  0.10600  1.0000
  K   K3        1.0  0.54900  0.64500  0.13000  1.0000
  K   K4        1.0  0.04900  0.85500  0.13000  1.0000
  K   K5        1.0  0.82000  0.50900  0.34000  1.0000
  K   K6        1.0  0.32000  0.99100  0.34000  1.0000
  K   K7        1.0  0.48900  0.59700  0.60600  1.0000
  K   K8        1.0  0.98900  0.90300  0.60600  1.0000
  K   K9        1.0  0.95100  0.14500  0.63000  1.0000
  K   K10       1.0  0.45100  0.35500  0.63000  1.0000
  K   K11       1.0  0.68000  0.00885  0.84000  1.0000
  K   K12       1.0  0.18000  0.49100  0.84000  1.0000
  O   O1        1.0  0.74000  0.52700  0.03760  1.0000
  O   O2        1.0  0.24000  0.97300  0.03760  1.0000
  O   O3        1.0  0.56900  0.20500  0.10400  1.0000
  O   O4        1.0  0.06880  0.29500  0.10400  1.0000
  O   O5        1.0  0.22900  0.69200  0.11900  1.0000
  O   O6        1.0  0.72900  0.80800  0.11900  1.0000
  O   O7        1.0  0.71300  0.07410  0.25000  1.0000
  O   O8        1.0  0.21300  0.42600  0.25000  1.0000
  O   O9        1.0  0.41400  0.53200  0.30200  1.0000
  O   O10       1.0  0.91400  0.96800  0.30200  1.0000
  O   O11       1.0  0.96600  0.70800  0.30700  1.0000
  O   O12       1.0  0.46600  0.79200  0.30700  1.0000
  O   O13       1.0  0.12200  0.55900  0.33100  1.0000
  O   O14       1.0  0.62200  0.94100  0.33100  1.0000
  O   O15       1.0  0.17300  0.13200  0.36200  1.0000
  O   O16       1.0  0.67300  0.36800  0.36200  1.0000
  O   O17       1.0  0.78000  0.22500  0.37400  1.0000
  O   O18       1.0  0.28000  0.27500  0.37400  1.0000
  O   O19       1.0  0.46300  0.15800  0.40700  1.0000
  O   O20       1.0  0.96300  0.34200  0.40700  1.0000
  O   O21       1.0  0.71300  0.65400  0.41700  1.0000
  O   O22       1.0  0.21300  0.84600  0.41700  1.0000
  O   O23       1.0  0.28100  0.69800  0.44300  1.0000
  O   O24       1.0  0.78100  0.80200  0.44300  1.0000
  O   O25       1.0  0.76000  0.02680  0.53800  1.0000
  O   O26       1.0  0.26000  0.47300  0.53800  1.0000
  O   O27       1.0  0.93100  0.70500  0.60400  1.0000
  O   O28       1.0  0.43100  0.79500  0.60400  1.0000
  O   O29       1.0  0.27100  0.19200  0.61900  1.0000
  O   O30       1.0  0.77100  0.30800  0.61900  1.0000
  O   O31       1.0  0.78700  0.57400  0.75000  1.0000
  O   O32       1.0  0.28700  0.92600  0.75000  1.0000
  O   O33       1.0  0.08620  0.03230  0.80200  1.0000
  O   O34       1.0  0.58600  0.46800  0.80200  1.0000
  O   O35       1.0  0.53400  0.20800  0.80700  1.0000
  O   O36       1.0  0.03360  0.29200  0.80700  1.0000
  O   O37       1.0  0.37800  0.05940  0.83100  1.0000
  O   O38       1.0  0.87800  0.44100  0.83100  1.0000
  O   O39       1.0  0.32700  0.63200  0.86200  1.0000
  O   O40       1.0  0.82700  0.86800  0.86200  1.0000
  O   O41       1.0  0.72000  0.72500  0.87400  1.0000
  O   O42       1.0  0.22000  0.77500  0.87400  1.0000
  O   O43       1.0  0.03650  0.65800  0.90700  1.0000
  O   O44       1.0  0.53700  0.84200  0.90700  1.0000
  O   O45       1.0  0.78700  0.15400  0.91700  1.0000
  O   O46       1.0  0.28700  0.34600  0.91700  1.0000
  O   O47       1.0  0.21900  0.19800  0.94300  1.0000
  O   O48       1.0  0.71900  0.30200  0.94300  1.0000
  P   P1        1.0  0.76100  0.00222  0.36200  1.0000
  P   P2        1.0  0.26100  0.49800  0.36200  1.0000
  P   P3        1.0  0.29300  0.18700  0.43400  1.0000
  P   P4        1.0  0.79300  0.31300  0.43400  1.0000
  P   P5        1.0  0.84100  0.71400  0.44200  1.0000
  P   P6        1.0  0.34100  0.78600  0.44200  1.0000
  P   P7        1.0  0.73900  0.50200  0.86200  1.0000
  P   P8        1.0  0.23900  0.99800  0.86200  1.0000
  P   P9        1.0  0.20700  0.68700  0.93400  1.0000
  P   P10       1.0  0.70700  0.81300  0.93400  1.0000
  P   P11       1.0  0.65900  0.21400  0.94300  1.0000
  P   P12       1.0  0.15900  0.28600  0.94300  1.0000
