data_image0
_chemical_formula_structural       Ba4Cd8K4O44V12
_chemical_formula_sum              "Ba4 Cd8 K4 O44 V12"
_cell_length_a       10.245
_cell_length_b       6.96051
_cell_length_c       15.3036
_cell_angle_alpha    90
_cell_angle_beta     94.4546
_cell_angle_gamma    90

_space_group_name_H-M_alt    "P 1"
_space_group_IT_number       1

loop_
  _space_group_symop_operation_xyz
  'x, y, z'

loop_
  _atom_site_type_symbol
  _atom_site_label
  _atom_site_symmetry_multiplicity
  _atom_site_fract_x
  _atom_site_fract_y
  _atom_site_fract_z
  _atom_site_occupancy
  Ba  Ba1       1.0  0.31900  0.45500  0.03950  1.0000
  Ba  Ba2       1.0  0.18100  0.95500  0.46100  1.0000
  Ba  Ba3       1.0  0.81900  0.04510  0.53900  1.0000
  Ba  Ba4       1.0  0.68100  0.54500  0.96100  1.0000
  Cd  Cd1       1.0  0.96300  0.82900  0.07750  1.0000
  Cd  Cd2       1.0  0.21300  0.72700  0.24300  1.0000
  Cd  Cd3       1.0  0.28700  0.22700  0.25700  1.0000
  Cd  Cd4       1.0  0.53700  0.32900  0.42200  1.0000
  Cd  Cd5       1.0  0.46300  0.67100  0.57800  1.0000
  Cd  Cd6       1.0  0.71300  0.77300  0.74300  1.0000
  Cd  Cd7       1.0  0.78700  0.27300  0.75700  1.0000
  Cd  Cd8       1.0  0.03690  0.17100  0.92200  1.0000
  K   K1        1.0  0.63200  0.06400  0.15500  1.0000
  K   K2        1.0  0.86800  0.56400  0.34500  1.0000
  K   K3        1.0  0.13200  0.43600  0.65500  1.0000
  K   K4        1.0  0.36800  0.93600  0.84500  1.0000
  O   O1        1.0  0.42300  0.81400  0.02660  1.0000
  O   O2        1.0  0.75500  0.90200  0.02680  1.0000
  O   O3        1.0  0.00239  0.15500  0.06970  1.0000
  O   O4        1.0  0.89500  0.51800  0.07850  1.0000
  O   O5        1.0  0.18600  0.80000  0.10100  1.0000
  O   O6        1.0  0.58700  0.48900  0.11800  1.0000
  O   O7        1.0  0.37100  0.12200  0.13900  1.0000
  O   O8        1.0  0.12900  0.42600  0.17800  1.0000
  O   O9        1.0  0.89100  0.84100  0.21500  1.0000
  O   O10       1.0  0.38300  0.52600  0.22200  1.0000
  O   O11       1.0  0.88700  0.25600  0.22800  1.0000
  O   O12       1.0  0.61300  0.75600  0.27200  1.0000
  O   O13       1.0  0.11700  0.02570  0.27800  1.0000
  O   O14       1.0  0.60900  0.34100  0.28500  1.0000
  O   O15       1.0  0.37100  0.92600  0.32200  1.0000
  O   O16       1.0  0.12900  0.62200  0.36100  1.0000
  O   O17       1.0  0.91300  0.98900  0.38200  1.0000
  O   O18       1.0  0.31400  0.30000  0.39900  1.0000
  O   O19       1.0  0.60500  0.01830  0.42100  1.0000
  O   O20       1.0  0.49800  0.65500  0.43000  1.0000
  O   O21       1.0  0.74500  0.40200  0.47300  1.0000
  O   O22       1.0  0.07660  0.31400  0.47300  1.0000
  O   O23       1.0  0.92300  0.68600  0.52700  1.0000
  O   O24       1.0  0.25500  0.59800  0.52700  1.0000
  O   O25       1.0  0.50200  0.34500  0.57000  1.0000
  O   O26       1.0  0.39500  0.98200  0.57900  1.0000
  O   O27       1.0  0.68600  0.70000  0.60100  1.0000
  O   O28       1.0  0.08730  0.01050  0.61800  1.0000
  O   O29       1.0  0.87100  0.37800  0.63900  1.0000
  O   O30       1.0  0.62900  0.07390  0.67800  1.0000
  O   O31       1.0  0.39100  0.65900  0.71500  1.0000
  O   O32       1.0  0.88300  0.97400  0.72200  1.0000
  O   O33       1.0  0.38700  0.24400  0.72800  1.0000
  O   O34       1.0  0.11300  0.74400  0.77200  1.0000
  O   O35       1.0  0.61700  0.47400  0.77800  1.0000
  O   O36       1.0  0.10900  0.15900  0.78500  1.0000
  O   O37       1.0  0.87100  0.57400  0.82200  1.0000
  O   O38       1.0  0.62900  0.87800  0.86100  1.0000
  O   O39       1.0  0.41300  0.51100  0.88200  1.0000
  O   O40       1.0  0.81400  0.20000  0.89900  1.0000
  O   O41       1.0  0.10500  0.48200  0.92100  1.0000
  O   O42       1.0  0.99800  0.84500  0.93000  1.0000
  O   O43       1.0  0.24500  0.09820  0.97300  1.0000
  O   O44       1.0  0.57700  0.18600  0.97300  1.0000
  V   V1        1.0  0.30500  0.95900  0.06060  1.0000
  V   V2        1.0  0.97800  0.34400  0.13800  1.0000
  V   V3        1.0  0.55200  0.52800  0.22200  1.0000
  V   V4        1.0  0.94800  0.02830  0.27800  1.0000
  V   V5        1.0  0.52200  0.84400  0.36200  1.0000
  V   V6        1.0  0.19500  0.45800  0.43900  1.0000
  V   V7        1.0  0.80500  0.54200  0.56100  1.0000
  V   V8        1.0  0.47800  0.15600  0.63800  1.0000
  V   V9        1.0  0.05230  0.97200  0.72200  1.0000
  V   V10       1.0  0.44800  0.47200  0.77800  1.0000
  V   V11       1.0  0.02230  0.65600  0.86200  1.0000
  V   V12       1.0  0.69500  0.04150  0.93900  1.0000
