data_image0
_chemical_formula_structural       B8Cu20O40Sn4
_chemical_formula_sum              "B8 Cu20 O40 Sn4"
_cell_length_a       6.29657
_cell_length_b       9.48361
_cell_length_c       12.2129
_cell_angle_alpha    90
_cell_angle_beta     93.4921
_cell_angle_gamma    90

_space_group_name_H-M_alt    "P 1"
_space_group_IT_number       1

loop_
  _space_group_symop_operation_xyz
  'x, y, z'

loop_
  _atom_site_type_symbol
  _atom_site_label
  _atom_site_symmetry_multiplicity
  _atom_site_fract_x
  _atom_site_fract_y
  _atom_site_fract_z
  _atom_site_occupancy
  B   B1        1.0  0.30400  0.25700  0.13000  1.0000
  B   B2        1.0  0.80900  0.27400  0.13300  1.0000
  B   B3        1.0  0.19100  0.77400  0.36700  1.0000
  B   B4        1.0  0.69600  0.75700  0.37000  1.0000
  B   B5        1.0  0.30400  0.24300  0.63000  1.0000
  B   B6        1.0  0.80900  0.22600  0.63300  1.0000
  B   B7        1.0  0.19100  0.72600  0.86700  1.0000
  B   B8        1.0  0.69600  0.74300  0.87000  1.0000
  Cu  Cu1       1.0  0.00000  0.50000  0.00000  1.0000
  Cu  Cu2       1.0  0.50000  0.50000  0.00000  1.0000
  Cu  Cu3       1.0  0.74200  0.01730  0.00071  1.0000
  Cu  Cu4       1.0  0.21900  0.73600  0.12200  1.0000
  Cu  Cu5       1.0  0.98500  0.00000  0.22100  1.0000
  Cu  Cu6       1.0  0.47900  0.98600  0.22400  1.0000
  Cu  Cu7       1.0  0.52100  0.48600  0.27600  1.0000
  Cu  Cu8       1.0  0.01530  0.50000  0.27900  1.0000
  Cu  Cu9       1.0  0.78100  0.23600  0.37800  1.0000
  Cu  Cu10      1.0  0.25800  0.51700  0.49900  1.0000
  Cu  Cu11      1.0  0.00000  0.00000  0.50000  1.0000
  Cu  Cu12      1.0  0.50000  0.00000  0.50000  1.0000
  Cu  Cu13      1.0  0.74200  0.48300  0.50100  1.0000
  Cu  Cu14      1.0  0.21900  0.76400  0.62200  1.0000
  Cu  Cu15      1.0  0.98500  0.50000  0.72100  1.0000
  Cu  Cu16      1.0  0.47900  0.51400  0.72400  1.0000
  Cu  Cu17      1.0  0.52100  0.01360  0.77600  1.0000
  Cu  Cu18      1.0  0.01530  0.00019  0.77900  1.0000
  Cu  Cu19      1.0  0.78100  0.26400  0.87800  1.0000
  Cu  Cu20      1.0  0.25800  0.98300  0.99900  1.0000
  O   O1        1.0  0.81500  0.34600  0.03550  1.0000
  O   O2        1.0  0.31100  0.33800  0.03680  1.0000
  O   O3        1.0  0.92600  0.89400  0.08490  1.0000
  O   O4        1.0  0.44500  0.86900  0.09360  1.0000
  O   O5        1.0  0.28400  0.11300  0.13000  1.0000
  O   O6        1.0  0.77700  0.13000  0.13500  1.0000
  O   O7        1.0  0.49900  0.58400  0.14400  1.0000
  O   O8        1.0  0.99000  0.60200  0.14500  1.0000
  O   O9        1.0  0.30900  0.33200  0.22700  1.0000
  O   O10       1.0  0.82600  0.34300  0.23300  1.0000
  O   O11       1.0  0.17400  0.84300  0.26700  1.0000
  O   O12       1.0  0.69100  0.83200  0.27300  1.0000
  O   O13       1.0  0.01010  0.10200  0.35500  1.0000
  O   O14       1.0  0.50100  0.08370  0.35600  1.0000
  O   O15       1.0  0.22300  0.63000  0.36500  1.0000
  O   O16       1.0  0.71600  0.61300  0.37000  1.0000
  O   O17       1.0  0.55500  0.36900  0.40600  1.0000
  O   O18       1.0  0.07440  0.39400  0.41500  1.0000
  O   O19       1.0  0.68900  0.83800  0.46300  1.0000
  O   O20       1.0  0.18500  0.84600  0.46500  1.0000
  O   O21       1.0  0.81500  0.15400  0.53500  1.0000
  O   O22       1.0  0.31100  0.16200  0.53700  1.0000
  O   O23       1.0  0.92600  0.60600  0.58500  1.0000
  O   O24       1.0  0.44500  0.63100  0.59400  1.0000
  O   O25       1.0  0.28400  0.38700  0.63000  1.0000
  O   O26       1.0  0.77700  0.37000  0.63500  1.0000
  O   O27       1.0  0.49900  0.91600  0.64400  1.0000
  O   O28       1.0  0.99000  0.89800  0.64500  1.0000
  O   O29       1.0  0.30900  0.16800  0.72700  1.0000
  O   O30       1.0  0.82600  0.15700  0.73300  1.0000
  O   O31       1.0  0.17400  0.65700  0.76700  1.0000
  O   O32       1.0  0.69100  0.66800  0.77300  1.0000
  O   O33       1.0  0.01010  0.39800  0.85500  1.0000
  O   O34       1.0  0.50100  0.41600  0.85600  1.0000
  O   O35       1.0  0.22300  0.87000  0.86500  1.0000
  O   O36       1.0  0.71600  0.88700  0.87000  1.0000
  O   O37       1.0  0.55500  0.13100  0.90600  1.0000
  O   O38       1.0  0.07440  0.10600  0.91500  1.0000
  O   O39       1.0  0.68900  0.66200  0.96300  1.0000
  O   O40       1.0  0.18500  0.65400  0.96500  1.0000
  Sn  Sn1       1.0  0.72100  0.73600  0.12300  1.0000
  Sn  Sn2       1.0  0.27900  0.23600  0.37700  1.0000
  Sn  Sn3       1.0  0.72100  0.76400  0.62300  1.0000
  Sn  Sn4       1.0  0.27900  0.26400  0.87700  1.0000
