data_image0
_chemical_formula_structural       Al8O48P12Tl12
_chemical_formula_sum              "Al8 O48 P12 Tl12"
_cell_length_a       6.10288
_cell_length_b       10.3499
_cell_length_c       17.7418
_cell_angle_alpha    90
_cell_angle_beta     90
_cell_angle_gamma    90

_space_group_name_H-M_alt    "P 1"
_space_group_IT_number       1

loop_
  _space_group_symop_operation_xyz
  'x, y, z'

loop_
  _atom_site_type_symbol
  _atom_site_label
  _atom_site_symmetry_multiplicity
  _atom_site_fract_x
  _atom_site_fract_y
  _atom_site_fract_z
  _atom_site_occupancy
  Al  Al1       1.0  0.26000  0.08250  0.28900  1.0000
  Al  Al2       1.0  0.76000  0.41800  0.28900  1.0000
  Al  Al3       1.0  0.23400  0.58300  0.45400  1.0000
  Al  Al4       1.0  0.73400  0.91700  0.45400  1.0000
  Al  Al5       1.0  0.24000  0.58200  0.78900  1.0000
  Al  Al6       1.0  0.74000  0.91800  0.78900  1.0000
  Al  Al7       1.0  0.26600  0.08250  0.95400  1.0000
  Al  Al8       1.0  0.76600  0.41700  0.95400  1.0000
  O   O1        1.0  0.23400  0.09020  0.05380  1.0000
  O   O2        1.0  0.73400  0.41000  0.05380  1.0000
  O   O3        1.0  0.52600  0.59100  0.12100  1.0000
  O   O4        1.0  0.02600  0.90900  0.12100  1.0000
  O   O5        1.0  0.94700  0.58700  0.12200  1.0000
  O   O6        1.0  0.44700  0.91300  0.12200  1.0000
  O   O7        1.0  0.22800  0.08960  0.18900  1.0000
  O   O8        1.0  0.72800  0.41000  0.18900  1.0000
  O   O9        1.0  0.56800  0.09640  0.27400  1.0000
  O   O10       1.0  0.06830  0.40400  0.27400  1.0000
  O   O11       1.0  0.95700  0.06770  0.30000  1.0000
  O   O12       1.0  0.45700  0.43200  0.30000  1.0000
  O   O13       1.0  0.80200  0.57200  0.33200  1.0000
  O   O14       1.0  0.30200  0.92800  0.33200  1.0000
  O   O15       1.0  0.26800  0.22500  0.34600  1.0000
  O   O16       1.0  0.76800  0.27500  0.34600  1.0000
  O   O17       1.0  0.22600  0.72600  0.39800  1.0000
  O   O18       1.0  0.72600  0.77400  0.39800  1.0000
  O   O19       1.0  0.69200  0.07210  0.41100  1.0000
  O   O20       1.0  0.19200  0.42800  0.41100  1.0000
  O   O21       1.0  0.53700  0.56700  0.44300  1.0000
  O   O22       1.0  0.03720  0.93300  0.44300  1.0000
  O   O23       1.0  0.92600  0.59600  0.46900  1.0000
  O   O24       1.0  0.42600  0.90400  0.46900  1.0000
  O   O25       1.0  0.26600  0.59000  0.55400  1.0000
  O   O26       1.0  0.76600  0.91000  0.55400  1.0000
  O   O27       1.0  0.97400  0.09060  0.62100  1.0000
  O   O28       1.0  0.47400  0.40900  0.62100  1.0000
  O   O29       1.0  0.55300  0.08670  0.62200  1.0000
  O   O30       1.0  0.05330  0.41300  0.62200  1.0000
  O   O31       1.0  0.27200  0.59000  0.68900  1.0000
  O   O32       1.0  0.77200  0.91000  0.68900  1.0000
  O   O33       1.0  0.93200  0.59600  0.77400  1.0000
  O   O34       1.0  0.43200  0.90400  0.77400  1.0000
  O   O35       1.0  0.54300  0.56800  0.80000  1.0000
  O   O36       1.0  0.04330  0.93200  0.80000  1.0000
  O   O37       1.0  0.69800  0.07240  0.83200  1.0000
  O   O38       1.0  0.19800  0.42800  0.83200  1.0000
  O   O39       1.0  0.23200  0.72500  0.84600  1.0000
  O   O40       1.0  0.73200  0.77500  0.84600  1.0000
  O   O41       1.0  0.27400  0.22600  0.89800  1.0000
  O   O42       1.0  0.77400  0.27400  0.89800  1.0000
  O   O43       1.0  0.80800  0.57200  0.91100  1.0000
  O   O44       1.0  0.30800  0.92800  0.91100  1.0000
  O   O45       1.0  0.96300  0.06720  0.94300  1.0000
  O   O46       1.0  0.46300  0.43300  0.94300  1.0000
  O   O47       1.0  0.57400  0.09600  0.96900  1.0000
  O   O48       1.0  0.07410  0.40400  0.96900  1.0000
  P   P1        1.0  0.73400  0.50700  0.12100  1.0000
  P   P2        1.0  0.23400  0.99300  0.12100  1.0000
  P   P3        1.0  0.74900  0.12800  0.33200  1.0000
  P   P4        1.0  0.24900  0.37200  0.33200  1.0000
  P   P5        1.0  0.74500  0.62800  0.41100  1.0000
  P   P6        1.0  0.24500  0.87200  0.41100  1.0000
  P   P7        1.0  0.76600  0.00654  0.62100  1.0000
  P   P8        1.0  0.26600  0.49300  0.62100  1.0000
  P   P9        1.0  0.75100  0.62800  0.83200  1.0000
  P   P10       1.0  0.25100  0.87200  0.83200  1.0000
  P   P11       1.0  0.75500  0.12800  0.91100  1.0000
  P   P12       1.0  0.25500  0.37200  0.91100  1.0000
  Tl  Tl1       1.0  0.23500  0.66400  0.01280  1.0000
  Tl  Tl2       1.0  0.73500  0.83600  0.01280  1.0000
  Tl  Tl3       1.0  0.73200  0.14300  0.12200  1.0000
  Tl  Tl4       1.0  0.23200  0.35700  0.12200  1.0000
  Tl  Tl5       1.0  0.23700  0.66300  0.23000  1.0000
  Tl  Tl6       1.0  0.73700  0.83700  0.23000  1.0000
  Tl  Tl7       1.0  0.26500  0.16400  0.51300  1.0000
  Tl  Tl8       1.0  0.76500  0.33600  0.51300  1.0000
  Tl  Tl9       1.0  0.76800  0.64300  0.62200  1.0000
  Tl  Tl10      1.0  0.26800  0.85700  0.62200  1.0000
  Tl  Tl11      1.0  0.26300  0.16300  0.73000  1.0000
  Tl  Tl12      1.0  0.76300  0.33700  0.73000  1.0000
