data_image0
_chemical_formula_structural       Cd10O50P12V6
_chemical_formula_sum              "Cd10 O50 P12 V6"
_cell_length_a       4.6991
_cell_length_b       8.78217
_cell_length_c       23.8268
_cell_angle_alpha    95.3869
_cell_angle_beta     95.6591
_cell_angle_gamma    105.518

_space_group_name_H-M_alt    "P 1"
_space_group_IT_number       1

loop_
  _space_group_symop_operation_xyz
  'x, y, z'

loop_
  _atom_site_type_symbol
  _atom_site_label
  _atom_site_symmetry_multiplicity
  _atom_site_fract_x
  _atom_site_fract_y
  _atom_site_fract_z
  _atom_site_occupancy
  Cd  Cd1       1.0  0.00000  0.00000  0.00000  1.0000
  Cd  Cd2       1.0  0.65200  0.23800  0.11800  1.0000
  Cd  Cd3       1.0  0.52800  0.87800  0.21100  1.0000
  Cd  Cd4       1.0  0.93900  0.62200  0.28900  1.0000
  Cd  Cd5       1.0  0.79600  0.26200  0.38200  1.0000
  Cd  Cd6       1.0  0.50000  0.50000  0.50000  1.0000
  Cd  Cd7       1.0  0.20400  0.73800  0.61800  1.0000
  Cd  Cd8       1.0  0.06090  0.37800  0.71100  1.0000
  Cd  Cd9       1.0  0.47200  0.12200  0.78900  1.0000
  Cd  Cd10      1.0  0.34800  0.76200  0.88200  1.0000
  O   O1        1.0  0.46700  0.16100  0.02290  1.0000
  O   O2        1.0  0.10700  0.77100  0.03690  1.0000
  O   O3        1.0  0.48400  0.61500  0.04150  1.0000
  O   O4        1.0  0.86900  0.41400  0.04940  1.0000
  O   O5        1.0  0.95000  0.08750  0.09160  1.0000
  O   O6        1.0  0.83100  0.82300  0.13500  1.0000
  O   O7        1.0  0.57900  0.47600  0.13900  1.0000
  O   O8        1.0  0.20400  0.63900  0.14700  1.0000
  O   O9        1.0  0.36100  0.01460  0.14700  1.0000
  O   O10       1.0  0.12300  0.37700  0.18700  1.0000
  O   O11       1.0  0.94000  0.07080  0.19700  1.0000
  O   O12       1.0  0.53600  0.62900  0.23200  1.0000
  O   O13       1.0  0.54200  0.25000  0.25000  1.0000
  O   O14       1.0  0.17500  0.87100  0.26800  1.0000
  O   O15       1.0  0.17200  0.42900  0.30300  1.0000
  O   O16       1.0  0.05900  0.12300  0.31300  1.0000
  O   O17       1.0  0.70000  0.48500  0.35300  1.0000
  O   O18       1.0  0.91800  0.86100  0.35300  1.0000
  O   O19       1.0  0.46500  0.02450  0.36100  1.0000
  O   O20       1.0  0.37200  0.67700  0.36500  1.0000
  O   O21       1.0  0.27100  0.41200  0.40800  1.0000
  O   O22       1.0  0.90600  0.08640  0.45100  1.0000
  O   O23       1.0  0.32700  0.88500  0.45900  1.0000
  O   O24       1.0  0.80000  0.72900  0.46300  1.0000
  O   O25       1.0  0.78300  0.33900  0.47700  1.0000
  O   O26       1.0  0.21700  0.66100  0.52300  1.0000
  O   O27       1.0  0.20000  0.27100  0.53700  1.0000
  O   O28       1.0  0.67300  0.11500  0.54100  1.0000
  O   O29       1.0  0.09440  0.91400  0.54900  1.0000
  O   O30       1.0  0.72900  0.58800  0.59200  1.0000
  O   O31       1.0  0.62800  0.32300  0.63500  1.0000
  O   O32       1.0  0.53500  0.97600  0.63900  1.0000
  O   O33       1.0  0.08250  0.13900  0.64700  1.0000
  O   O34       1.0  0.30000  0.51500  0.64700  1.0000
  O   O35       1.0  0.94100  0.87700  0.68700  1.0000
  O   O36       1.0  0.82800  0.57100  0.69700  1.0000
  O   O37       1.0  0.82500  0.12900  0.73200  1.0000
  O   O38       1.0  0.45800  0.75000  0.75000  1.0000
  O   O39       1.0  0.46400  0.37100  0.76800  1.0000
  O   O40       1.0  0.06030  0.92900  0.80300  1.0000
  O   O41       1.0  0.87700  0.62300  0.81300  1.0000
  O   O42       1.0  0.63900  0.98500  0.85300  1.0000
  O   O43       1.0  0.79600  0.36100  0.85300  1.0000
  O   O44       1.0  0.42100  0.52400  0.86100  1.0000
  O   O45       1.0  0.16900  0.17700  0.86500  1.0000
  O   O46       1.0  0.04990  0.91200  0.90800  1.0000
  O   O47       1.0  0.13100  0.58600  0.95100  1.0000
  O   O48       1.0  0.51600  0.38500  0.95900  1.0000
  O   O49       1.0  0.89300  0.22900  0.96300  1.0000
  O   O50       1.0  0.53300  0.83900  0.97700  1.0000
  P   P1        1.0  0.32300  0.70300  0.00263  1.0000
  P   P2        1.0  0.02450  0.99600  0.14000  1.0000
  P   P3        1.0  0.36000  0.52800  0.17500  1.0000
  P   P4        1.0  0.15700  0.97200  0.32500  1.0000
  P   P5        1.0  0.38800  0.50400  0.36000  1.0000
  P   P6        1.0  0.11700  0.79700  0.49700  1.0000
  P   P7        1.0  0.88300  0.20300  0.50300  1.0000
  P   P8        1.0  0.61200  0.49600  0.64000  1.0000
  P   P9        1.0  0.84300  0.02800  0.67500  1.0000
  P   P10       1.0  0.64000  0.47200  0.82500  1.0000
  P   P11       1.0  0.97500  0.00400  0.86000  1.0000
  P   P12       1.0  0.67700  0.29700  0.99700  1.0000
  V   V1        1.0  0.85100  0.62500  0.08700  1.0000
  V   V2        1.0  0.19200  0.25000  0.25000  1.0000
  V   V3        1.0  0.63900  0.87500  0.41300  1.0000
  V   V4        1.0  0.36100  0.12500  0.58700  1.0000
  V   V5        1.0  0.80800  0.75000  0.75000  1.0000
  V   V6        1.0  0.14900  0.37500  0.91300  1.0000
