data_image0
_chemical_formula_structural       F8H32K8O32
_chemical_formula_sum              "F8 H32 K8 O32"
_cell_length_a       10.662
_cell_length_b       5.82631
_cell_length_c       11.897
_cell_angle_alpha    90
_cell_angle_beta     90
_cell_angle_gamma    90

_space_group_name_H-M_alt    "P 1"
_space_group_IT_number       1

loop_
  _space_group_symop_operation_xyz
  'x, y, z'

loop_
  _atom_site_type_symbol
  _atom_site_label
  _atom_site_symmetry_multiplicity
  _atom_site_fract_x
  _atom_site_fract_y
  _atom_site_fract_z
  _atom_site_occupancy
  F   F1        1.0  0.86100  0.39600  0.21900  1.0000
  F   F2        1.0  0.63900  0.89600  0.21900  1.0000
  F   F3        1.0  0.36100  0.39600  0.28100  1.0000
  F   F4        1.0  0.13900  0.89600  0.28100  1.0000
  F   F5        1.0  0.86100  0.10400  0.71900  1.0000
  F   F6        1.0  0.63900  0.60400  0.71900  1.0000
  F   F7        1.0  0.36100  0.10400  0.78100  1.0000
  F   F8        1.0  0.13900  0.60400  0.78100  1.0000
  H   H1        1.0  0.78600  0.20800  0.01520  1.0000
  H   H2        1.0  0.71400  0.70800  0.01520  1.0000
  H   H3        1.0  0.63300  0.06860  0.12400  1.0000
  H   H4        1.0  0.86700  0.56900  0.12400  1.0000
  H   H5        1.0  0.34600  0.23100  0.18300  1.0000
  H   H6        1.0  0.15400  0.73100  0.18300  1.0000
  H   H7        1.0  0.72400  0.39800  0.18600  1.0000
  H   H8        1.0  0.77600  0.89800  0.18600  1.0000
  H   H9        1.0  0.22400  0.39800  0.31400  1.0000
  H   H10       1.0  0.27600  0.89800  0.31400  1.0000
  H   H11       1.0  0.84600  0.23100  0.31700  1.0000
  H   H12       1.0  0.65400  0.73100  0.31700  1.0000
  H   H13       1.0  0.13300  0.06860  0.37600  1.0000
  H   H14       1.0  0.36700  0.56900  0.37600  1.0000
  H   H15       1.0  0.28600  0.20800  0.48500  1.0000
  H   H16       1.0  0.21400  0.70800  0.48500  1.0000
  H   H17       1.0  0.78600  0.29200  0.51500  1.0000
  H   H18       1.0  0.71400  0.79200  0.51500  1.0000
  H   H19       1.0  0.63300  0.43100  0.62400  1.0000
  H   H20       1.0  0.86700  0.93100  0.62400  1.0000
  H   H21       1.0  0.34600  0.26900  0.68300  1.0000
  H   H22       1.0  0.15400  0.76900  0.68300  1.0000
  H   H23       1.0  0.72400  0.10200  0.68600  1.0000
  H   H24       1.0  0.77600  0.60200  0.68600  1.0000
  H   H25       1.0  0.22400  0.10200  0.81400  1.0000
  H   H26       1.0  0.27600  0.60200  0.81400  1.0000
  H   H27       1.0  0.84600  0.26900  0.81700  1.0000
  H   H28       1.0  0.65400  0.76900  0.81700  1.0000
  H   H29       1.0  0.13300  0.43100  0.87600  1.0000
  H   H30       1.0  0.36700  0.93100  0.87600  1.0000
  H   H31       1.0  0.28600  0.29200  0.98500  1.0000
  H   H32       1.0  0.21400  0.79200  0.98500  1.0000
  K   K1        1.0  0.05750  0.19200  0.13000  1.0000
  K   K2        1.0  0.44300  0.69200  0.13000  1.0000
  K   K3        1.0  0.55700  0.19200  0.37000  1.0000
  K   K4        1.0  0.94300  0.69200  0.37000  1.0000
  K   K5        1.0  0.05750  0.30800  0.63000  1.0000
  K   K6        1.0  0.44300  0.80800  0.63000  1.0000
  K   K7        1.0  0.55700  0.30800  0.87000  1.0000
  K   K8        1.0  0.94300  0.80800  0.87000  1.0000
  O   O1        1.0  0.36900  0.27100  0.02340  1.0000
  O   O2        1.0  0.13100  0.77100  0.02340  1.0000
  O   O3        1.0  0.64300  0.20900  0.07450  1.0000
  O   O4        1.0  0.85700  0.70900  0.07450  1.0000
  O   O5        1.0  0.33300  0.12300  0.11800  1.0000
  O   O6        1.0  0.16700  0.62300  0.11800  1.0000
  O   O7        1.0  0.63400  0.39000  0.15900  1.0000
  O   O8        1.0  0.86600  0.89000  0.15900  1.0000
  O   O9        1.0  0.13400  0.39000  0.34100  1.0000
  O   O10       1.0  0.36600  0.89000  0.34100  1.0000
  O   O11       1.0  0.83300  0.12300  0.38200  1.0000
  O   O12       1.0  0.66700  0.62300  0.38200  1.0000
  O   O13       1.0  0.14300  0.20900  0.42600  1.0000
  O   O14       1.0  0.35700  0.70900  0.42600  1.0000
  O   O15       1.0  0.86900  0.27100  0.47700  1.0000
  O   O16       1.0  0.63100  0.77100  0.47700  1.0000
  O   O17       1.0  0.36900  0.22900  0.52300  1.0000
  O   O18       1.0  0.13100  0.72900  0.52300  1.0000
  O   O19       1.0  0.64300  0.29100  0.57400  1.0000
  O   O20       1.0  0.85700  0.79100  0.57400  1.0000
  O   O21       1.0  0.33300  0.37700  0.61800  1.0000
  O   O22       1.0  0.16700  0.87700  0.61800  1.0000
  O   O23       1.0  0.63400  0.11000  0.65900  1.0000
  O   O24       1.0  0.86600  0.61000  0.65900  1.0000
  O   O25       1.0  0.13400  0.11000  0.84100  1.0000
  O   O26       1.0  0.36600  0.61000  0.84100  1.0000
  O   O27       1.0  0.83300  0.37700  0.88200  1.0000
  O   O28       1.0  0.66700  0.87700  0.88200  1.0000
  O   O29       1.0  0.14300  0.29100  0.92600  1.0000
  O   O30       1.0  0.35700  0.79100  0.92600  1.0000
  O   O31       1.0  0.86900  0.22900  0.97700  1.0000
  O   O32       1.0  0.63100  0.72900  0.97700  1.0000
