data_image0
_chemical_formula_structural       As8F48S12Te12
_chemical_formula_sum              "As8 F48 S12 Te12"
_cell_length_a       8.08577
_cell_length_b       11.289
_cell_length_c       14.5301
_cell_angle_alpha    90
_cell_angle_beta     91.1265
_cell_angle_gamma    90

_space_group_name_H-M_alt    "P 1"
_space_group_IT_number       1

loop_
  _space_group_symop_operation_xyz
  'x, y, z'

loop_
  _atom_site_type_symbol
  _atom_site_label
  _atom_site_symmetry_multiplicity
  _atom_site_fract_x
  _atom_site_fract_y
  _atom_site_fract_z
  _atom_site_occupancy
  As  As1       1.0  0.77300  0.29600  0.06540  1.0000
  As  As2       1.0  0.31000  0.47600  0.22600  1.0000
  As  As3       1.0  0.19000  0.97600  0.27400  1.0000
  As  As4       1.0  0.72700  0.79600  0.43500  1.0000
  As  As5       1.0  0.27300  0.20400  0.56500  1.0000
  As  As6       1.0  0.81000  0.02400  0.72600  1.0000
  As  As7       1.0  0.69000  0.52400  0.77400  1.0000
  As  As8       1.0  0.22700  0.70400  0.93500  1.0000
  F   F1        1.0  0.92800  0.37600  0.00730  1.0000
  F   F2        1.0  0.62500  0.39600  0.02010  1.0000
  F   F3        1.0  0.25700  0.79500  0.03210  1.0000
  F   F4        1.0  0.91800  0.19700  0.11400  1.0000
  F   F5        1.0  0.61300  0.22100  0.12300  1.0000
  F   F6        1.0  0.44100  0.51200  0.13500  1.0000
  F   F7        1.0  0.14200  0.45100  0.14800  1.0000
  F   F8        1.0  0.79900  0.39100  0.16200  1.0000
  F   F9        1.0  0.31700  0.94000  0.18000  1.0000
  F   F10       1.0  0.02320  0.00149  0.19700  1.0000
  F   F11       1.0  0.36500  0.32600  0.21400  1.0000
  F   F12       1.0  0.24900  0.62600  0.23200  1.0000
  F   F13       1.0  0.25100  0.12600  0.26800  1.0000
  F   F14       1.0  0.13500  0.82600  0.28600  1.0000
  F   F15       1.0  0.47700  0.50100  0.30300  1.0000
  F   F16       1.0  0.18300  0.44000  0.32000  1.0000
  F   F17       1.0  0.70100  0.89100  0.33800  1.0000
  F   F18       1.0  0.35800  0.95100  0.35200  1.0000
  F   F19       1.0  0.05880  0.01150  0.36500  1.0000
  F   F20       1.0  0.88700  0.72100  0.37700  1.0000
  F   F21       1.0  0.58200  0.69700  0.38600  1.0000
  F   F22       1.0  0.24300  0.29500  0.46800  1.0000
  F   F23       1.0  0.87500  0.89600  0.48000  1.0000
  F   F24       1.0  0.57200  0.87600  0.49300  1.0000
  F   F25       1.0  0.42800  0.12400  0.50700  1.0000
  F   F26       1.0  0.12500  0.10400  0.52000  1.0000
  F   F27       1.0  0.75700  0.70500  0.53200  1.0000
  F   F28       1.0  0.41800  0.30300  0.61400  1.0000
  F   F29       1.0  0.11300  0.27900  0.62300  1.0000
  F   F30       1.0  0.94100  0.98800  0.63500  1.0000
  F   F31       1.0  0.64200  0.04950  0.64800  1.0000
  F   F32       1.0  0.29900  0.10900  0.66200  1.0000
  F   F33       1.0  0.81700  0.56000  0.68000  1.0000
  F   F34       1.0  0.52300  0.49900  0.69700  1.0000
  F   F35       1.0  0.86500  0.17400  0.71400  1.0000
  F   F36       1.0  0.74900  0.87400  0.73200  1.0000
  F   F37       1.0  0.75100  0.37400  0.76800  1.0000
  F   F38       1.0  0.63500  0.67400  0.78600  1.0000
  F   F39       1.0  0.97700  0.99900  0.80300  1.0000
  F   F40       1.0  0.68300  0.06010  0.82000  1.0000
  F   F41       1.0  0.20100  0.60900  0.83800  1.0000
  F   F42       1.0  0.85800  0.54900  0.85200  1.0000
  F   F43       1.0  0.55900  0.48800  0.86500  1.0000
  F   F44       1.0  0.38700  0.77900  0.87700  1.0000
  F   F45       1.0  0.08170  0.80300  0.88600  1.0000
  F   F46       1.0  0.74300  0.20500  0.96800  1.0000
  F   F47       1.0  0.37500  0.60400  0.98000  1.0000
  F   F48       1.0  0.07200  0.62400  0.99300  1.0000
  S   S1        1.0  0.83200  0.93700  0.03970  1.0000
  S   S2        1.0  0.26200  0.16400  0.06270  1.0000
  S   S3        1.0  0.62600  0.96600  0.11200  1.0000
  S   S4        1.0  0.87400  0.46600  0.38800  1.0000
  S   S5        1.0  0.23800  0.66400  0.43700  1.0000
  S   S6        1.0  0.66800  0.43700  0.46000  1.0000
  S   S7        1.0  0.33200  0.56300  0.54000  1.0000
  S   S8        1.0  0.76200  0.33600  0.56300  1.0000
  S   S9        1.0  0.12600  0.53400  0.61200  1.0000
  S   S10       1.0  0.37400  0.03400  0.88800  1.0000
  S   S11       1.0  0.73800  0.83600  0.93700  1.0000
  S   S12       1.0  0.16800  0.06350  0.96000  1.0000
  Te  Te1       1.0  0.70600  0.64900  0.02270  1.0000
  Te  Te2       1.0  0.90200  0.69400  0.17200  1.0000
  Te  Te3       1.0  0.58200  0.76600  0.17700  1.0000
  Te  Te4       1.0  0.91800  0.26600  0.32300  1.0000
  Te  Te5       1.0  0.59800  0.19400  0.32800  1.0000
  Te  Te6       1.0  0.79400  0.14900  0.47700  1.0000
  Te  Te7       1.0  0.20600  0.85100  0.52300  1.0000
  Te  Te8       1.0  0.40200  0.80600  0.67200  1.0000
  Te  Te9       1.0  0.08160  0.73400  0.67700  1.0000
  Te  Te10      1.0  0.41800  0.23400  0.82300  1.0000
  Te  Te11      1.0  0.09800  0.30600  0.82800  1.0000
  Te  Te12      1.0  0.29400  0.35100  0.97700  1.0000
