data_image0
_chemical_formula_structural       H20O40P12Pr8
_chemical_formula_sum              "H20 O40 P12 Pr8"
_cell_length_a       9.51466
_cell_length_b       7.9082
_cell_length_c       13.0996
_cell_angle_alpha    90
_cell_angle_beta     108.793
_cell_angle_gamma    90

_space_group_name_H-M_alt    "P 1"
_space_group_IT_number       1

loop_
  _space_group_symop_operation_xyz
  'x, y, z'

loop_
  _atom_site_type_symbol
  _atom_site_label
  _atom_site_symmetry_multiplicity
  _atom_site_fract_x
  _atom_site_fract_y
  _atom_site_fract_z
  _atom_site_occupancy
  H   H1        1.0  0.01200  0.60400  0.01420  1.0000
  H   H2        1.0  0.21100  0.27600  0.01770  1.0000
  H   H3        1.0  0.94900  0.43400  0.16900  1.0000
  H   H4        1.0  0.81800  0.75400  0.17300  1.0000
  H   H5        1.0  0.11500  0.47400  0.25000  1.0000
  H   H6        1.0  0.38500  0.97400  0.25000  1.0000
  H   H7        1.0  0.68200  0.25400  0.32700  1.0000
  H   H8        1.0  0.55100  0.93400  0.33100  1.0000
  H   H9        1.0  0.28900  0.77600  0.48200  1.0000
  H   H10       1.0  0.48800  0.10400  0.48600  1.0000
  H   H11       1.0  0.51200  0.89600  0.51400  1.0000
  H   H12       1.0  0.71100  0.22400  0.51800  1.0000
  H   H13       1.0  0.44900  0.06630  0.66900  1.0000
  H   H14       1.0  0.31800  0.74600  0.67300  1.0000
  H   H15       1.0  0.61500  0.02570  0.75000  1.0000
  H   H16       1.0  0.88500  0.52600  0.75000  1.0000
  H   H17       1.0  0.18200  0.24600  0.82700  1.0000
  H   H18       1.0  0.05100  0.56600  0.83100  1.0000
  H   H19       1.0  0.78900  0.72400  0.98200  1.0000
  H   H20       1.0  0.98800  0.39600  0.98600  1.0000
  O   O1        1.0  0.39800  0.06340  0.04170  1.0000
  O   O2        1.0  0.89300  0.15100  0.04590  1.0000
  O   O3        1.0  0.26500  0.68000  0.10500  1.0000
  O   O4        1.0  0.56000  0.67600  0.11800  1.0000
  O   O5        1.0  0.76600  0.47000  0.11900  1.0000
  O   O6        1.0  0.04000  0.83400  0.13100  1.0000
  O   O7        1.0  0.45200  0.33300  0.14100  1.0000
  O   O8        1.0  0.26600  0.11900  0.17900  1.0000
  O   O9        1.0  0.05100  0.38700  0.20200  1.0000
  O   O10       1.0  0.76700  0.08430  0.20700  1.0000
  O   O11       1.0  0.73300  0.58400  0.29300  1.0000
  O   O12       1.0  0.44900  0.88700  0.29800  1.0000
  O   O13       1.0  0.23400  0.61900  0.32100  1.0000
  O   O14       1.0  0.04800  0.83300  0.35900  1.0000
  O   O15       1.0  0.46000  0.33400  0.36900  1.0000
  O   O16       1.0  0.73400  0.97000  0.38100  1.0000
  O   O17       1.0  0.94000  0.17600  0.38200  1.0000
  O   O18       1.0  0.23500  0.18000  0.39500  1.0000
  O   O19       1.0  0.60700  0.65100  0.45400  1.0000
  O   O20       1.0  0.10200  0.56300  0.45800  1.0000
  O   O21       1.0  0.89800  0.43700  0.54200  1.0000
  O   O22       1.0  0.39300  0.34900  0.54600  1.0000
  O   O23       1.0  0.76500  0.82000  0.60500  1.0000
  O   O24       1.0  0.06000  0.82400  0.61800  1.0000
  O   O25       1.0  0.26600  0.03010  0.61900  1.0000
  O   O26       1.0  0.54000  0.66600  0.63100  1.0000
  O   O27       1.0  0.95200  0.16700  0.64100  1.0000
  O   O28       1.0  0.76600  0.38100  0.67900  1.0000
  O   O29       1.0  0.55100  0.11300  0.70200  1.0000
  O   O30       1.0  0.26700  0.41600  0.70700  1.0000
  O   O31       1.0  0.23300  0.91600  0.79300  1.0000
  O   O32       1.0  0.94900  0.61300  0.79800  1.0000
  O   O33       1.0  0.73400  0.88100  0.82100  1.0000
  O   O34       1.0  0.54800  0.66700  0.85900  1.0000
  O   O35       1.0  0.96000  0.16600  0.86900  1.0000
  O   O36       1.0  0.23400  0.53000  0.88100  1.0000
  O   O37       1.0  0.44000  0.32400  0.88200  1.0000
  O   O38       1.0  0.73500  0.32000  0.89500  1.0000
  O   O39       1.0  0.10700  0.84900  0.95400  1.0000
  O   O40       1.0  0.60200  0.93700  0.95800  1.0000
  P   P1        1.0  0.10300  0.74500  0.05320  1.0000
  P   P2        1.0  0.32900  0.19800  0.09710  1.0000
  P   P3        1.0  0.72200  0.62100  0.17400  1.0000
  P   P4        1.0  0.77800  0.12100  0.32600  1.0000
  P   P5        1.0  0.17100  0.69800  0.40300  1.0000
  P   P6        1.0  0.39700  0.24500  0.44700  1.0000
  P   P7        1.0  0.60300  0.75500  0.55300  1.0000
  P   P8        1.0  0.82900  0.30200  0.59700  1.0000
  P   P9        1.0  0.22200  0.87900  0.67400  1.0000
  P   P10       1.0  0.27800  0.37900  0.82600  1.0000
  P   P11       1.0  0.67100  0.80200  0.90300  1.0000
  P   P12       1.0  0.89700  0.25500  0.94700  1.0000
  Pr  Pr1       1.0  0.62900  0.21600  0.03660  1.0000
  Pr  Pr2       1.0  0.04860  0.08020  0.23200  1.0000
  Pr  Pr3       1.0  0.45100  0.58000  0.26800  1.0000
  Pr  Pr4       1.0  0.87100  0.71600  0.46300  1.0000
  Pr  Pr5       1.0  0.12900  0.28400  0.53700  1.0000
  Pr  Pr6       1.0  0.54900  0.42000  0.73200  1.0000
  Pr  Pr7       1.0  0.95100  0.92000  0.76800  1.0000
  Pr  Pr8       1.0  0.37100  0.78400  0.96300  1.0000
