data_image0
_chemical_formula_structural       Ca24Li12N32O6W8
_chemical_formula_sum              "Ca24 Li12 N32 O6 W8"
_cell_length_a       11.2715
_cell_length_b       11.2715
_cell_length_c       11.2715
_cell_angle_alpha    109.471
_cell_angle_beta     109.471
_cell_angle_gamma    109.471

_space_group_name_H-M_alt    "P 1"
_space_group_IT_number       1

loop_
  _space_group_symop_operation_xyz
  'x, y, z'

loop_
  _atom_site_type_symbol
  _atom_site_label
  _atom_site_symmetry_multiplicity
  _atom_site_fract_x
  _atom_site_fract_y
  _atom_site_fract_z
  _atom_site_occupancy
  Ca  Ca1       1.0  0.59600  0.20900  0.03830  1.0000
  Ca  Ca2       1.0  0.96200  0.67100  0.05720  1.0000
  Ca  Ca3       1.0  0.20900  0.53800  0.09550  1.0000
  Ca  Ca4       1.0  0.44300  0.40400  0.11300  1.0000
  Ca  Ca5       1.0  0.55700  0.96200  0.17100  1.0000
  Ca  Ca6       1.0  0.09550  0.03830  0.20900  1.0000
  Ca  Ca7       1.0  0.32900  0.88700  0.29100  1.0000
  Ca  Ca8       1.0  0.29100  0.38700  0.32900  1.0000
  Ca  Ca9       1.0  0.79100  0.32900  0.38700  1.0000
  Ca  Ca10      1.0  0.94300  0.11300  0.40400  1.0000
  Ca  Ca11      1.0  0.11300  0.90400  0.44300  1.0000
  Ca  Ca12      1.0  0.67100  0.55700  0.46200  1.0000
  Ca  Ca13      1.0  0.70900  0.09550  0.53800  1.0000
  Ca  Ca14      1.0  0.17100  0.46200  0.55700  1.0000
  Ca  Ca15      1.0  0.03830  0.70900  0.59600  1.0000
  Ca  Ca16      1.0  0.90400  0.94300  0.61300  1.0000
  Ca  Ca17      1.0  0.46200  0.05720  0.67100  1.0000
  Ca  Ca18      1.0  0.53800  0.59600  0.70900  1.0000
  Ca  Ca19      1.0  0.38700  0.82900  0.79100  1.0000
  Ca  Ca20      1.0  0.88700  0.79100  0.82900  1.0000
  Ca  Ca21      1.0  0.82900  0.29100  0.88700  1.0000
  Ca  Ca22      1.0  0.61300  0.44300  0.90400  1.0000
  Ca  Ca23      1.0  0.40400  0.61300  0.94300  1.0000
  Ca  Ca24      1.0  0.05720  0.17100  0.96200  1.0000
  Li  Li1       1.0  0.75000  0.77400  0.02400  1.0000
  Li  Li2       1.0  0.97600  0.25000  0.22600  1.0000
  Li  Li3       1.0  0.47600  0.22600  0.25000  1.0000
  Li  Li4       1.0  0.77400  0.52400  0.25000  1.0000
  Li  Li5       1.0  0.52400  0.75000  0.27400  1.0000
  Li  Li6       1.0  0.25000  0.72600  0.47600  1.0000
  Li  Li7       1.0  0.27400  0.25000  0.52400  1.0000
  Li  Li8       1.0  0.75000  0.47600  0.72600  1.0000
  Li  Li9       1.0  0.02400  0.27400  0.75000  1.0000
  Li  Li10      1.0  0.72600  0.97600  0.75000  1.0000
  Li  Li11      1.0  0.25000  0.02400  0.77400  1.0000
  Li  Li12      1.0  0.22600  0.75000  0.97600  1.0000
  N   N1        1.0  0.39200  0.00000  0.00000  1.0000
  N   N2        1.0  0.89200  0.00000  0.00000  1.0000
  N   N3        1.0  0.13400  0.86700  0.05210  1.0000
  N   N4        1.0  0.81500  0.44800  0.08200  1.0000
  N   N5        1.0  0.60800  0.60800  0.10800  1.0000
  N   N6        1.0  0.26700  0.18500  0.13300  1.0000
  N   N7        1.0  0.05210  0.36700  0.13400  1.0000
  N   N8        1.0  0.76700  0.13300  0.18500  1.0000
  N   N9        1.0  0.91800  0.86600  0.23300  1.0000
  N   N10       1.0  0.13300  0.68500  0.26700  1.0000
  N   N11       1.0  0.44800  0.58200  0.31500  1.0000
  N   N12       1.0  0.73300  0.91800  0.36600  1.0000
  N   N13       1.0  0.55200  0.13400  0.36700  1.0000
  N   N14       1.0  0.00000  0.50000  0.39200  1.0000
  N   N15       1.0  0.86600  0.73300  0.41800  1.0000
  N   N16       1.0  0.31500  0.08200  0.44800  1.0000
  N   N17       1.0  0.50000  0.89200  0.50000  1.0000
  N   N18       1.0  0.50000  0.39200  0.50000  1.0000
  N   N19       1.0  0.36700  0.63400  0.55200  1.0000
  N   N20       1.0  0.94800  0.31500  0.58200  1.0000
  N   N21       1.0  0.10800  0.10800  0.60800  1.0000
  N   N22       1.0  0.68500  0.76700  0.63300  1.0000
  N   N23       1.0  0.86700  0.55200  0.63400  1.0000
  N   N24       1.0  0.63300  0.26700  0.68500  1.0000
  N   N25       1.0  0.36600  0.41800  0.73300  1.0000
  N   N26       1.0  0.18500  0.63300  0.76700  1.0000
  N   N27       1.0  0.08200  0.94800  0.81500  1.0000
  N   N28       1.0  0.41800  0.23300  0.86600  1.0000
  N   N29       1.0  0.63400  0.05210  0.86700  1.0000
  N   N30       1.0  0.00000  0.50000  0.89200  1.0000
  N   N31       1.0  0.23300  0.36600  0.91800  1.0000
  N   N32       1.0  0.58200  0.81500  0.94800  1.0000
  O   O1        1.0  0.37500  0.75000  0.12500  1.0000
  O   O2        1.0  0.62500  0.37500  0.25000  1.0000
  O   O3        1.0  0.12500  0.25000  0.37500  1.0000
  O   O4        1.0  0.25000  0.87500  0.62500  1.0000
  O   O5        1.0  0.87500  0.12500  0.75000  1.0000
  O   O6        1.0  0.75000  0.62500  0.87500  1.0000
  W   W1        1.0  0.22500  0.00000  0.00000  1.0000
  W   W2        1.0  0.72500  0.00000  0.00000  1.0000
  W   W3        1.0  0.00000  0.50000  0.22500  1.0000
  W   W4        1.0  0.77500  0.77500  0.27500  1.0000
  W   W5        1.0  0.50000  0.22500  0.50000  1.0000
  W   W6        1.0  0.50000  0.72500  0.50000  1.0000
  W   W7        1.0  1.00000  0.50000  0.72500  1.0000
  W   W8        1.0  0.27500  0.27500  0.77500  1.0000
