data_image0
_chemical_formula_structural       Ge4Ho4Mn4
_chemical_formula_sum              "Ge4 Ho4 Mn4"
_cell_length_a       6.99938
_cell_length_b       4.05753
_cell_length_c       7.96852
_cell_angle_alpha    90
_cell_angle_beta     90
_cell_angle_gamma    90

_space_group_name_H-M_alt    "P 1"
_space_group_IT_number       1

loop_
  _space_group_symop_operation_xyz
  'x, y, z'

loop_
  _atom_site_type_symbol
  _atom_site_label
  _atom_site_symmetry_multiplicity
  _atom_site_fract_x
  _atom_site_fract_y
  _atom_site_fract_z
  _atom_site_occupancy
  Ge  Ge1       1.0  0.77200  0.25000  0.11700  1.0000
  Ge  Ge2       1.0  0.27200  0.25000  0.38300  1.0000
  Ge  Ge3       1.0  0.72800  0.75000  0.61700  1.0000
  Ge  Ge4       1.0  0.22800  0.75000  0.88300  1.0000
  Ho  Ho1       1.0  0.47200  0.75000  0.18300  1.0000
  Ho  Ho2       1.0  0.97200  0.75000  0.31700  1.0000
  Ho  Ho3       1.0  0.02840  0.25000  0.68300  1.0000
  Ho  Ho4       1.0  0.52800  0.25000  0.81700  1.0000
  Mn  Mn1       1.0  0.13100  0.25000  0.05640  1.0000
  Mn  Mn2       1.0  0.63100  0.25000  0.44400  1.0000
  Mn  Mn3       1.0  0.36900  0.75000  0.55600  1.0000
  Mn  Mn4       1.0  0.86900  0.75000  0.94400  1.0000
