data_image0
_chemical_formula_structural       O52Se12Sr8V8
_chemical_formula_sum              "O52 Se12 Sr8 V8"
_cell_length_a       14.6187
_cell_length_b       9.69573
_cell_length_c       8.35926
_cell_angle_alpha    90
_cell_angle_beta     96.8067
_cell_angle_gamma    90

_space_group_name_H-M_alt    "P 1"
_space_group_IT_number       1

loop_
  _space_group_symop_operation_xyz
  'x, y, z'

loop_
  _atom_site_type_symbol
  _atom_site_label
  _atom_site_symmetry_multiplicity
  _atom_site_fract_x
  _atom_site_fract_y
  _atom_site_fract_z
  _atom_site_occupancy
  O   O1        1.0  0.24100  0.97900  0.00437  1.0000
  O   O2        1.0  0.48300  0.63200  0.03110  1.0000
  O   O3        1.0  0.19200  0.65400  0.05260  1.0000
  O   O4        1.0  0.93400  0.11200  0.06300  1.0000
  O   O5        1.0  0.06630  0.41200  0.09670  1.0000
  O   O6        1.0  0.88900  0.83900  0.10100  1.0000
  O   O7        1.0  0.36100  0.43500  0.10800  1.0000
  O   O8        1.0  0.68700  0.39600  0.14500  1.0000
  O   O9        1.0  0.60400  0.12200  0.16300  1.0000
  O   O10       1.0  0.65200  0.67100  0.19200  1.0000
  O   O11       1.0  0.11600  0.15400  0.20100  1.0000
  O   O12       1.0  0.46500  0.95700  0.22100  1.0000
  O   O13       1.0  0.13400  0.89800  0.24200  1.0000
  O   O14       1.0  0.86600  0.39800  0.25800  1.0000
  O   O15       1.0  0.53500  0.45700  0.27900  1.0000
  O   O16       1.0  0.88400  0.65400  0.29900  1.0000
  O   O17       1.0  0.34800  0.17100  0.30800  1.0000
  O   O18       1.0  0.39600  0.62200  0.33700  1.0000
  O   O19       1.0  0.31300  0.89600  0.35500  1.0000
  O   O20       1.0  0.63900  0.93500  0.39200  1.0000
  O   O21       1.0  0.11100  0.33900  0.39900  1.0000
  O   O22       1.0  0.93400  0.91200  0.40300  1.0000
  O   O23       1.0  0.06610  0.61200  0.43700  1.0000
  O   O24       1.0  0.80800  0.15400  0.44700  1.0000
  O   O25       1.0  0.51700  0.13200  0.46900  1.0000
  O   O26       1.0  0.75900  0.47900  0.49600  1.0000
  O   O27       1.0  0.24100  0.52100  0.50400  1.0000
  O   O28       1.0  0.48300  0.86800  0.53100  1.0000
  O   O29       1.0  0.19200  0.84600  0.55300  1.0000
  O   O30       1.0  0.93400  0.38800  0.56300  1.0000
  O   O31       1.0  0.06630  0.08790  0.59700  1.0000
  O   O32       1.0  0.88900  0.66100  0.60100  1.0000
  O   O33       1.0  0.36100  0.06510  0.60800  1.0000
  O   O34       1.0  0.68700  0.10400  0.64500  1.0000
  O   O35       1.0  0.60400  0.37800  0.66300  1.0000
  O   O36       1.0  0.65200  0.82900  0.69200  1.0000
  O   O37       1.0  0.11600  0.34600  0.70100  1.0000
  O   O38       1.0  0.46500  0.54300  0.72100  1.0000
  O   O39       1.0  0.13400  0.60200  0.74200  1.0000
  O   O40       1.0  0.86600  0.10200  0.75800  1.0000
  O   O41       1.0  0.53500  0.04260  0.77900  1.0000
  O   O42       1.0  0.88400  0.84600  0.79900  1.0000
  O   O43       1.0  0.34800  0.32900  0.80800  1.0000
  O   O44       1.0  0.39600  0.87800  0.83700  1.0000
  O   O45       1.0  0.31300  0.60400  0.85500  1.0000
  O   O46       1.0  0.63900  0.56500  0.89200  1.0000
  O   O47       1.0  0.11100  0.16100  0.89900  1.0000
  O   O48       1.0  0.93400  0.58800  0.90300  1.0000
  O   O49       1.0  0.06610  0.88800  0.93700  1.0000
  O   O50       1.0  0.80800  0.34600  0.94700  1.0000
  O   O51       1.0  0.51700  0.36800  0.96900  1.0000
  O   O52       1.0  0.75900  0.02100  0.99600  1.0000
  Se  Se1       1.0  0.79000  0.46300  0.09060  1.0000
  Se  Se2       1.0  0.58300  0.95400  0.19600  1.0000
  Se  Se3       1.0  0.15200  0.32600  0.21000  1.0000
  Se  Se4       1.0  0.84800  0.82600  0.29000  1.0000
  Se  Se5       1.0  0.41700  0.45400  0.30400  1.0000
  Se  Se6       1.0  0.21000  0.96300  0.40900  1.0000
  Se  Se7       1.0  0.79000  0.03730  0.59100  1.0000
  Se  Se8       1.0  0.58300  0.54600  0.69600  1.0000
  Se  Se9       1.0  0.15200  0.17400  0.71000  1.0000
  Se  Se10      1.0  0.84800  0.67400  0.79000  1.0000
  Se  Se11      1.0  0.41700  0.04590  0.80400  1.0000
  Se  Se12      1.0  0.21000  0.53700  0.90900  1.0000
  Sr  Sr1       1.0  0.35100  0.77900  0.09590  1.0000
  Sr  Sr2       1.0  0.03850  0.68200  0.14500  1.0000
  Sr  Sr3       1.0  0.96100  0.18200  0.35500  1.0000
  Sr  Sr4       1.0  0.64900  0.27900  0.40400  1.0000
  Sr  Sr5       1.0  0.35100  0.72100  0.59600  1.0000
  Sr  Sr6       1.0  0.03850  0.81800  0.64500  1.0000
  Sr  Sr7       1.0  0.96100  0.31800  0.85500  1.0000
  Sr  Sr8       1.0  0.64900  0.22100  0.90400  1.0000
  V   V1        1.0  0.13500  0.00427  0.04230  1.0000
  V   V2        1.0  0.58500  0.55400  0.09700  1.0000
  V   V3        1.0  0.41500  0.05440  0.40300  1.0000
  V   V4        1.0  0.86500  0.50400  0.45800  1.0000
  V   V5        1.0  0.13500  0.49600  0.54200  1.0000
  V   V6        1.0  0.58500  0.94600  0.59700  1.0000
  V   V7        1.0  0.41500  0.44600  0.90300  1.0000
  V   V8        1.0  0.86500  0.99600  0.95800  1.0000
