data_image0
_chemical_formula_structural       Cu2O12Sr2Te4
_chemical_formula_sum              "Cu2 O12 Sr2 Te4"
_cell_length_a       4.79708
_cell_length_b       4.79708
_cell_length_c       15.0942
_cell_angle_alpha    89.932
_cell_angle_beta     89.932
_cell_angle_gamma    67.1975

_space_group_name_H-M_alt    "P 1"
_space_group_IT_number       1

loop_
  _space_group_symop_operation_xyz
  'x, y, z'

loop_
  _atom_site_type_symbol
  _atom_site_label
  _atom_site_symmetry_multiplicity
  _atom_site_fract_x
  _atom_site_fract_y
  _atom_site_fract_z
  _atom_site_occupancy
  Cu  Cu1       1.0  0.00000  0.00000  0.00000  1.0000
  Cu  Cu2       1.0  0.00000  0.00000  0.50000  1.0000
  O   O1        1.0  0.75300  0.33600  0.07690  1.0000
  O   O2        1.0  0.15500  0.77100  0.10600  1.0000
  O   O3        1.0  0.37700  0.23100  0.20700  1.0000
  O   O4        1.0  0.76900  0.62300  0.29300  1.0000
  O   O5        1.0  0.22900  0.84500  0.39400  1.0000
  O   O6        1.0  0.66400  0.24700  0.42300  1.0000
  O   O7        1.0  0.33600  0.75300  0.57700  1.0000
  O   O8        1.0  0.77100  0.15500  0.60600  1.0000
  O   O9        1.0  0.23100  0.37700  0.70700  1.0000
  O   O10       1.0  0.62300  0.76900  0.79300  1.0000
  O   O11       1.0  0.84500  0.22900  0.89400  1.0000
  O   O12       1.0  0.24700  0.66400  0.92300  1.0000
  Sr  Sr1       1.0  0.94700  0.05320  0.25000  1.0000
  Sr  Sr2       1.0  0.05320  0.94700  0.75000  1.0000
  Te  Te1       1.0  0.34800  0.34500  0.08920  1.0000
  Te  Te2       1.0  0.65500  0.65200  0.41100  1.0000
  Te  Te3       1.0  0.34500  0.34800  0.58900  1.0000
  Te  Te4       1.0  0.65200  0.65500  0.91100  1.0000
