data_image0
_chemical_formula_structural       Au2Ba2O12S4
_chemical_formula_sum              "Au2 Ba2 O12 S4"
_cell_length_a       4.78176
_cell_length_b       4.78176
_cell_length_c       15.6173
_cell_angle_alpha    90.4938
_cell_angle_beta     90.4938
_cell_angle_gamma    66.8479

_space_group_name_H-M_alt    "P 1"
_space_group_IT_number       1

loop_
  _space_group_symop_operation_xyz
  'x, y, z'

loop_
  _atom_site_type_symbol
  _atom_site_label
  _atom_site_symmetry_multiplicity
  _atom_site_fract_x
  _atom_site_fract_y
  _atom_site_fract_z
  _atom_site_occupancy
  Au  Au1       1.0  0.00000  0.00000  0.00000  1.0000
  Au  Au2       1.0  0.00000  0.00000  0.50000  1.0000
  Ba  Ba1       1.0  0.96000  0.04000  0.25000  1.0000
  Ba  Ba2       1.0  0.04000  0.96000  0.75000  1.0000
  O   O1        1.0  0.71500  0.33700  0.09310  1.0000
  O   O2        1.0  0.20400  0.72000  0.10700  1.0000
  O   O3        1.0  0.35700  0.26800  0.19100  1.0000
  O   O4        1.0  0.73200  0.64300  0.30900  1.0000
  O   O5        1.0  0.28000  0.79600  0.39300  1.0000
  O   O6        1.0  0.66300  0.28500  0.40700  1.0000
  O   O7        1.0  0.33700  0.71500  0.59300  1.0000
  O   O8        1.0  0.72000  0.20400  0.60700  1.0000
  O   O9        1.0  0.26800  0.35700  0.69100  1.0000
  O   O10       1.0  0.64300  0.73200  0.80900  1.0000
  O   O11       1.0  0.79600  0.28000  0.89300  1.0000
  O   O12       1.0  0.28500  0.66300  0.90700  1.0000
  S   S1        1.0  0.37700  0.36600  0.09980  1.0000
  S   S2        1.0  0.63400  0.62300  0.40000  1.0000
  S   S3        1.0  0.36600  0.37700  0.60000  1.0000
  S   S4        1.0  0.62300  0.63400  0.90000  1.0000
