data_image0
_chemical_formula_structural       Ag2Ba2O12S4
_chemical_formula_sum              "Ag2 Ba2 O12 S4"
_cell_length_a       4.75652
_cell_length_b       4.75652
_cell_length_c       15.5881
_cell_angle_alpha    91.1278
_cell_angle_beta     91.1278
_cell_angle_gamma    67.2563

_space_group_name_H-M_alt    "P 1"
_space_group_IT_number       1

loop_
  _space_group_symop_operation_xyz
  'x, y, z'

loop_
  _atom_site_type_symbol
  _atom_site_label
  _atom_site_symmetry_multiplicity
  _atom_site_fract_x
  _atom_site_fract_y
  _atom_site_fract_z
  _atom_site_occupancy
  Ag  Ag1       1.0  0.00000  0.00000  0.00000  1.0000
  Ag  Ag2       1.0  0.00000  0.00000  0.50000  1.0000
  Ba  Ba1       1.0  0.96000  0.03960  0.25000  1.0000
  Ba  Ba2       1.0  0.03960  0.96000  0.75000  1.0000
  O   O1        1.0  0.71100  0.33300  0.09170  1.0000
  O   O2        1.0  0.20000  0.71600  0.10600  1.0000
  O   O3        1.0  0.35700  0.26800  0.19100  1.0000
  O   O4        1.0  0.73200  0.64300  0.30900  1.0000
  O   O5        1.0  0.28400  0.80000  0.39400  1.0000
  O   O6        1.0  0.66700  0.28900  0.40800  1.0000
  O   O7        1.0  0.33300  0.71100  0.59200  1.0000
  O   O8        1.0  0.71600  0.20000  0.60600  1.0000
  O   O9        1.0  0.26800  0.35700  0.69100  1.0000
  O   O10       1.0  0.64300  0.73200  0.80900  1.0000
  O   O11       1.0  0.80000  0.28400  0.89400  1.0000
  O   O12       1.0  0.28900  0.66700  0.90800  1.0000
  S   S1        1.0  0.37300  0.36400  0.09960  1.0000
  S   S2        1.0  0.63600  0.62700  0.40000  1.0000
  S   S3        1.0  0.36400  0.37300  0.60000  1.0000
  S   S4        1.0  0.62700  0.63600  0.90000  1.0000
