data_image0
_chemical_formula_structural       Au2O12S4Sr2
_chemical_formula_sum              "Au2 O12 S4 Sr2"
_cell_length_a       4.71616
_cell_length_b       4.71616
_cell_length_c       15.1434
_cell_angle_alpha    89.486
_cell_angle_beta     89.486
_cell_angle_gamma    66.734

_space_group_name_H-M_alt    "P 1"
_space_group_IT_number       1

loop_
  _space_group_symop_operation_xyz
  'x, y, z'

loop_
  _atom_site_type_symbol
  _atom_site_label
  _atom_site_symmetry_multiplicity
  _atom_site_fract_x
  _atom_site_fract_y
  _atom_site_fract_z
  _atom_site_occupancy
  Au  Au1       1.0  0.00000  0.00000  0.00000  1.0000
  Au  Au2       1.0  0.00000  0.00000  0.50000  1.0000
  O   O1        1.0  0.71500  0.33700  0.09700  1.0000
  O   O2        1.0  0.19400  0.72400  0.11600  1.0000
  O   O3        1.0  0.36000  0.24400  0.19800  1.0000
  O   O4        1.0  0.75600  0.64000  0.30200  1.0000
  O   O5        1.0  0.27600  0.80600  0.38400  1.0000
  O   O6        1.0  0.66300  0.28500  0.40300  1.0000
  O   O7        1.0  0.33700  0.71500  0.59700  1.0000
  O   O8        1.0  0.72400  0.19400  0.61600  1.0000
  O   O9        1.0  0.24400  0.36000  0.69800  1.0000
  O   O10       1.0  0.64000  0.75600  0.80200  1.0000
  O   O11       1.0  0.80600  0.27600  0.88400  1.0000
  O   O12       1.0  0.28500  0.66300  0.90300  1.0000
  S   S1        1.0  0.37200  0.36600  0.10500  1.0000
  S   S2        1.0  0.63400  0.62800  0.39500  1.0000
  S   S3        1.0  0.36600  0.37200  0.60500  1.0000
  S   S4        1.0  0.62800  0.63400  0.89500  1.0000
  Sr  Sr1       1.0  0.94000  0.06040  0.25000  1.0000
  Sr  Sr2       1.0  0.06040  0.94000  0.75000  1.0000
