data_image0
_chemical_formula_structural       Mn28O48Si4
_chemical_formula_sum              "Mn28 O48 Si4"
_cell_length_a       11.533
_cell_length_b       9.46161
_cell_length_c       9.46161
_cell_angle_alpha    90
_cell_angle_beta     114.217
_cell_angle_gamma    114.217

_space_group_name_H-M_alt    "P 1"
_space_group_IT_number       1

loop_
  _space_group_symop_operation_xyz
  'x, y, z'

loop_
  _atom_site_type_symbol
  _atom_site_label
  _atom_site_symmetry_multiplicity
  _atom_site_fract_x
  _atom_site_fract_y
  _atom_site_fract_z
  _atom_site_occupancy
  Mn  Mn1       1.0  0.00000  0.00000  0.00000  1.0000
  Mn  Mn2       1.0  0.50000  0.00000  0.00000  1.0000
  Mn  Mn3       1.0  0.50000  0.50000  0.00000  1.0000
  Mn  Mn4       1.0  0.00000  0.50000  0.00000  1.0000
  Mn  Mn5       1.0  0.25000  0.39200  0.10800  1.0000
  Mn  Mn6       1.0  0.75000  0.37500  0.12500  1.0000
  Mn  Mn7       1.0  0.25000  0.89200  0.14200  1.0000
  Mn  Mn8       1.0  0.00000  0.25000  0.21600  1.0000
  Mn  Mn9       1.0  0.50000  0.28400  0.25000  1.0000
  Mn  Mn10      1.0  0.50000  0.78400  0.25000  1.0000
  Mn  Mn11      1.0  0.00000  0.75000  0.28400  1.0000
  Mn  Mn12      1.0  0.75000  0.14200  0.35800  1.0000
  Mn  Mn13      1.0  0.25000  0.12500  0.37500  1.0000
  Mn  Mn14      1.0  0.75000  0.64200  0.39200  1.0000
  Mn  Mn15      1.0  0.50000  0.00000  0.50000  1.0000
  Mn  Mn16      1.0  0.50000  0.50000  0.50000  1.0000
  Mn  Mn17      1.0  0.00000  0.00000  0.50000  1.0000
  Mn  Mn18      1.0  0.00000  0.50000  0.50000  1.0000
  Mn  Mn19      1.0  0.25000  0.35800  0.60800  1.0000
  Mn  Mn20      1.0  0.75000  0.87500  0.62500  1.0000
  Mn  Mn21      1.0  0.25000  0.85800  0.64200  1.0000
  Mn  Mn22      1.0  0.00000  0.25000  0.71600  1.0000
  Mn  Mn23      1.0  0.50000  0.21600  0.75000  1.0000
  Mn  Mn24      1.0  0.50000  0.71600  0.75000  1.0000
  Mn  Mn25      1.0  0.00000  0.75000  0.78400  1.0000
  Mn  Mn26      1.0  0.75000  0.10800  0.85800  1.0000
  Mn  Mn27      1.0  0.25000  0.62500  0.87500  1.0000
  Mn  Mn28      1.0  0.75000  0.60800  0.89200  1.0000
  O   O1        1.0  0.35000  0.28800  0.00773  1.0000
  O   O2        1.0  0.88400  0.30000  0.01770  1.0000
  O   O3        1.0  0.85000  0.00773  0.06130  1.0000
  O   O4        1.0  0.38400  0.86600  0.08450  1.0000
  O   O5        1.0  0.89200  0.59100  0.08950  1.0000
  O   O6        1.0  0.39200  0.58900  0.09150  1.0000
  O   O7        1.0  0.11600  0.20000  0.13400  1.0000
  O   O8        1.0  0.65000  0.93900  0.15800  1.0000
  O   O9        1.0  0.10800  0.90900  0.19700  1.0000
  O   O10       1.0  0.60800  0.19700  0.19900  1.0000
  O   O11       1.0  0.61600  0.48200  0.20000  1.0000
  O   O12       1.0  0.15000  0.49200  0.21200  1.0000
  O   O13       1.0  0.85000  0.84200  0.28800  1.0000
  O   O14       1.0  0.38400  0.36600  0.30000  1.0000
  O   O15       1.0  0.39200  0.08950  0.30100  1.0000
  O   O16       1.0  0.89200  0.30100  0.30300  1.0000
  O   O17       1.0  0.35000  0.78800  0.34200  1.0000
  O   O18       1.0  0.88400  0.58400  0.36600  1.0000
  O   O19       1.0  0.60800  0.69700  0.40900  1.0000
  O   O20       1.0  0.10800  0.19900  0.41100  1.0000
  O   O21       1.0  0.61600  0.98200  0.41600  1.0000
  O   O22       1.0  0.15000  0.65800  0.43900  1.0000
  O   O23       1.0  0.11600  0.91600  0.48200  1.0000
  O   O24       1.0  0.65000  0.43900  0.49200  1.0000
  O   O25       1.0  0.35000  0.56100  0.50800  1.0000
  O   O26       1.0  0.88400  0.08450  0.51800  1.0000
  O   O27       1.0  0.85000  0.34200  0.56100  1.0000
  O   O28       1.0  0.38400  0.01770  0.58400  1.0000
  O   O29       1.0  0.89200  0.80100  0.58900  1.0000
  O   O30       1.0  0.39200  0.30300  0.59100  1.0000
  O   O31       1.0  0.11600  0.41600  0.63400  1.0000
  O   O32       1.0  0.65000  0.21200  0.65800  1.0000
  O   O33       1.0  0.10800  0.69900  0.69700  1.0000
  O   O34       1.0  0.60800  0.91100  0.69900  1.0000
  O   O35       1.0  0.61600  0.63400  0.70000  1.0000
  O   O36       1.0  0.15000  0.15800  0.71200  1.0000
  O   O37       1.0  0.85000  0.50800  0.78800  1.0000
  O   O38       1.0  0.38400  0.51800  0.80000  1.0000
  O   O39       1.0  0.39200  0.80300  0.80100  1.0000
  O   O40       1.0  0.89200  0.09150  0.80300  1.0000
  O   O41       1.0  0.35000  0.06130  0.84200  1.0000
  O   O42       1.0  0.88400  0.80000  0.86600  1.0000
  O   O43       1.0  0.60800  0.41100  0.90900  1.0000
  O   O44       1.0  0.10800  0.40900  0.91100  1.0000
  O   O45       1.0  0.61600  0.13400  0.91600  1.0000
  O   O46       1.0  0.15000  0.99200  0.93900  1.0000
  O   O47       1.0  0.11600  0.70000  0.98200  1.0000
  O   O48       1.0  0.65000  0.71200  0.99200  1.0000
  Si  Si1       1.0  0.75000  0.87500  0.12500  1.0000
  Si  Si2       1.0  0.25000  0.62500  0.37500  1.0000
  Si  Si3       1.0  0.75000  0.37500  0.62500  1.0000
  Si  Si4       1.0  0.25000  0.12500  0.87500  1.0000
