data_image0
_chemical_formula_structural       Au2Ba2O12Te4
_chemical_formula_sum              "Au2 Ba2 O12 Te4"
_cell_length_a       4.9114
_cell_length_b       4.9114
_cell_length_c       16.2372
_cell_angle_alpha    90.1842
_cell_angle_beta     90.1842
_cell_angle_gamma    69.3198

_space_group_name_H-M_alt    "P 1"
_space_group_IT_number       1

loop_
  _space_group_symop_operation_xyz
  'x, y, z'

loop_
  _atom_site_type_symbol
  _atom_site_label
  _atom_site_symmetry_multiplicity
  _atom_site_fract_x
  _atom_site_fract_y
  _atom_site_fract_z
  _atom_site_occupancy
  Au  Au1       1.0  0.00000  0.00000  0.00000  1.0000
  Au  Au2       1.0  0.00000  0.00000  0.50000  1.0000
  Ba  Ba1       1.0  0.95300  0.04660  0.25000  1.0000
  Ba  Ba2       1.0  0.04660  0.95300  0.75000  1.0000
  O   O1        1.0  0.75400  0.35900  0.08270  1.0000
  O   O2        1.0  0.18200  0.76300  0.10800  1.0000
  O   O3        1.0  0.37900  0.24400  0.20200  1.0000
  O   O4        1.0  0.75600  0.62100  0.29800  1.0000
  O   O5        1.0  0.23700  0.81800  0.39200  1.0000
  O   O6        1.0  0.64100  0.24600  0.41700  1.0000
  O   O7        1.0  0.35900  0.75400  0.58300  1.0000
  O   O8        1.0  0.76300  0.18200  0.60800  1.0000
  O   O9        1.0  0.24400  0.37900  0.70200  1.0000
  O   O10       1.0  0.62100  0.75600  0.79800  1.0000
  O   O11       1.0  0.81800  0.23700  0.89200  1.0000
  O   O12       1.0  0.24600  0.64100  0.91700  1.0000
  Te  Te1       1.0  0.36400  0.35300  0.09200  1.0000
  Te  Te2       1.0  0.64700  0.63600  0.40800  1.0000
  Te  Te3       1.0  0.35300  0.36400  0.59200  1.0000
  Te  Te4       1.0  0.63600  0.64700  0.90800  1.0000
