data_image0
_chemical_formula_structural       Ba2Cu2O12Te4
_chemical_formula_sum              "Ba2 Cu2 O12 Te4"
_cell_length_a       4.85482
_cell_length_b       4.85482
_cell_length_c       15.6256
_cell_angle_alpha    90.4099
_cell_angle_beta     90.4099
_cell_angle_gamma    66.8791

_space_group_name_H-M_alt    "P 1"
_space_group_IT_number       1

loop_
  _space_group_symop_operation_xyz
  'x, y, z'

loop_
  _atom_site_type_symbol
  _atom_site_label
  _atom_site_symmetry_multiplicity
  _atom_site_fract_x
  _atom_site_fract_y
  _atom_site_fract_z
  _atom_site_occupancy
  Ba  Ba1       1.0  0.96000  0.04040  0.25000  1.0000
  Ba  Ba2       1.0  0.04040  0.96000  0.75000  1.0000
  Cu  Cu1       1.0  0.00000  0.00000  0.00000  1.0000
  Cu  Cu2       1.0  0.00000  0.00000  0.50000  1.0000
  O   O1        1.0  0.75600  0.33200  0.07510  1.0000
  O   O2        1.0  0.16900  0.77200  0.09910  1.0000
  O   O3        1.0  0.36700  0.25900  0.20100  1.0000
  O   O4        1.0  0.74100  0.63300  0.29900  1.0000
  O   O5        1.0  0.22800  0.83100  0.40100  1.0000
  O   O6        1.0  0.66800  0.24400  0.42500  1.0000
  O   O7        1.0  0.33200  0.75600  0.57500  1.0000
  O   O8        1.0  0.77200  0.16900  0.59900  1.0000
  O   O9        1.0  0.25900  0.36700  0.70100  1.0000
  O   O10       1.0  0.63300  0.74100  0.79900  1.0000
  O   O11       1.0  0.83100  0.22800  0.90100  1.0000
  O   O12       1.0  0.24400  0.66800  0.92500  1.0000
  Te  Te1       1.0  0.35300  0.34900  0.08530  1.0000
  Te  Te2       1.0  0.65100  0.64700  0.41500  1.0000
  Te  Te3       1.0  0.34900  0.35300  0.58500  1.0000
  Te  Te4       1.0  0.64700  0.65100  0.91500  1.0000
