data_image0
_chemical_formula_structural       Ag2Mg2O12Se4
_chemical_formula_sum              "Ag2 Mg2 O12 Se4"
_cell_length_a       4.83739
_cell_length_b       4.83739
_cell_length_c       13.1343
_cell_angle_alpha    86.8256
_cell_angle_beta     86.8256
_cell_angle_gamma    68.7031

_space_group_name_H-M_alt    "P 1"
_space_group_IT_number       1

loop_
  _space_group_symop_operation_xyz
  'x, y, z'

loop_
  _atom_site_type_symbol
  _atom_site_label
  _atom_site_symmetry_multiplicity
  _atom_site_fract_x
  _atom_site_fract_y
  _atom_site_fract_z
  _atom_site_occupancy
  Ag  Ag1       1.0  0.00000  0.00000  0.00000  1.0000
  Ag  Ag2       1.0  0.00000  0.00000  0.50000  1.0000
  Mg  Mg1       1.0  0.00448  0.99600  0.25000  1.0000
  Mg  Mg2       1.0  0.99600  0.00448  0.75000  1.0000
  O   O1        1.0  0.25200  0.73500  0.12500  1.0000
  O   O2        1.0  0.74300  0.24900  0.12600  1.0000
  O   O3        1.0  0.25700  0.24600  0.23100  1.0000
  O   O4        1.0  0.75400  0.74300  0.26900  1.0000
  O   O5        1.0  0.75100  0.25700  0.37400  1.0000
  O   O6        1.0  0.26500  0.74800  0.37500  1.0000
  O   O7        1.0  0.73500  0.25200  0.62500  1.0000
  O   O8        1.0  0.24900  0.74300  0.62600  1.0000
  O   O9        1.0  0.24600  0.25700  0.73100  1.0000
  O   O10       1.0  0.74300  0.75400  0.76900  1.0000
  O   O11       1.0  0.25700  0.75100  0.87400  1.0000
  O   O12       1.0  0.74800  0.26500  0.87500  1.0000
  Se  Se1       1.0  0.35600  0.34800  0.11600  1.0000
  Se  Se2       1.0  0.65200  0.64400  0.38400  1.0000
  Se  Se3       1.0  0.34800  0.35600  0.61600  1.0000
  Se  Se4       1.0  0.64400  0.65200  0.88400  1.0000
