data_image0
_chemical_formula_structural       Ag2Ba2O12Se4
_chemical_formula_sum              "Ag2 Ba2 O12 Se4"
_cell_length_a       4.82558
_cell_length_b       4.82558
_cell_length_c       15.696
_cell_angle_alpha    89.7967
_cell_angle_beta     89.7967
_cell_angle_gamma    68.3981

_space_group_name_H-M_alt    "P 1"
_space_group_IT_number       1

loop_
  _space_group_symop_operation_xyz
  'x, y, z'

loop_
  _atom_site_type_symbol
  _atom_site_label
  _atom_site_symmetry_multiplicity
  _atom_site_fract_x
  _atom_site_fract_y
  _atom_site_fract_z
  _atom_site_occupancy
  Ag  Ag1       1.0  0.00000  0.00000  0.00000  1.0000
  Ag  Ag2       1.0  0.00000  0.00000  0.50000  1.0000
  Ba  Ba1       1.0  0.96100  0.03860  0.25000  1.0000
  Ba  Ba2       1.0  0.03860  0.96100  0.75000  1.0000
  O   O1        1.0  0.74700  0.34700  0.08640  1.0000
  O   O2        1.0  0.20600  0.74600  0.10800  1.0000
  O   O3        1.0  0.37700  0.25300  0.19900  1.0000
  O   O4        1.0  0.74700  0.62300  0.30100  1.0000
  O   O5        1.0  0.25400  0.79400  0.39200  1.0000
  O   O6        1.0  0.65300  0.25300  0.41400  1.0000
  O   O7        1.0  0.34700  0.74700  0.58600  1.0000
  O   O8        1.0  0.74600  0.20600  0.60800  1.0000
  O   O9        1.0  0.25300  0.37700  0.69900  1.0000
  O   O10       1.0  0.62300  0.74700  0.80100  1.0000
  O   O11       1.0  0.79400  0.25400  0.89200  1.0000
  O   O12       1.0  0.25300  0.65300  0.91400  1.0000
  Se  Se1       1.0  0.37900  0.36200  0.09640  1.0000
  Se  Se2       1.0  0.63800  0.62100  0.40400  1.0000
  Se  Se3       1.0  0.36200  0.37900  0.59600  1.0000
  Se  Se4       1.0  0.62100  0.63800  0.90400  1.0000
