data_image0
_chemical_formula_structural       Ag2Ca2O12Se4
_chemical_formula_sum              "Ag2 Ca2 O12 Se4"
_cell_length_a       4.64805
_cell_length_b       4.64805
_cell_length_c       14.7714
_cell_angle_alpha    89.2218
_cell_angle_beta     89.2218
_cell_angle_gamma    69.8066

_space_group_name_H-M_alt    "P 1"
_space_group_IT_number       1

loop_
  _space_group_symop_operation_xyz
  'x, y, z'

loop_
  _atom_site_type_symbol
  _atom_site_label
  _atom_site_symmetry_multiplicity
  _atom_site_fract_x
  _atom_site_fract_y
  _atom_site_fract_z
  _atom_site_occupancy
  Ag  Ag1       1.0  0.00000  0.00000  0.00000  1.0000
  Ag  Ag2       1.0  0.00000  0.00000  0.50000  1.0000
  Ca  Ca1       1.0  0.93100  0.06930  0.25000  1.0000
  Ca  Ca2       1.0  0.06930  0.93100  0.75000  1.0000
  O   O1        1.0  0.74200  0.34400  0.09620  1.0000
  O   O2        1.0  0.17900  0.75200  0.12300  1.0000
  O   O3        1.0  0.37100  0.21900  0.21400  1.0000
  O   O4        1.0  0.78100  0.62900  0.28600  1.0000
  O   O5        1.0  0.24800  0.82100  0.37700  1.0000
  O   O6        1.0  0.65600  0.25800  0.40400  1.0000
  O   O7        1.0  0.34400  0.74200  0.59600  1.0000
  O   O8        1.0  0.75200  0.17900  0.62300  1.0000
  O   O9        1.0  0.21900  0.37100  0.71400  1.0000
  O   O10       1.0  0.62900  0.78100  0.78600  1.0000
  O   O11       1.0  0.82100  0.24800  0.87700  1.0000
  O   O12       1.0  0.25800  0.65600  0.90400  1.0000
  Se  Se1       1.0  0.36000  0.36000  0.10700  1.0000
  Se  Se2       1.0  0.64000  0.64000  0.39300  1.0000
  Se  Se3       1.0  0.36000  0.36000  0.60700  1.0000
  Se  Se4       1.0  0.64000  0.64000  0.89300  1.0000
