data_image0
_chemical_formula_structural       Eu4O56P20
_chemical_formula_sum              "Eu4 O56 P20"
_cell_length_a       8.68121
_cell_length_b       8.84481
_cell_length_c       13.091
_cell_angle_alpha    90.001
_cell_angle_beta     90.9264
_cell_angle_gamma    90.001

_space_group_name_H-M_alt    "P 1"
_space_group_IT_number       1

loop_
  _space_group_symop_operation_xyz
  'x, y, z'

loop_
  _atom_site_type_symbol
  _atom_site_label
  _atom_site_symmetry_multiplicity
  _atom_site_fract_x
  _atom_site_fract_y
  _atom_site_fract_z
  _atom_site_occupancy
  Eu  Eu1       1.0  0.21600  0.30100  0.00209  1.0000
  Eu  Eu2       1.0  0.78400  0.80100  0.49800  1.0000
  Eu  Eu3       1.0  0.21600  0.19900  0.50200  1.0000
  Eu  Eu4       1.0  0.78400  0.69900  0.99800  1.0000
  O   O1        1.0  0.79000  0.42200  0.00303  1.0000
  O   O2        1.0  0.95800  0.17900  0.01160  1.0000
  O   O3        1.0  0.68700  0.18600  0.08340  1.0000
  O   O4        1.0  0.28300  0.80000  0.10400  1.0000
  O   O5        1.0  0.57400  0.62700  0.10700  1.0000
  O   O6        1.0  0.29700  0.09070  0.10800  1.0000
  O   O7        1.0  0.72000  0.90000  0.12000  1.0000
  O   O8        1.0  0.41700  0.38500  0.12200  1.0000
  O   O9        1.0  0.91700  0.61700  0.15300  1.0000
  O   O10       1.0  0.09120  0.37800  0.16000  1.0000
  O   O11       1.0  0.08350  0.93600  0.19600  1.0000
  O   O12       1.0  0.86200  0.10700  0.22500  1.0000
  O   O13       1.0  0.64700  0.41900  0.23600  1.0000
  O   O14       1.0  0.57800  0.08750  0.23600  1.0000
  O   O15       1.0  0.42200  0.58800  0.26400  1.0000
  O   O16       1.0  0.35300  0.91900  0.26400  1.0000
  O   O17       1.0  0.13800  0.60700  0.27500  1.0000
  O   O18       1.0  0.91700  0.43600  0.30400  1.0000
  O   O19       1.0  0.90900  0.87800  0.34000  1.0000
  O   O20       1.0  0.08280  0.11700  0.34700  1.0000
  O   O21       1.0  0.58300  0.88500  0.37900  1.0000
  O   O22       1.0  0.28000  0.40000  0.38000  1.0000
  O   O23       1.0  0.70300  0.59100  0.39200  1.0000
  O   O24       1.0  0.42600  0.12700  0.39300  1.0000
  O   O25       1.0  0.71700  0.30000  0.39600  1.0000
  O   O26       1.0  0.31300  0.68600  0.41700  1.0000
  O   O27       1.0  0.04170  0.67900  0.48800  1.0000
  O   O28       1.0  0.21000  0.92200  0.49700  1.0000
  O   O29       1.0  0.79000  0.07790  0.50300  1.0000
  O   O30       1.0  0.95800  0.32100  0.51200  1.0000
  O   O31       1.0  0.68700  0.31400  0.58300  1.0000
  O   O32       1.0  0.28300  0.70000  0.60400  1.0000
  O   O33       1.0  0.57400  0.87300  0.60700  1.0000
  O   O34       1.0  0.29700  0.40900  0.60800  1.0000
  O   O35       1.0  0.72000  0.60000  0.62000  1.0000
  O   O36       1.0  0.41700  0.11500  0.62100  1.0000
  O   O37       1.0  0.91700  0.88300  0.65300  1.0000
  O   O38       1.0  0.09130  0.12200  0.66000  1.0000
  O   O39       1.0  0.08350  0.56400  0.69600  1.0000
  O   O40       1.0  0.86200  0.39300  0.72500  1.0000
  O   O41       1.0  0.64700  0.08100  0.73600  1.0000
  O   O42       1.0  0.57800  0.41200  0.73600  1.0000
  O   O43       1.0  0.42200  0.91200  0.76400  1.0000
  O   O44       1.0  0.35300  0.58100  0.76400  1.0000
  O   O45       1.0  0.13800  0.89300  0.77500  1.0000
  O   O46       1.0  0.91700  0.06430  0.80400  1.0000
  O   O47       1.0  0.90900  0.62200  0.84000  1.0000
  O   O48       1.0  0.08280  0.38300  0.84700  1.0000
  O   O49       1.0  0.58300  0.61500  0.87800  1.0000
  O   O50       1.0  0.28000  0.10000  0.88000  1.0000
  O   O51       1.0  0.70300  0.90900  0.89200  1.0000
  O   O52       1.0  0.42600  0.37300  0.89300  1.0000
  O   O53       1.0  0.71700  0.20000  0.89600  1.0000
  O   O54       1.0  0.31300  0.81400  0.91700  1.0000
  O   O55       1.0  0.04180  0.82100  0.98800  1.0000
  O   O56       1.0  0.21000  0.57800  0.99700  1.0000
  P   P1        1.0  0.80500  0.25500  0.00050  1.0000
  P   P2        1.0  0.71400  0.05300  0.16200  1.0000
  P   P3        1.0  0.25600  0.95300  0.16300  1.0000
  P   P4        1.0  0.51100  0.50500  0.17200  1.0000
  P   P5        1.0  0.01390  0.50700  0.21100  1.0000
  P   P6        1.0  0.98600  0.00702  0.28900  1.0000
  P   P7        1.0  0.48900  0.00487  0.32700  1.0000
  P   P8        1.0  0.74400  0.45300  0.33700  1.0000
  P   P9        1.0  0.28600  0.55300  0.33800  1.0000
  P   P10       1.0  0.19500  0.75500  0.49900  1.0000
  P   P11       1.0  0.80500  0.24500  0.50100  1.0000
  P   P12       1.0  0.71400  0.44700  0.66200  1.0000
  P   P13       1.0  0.25600  0.54700  0.66300  1.0000
  P   P14       1.0  0.51100  0.99500  0.67300  1.0000
  P   P15       1.0  0.01390  0.99300  0.71100  1.0000
  P   P16       1.0  0.98600  0.49300  0.78900  1.0000
  P   P17       1.0  0.48900  0.49500  0.82800  1.0000
  P   P18       1.0  0.74400  0.04750  0.83700  1.0000
  P   P19       1.0  0.28600  0.94700  0.83800  1.0000
  P   P20       1.0  0.19500  0.74500  0.99900  1.0000
