data_image0
_chemical_formula_structural       Cu2Mg2O12S4
_chemical_formula_sum              "Cu2 Mg2 O12 S4"
_cell_length_a       4.68732
_cell_length_b       4.68732
_cell_length_c       12.3145
_cell_angle_alpha    89.1005
_cell_angle_beta     89.1005
_cell_angle_gamma    65.3141

_space_group_name_H-M_alt    "P 1"
_space_group_IT_number       1

loop_
  _space_group_symop_operation_xyz
  'x, y, z'

loop_
  _atom_site_type_symbol
  _atom_site_label
  _atom_site_symmetry_multiplicity
  _atom_site_fract_x
  _atom_site_fract_y
  _atom_site_fract_z
  _atom_site_occupancy
  Cu  Cu1       1.0  0.00000  0.00000  0.00000  1.0000
  Cu  Cu2       1.0  0.00000  0.00000  0.50000  1.0000
  Mg  Mg1       1.0  0.00000  0.00000  0.25000  1.0000
  Mg  Mg2       1.0  0.00000  0.00000  0.75000  1.0000
  O   O1        1.0  0.71100  0.23400  0.11600  1.0000
  O   O2        1.0  0.22300  0.70600  0.11600  1.0000
  O   O3        1.0  0.25700  0.23800  0.21000  1.0000
  O   O4        1.0  0.76200  0.74300  0.29000  1.0000
  O   O5        1.0  0.29400  0.77700  0.38400  1.0000
  O   O6        1.0  0.76600  0.28900  0.38400  1.0000
  O   O7        1.0  0.23400  0.71100  0.61600  1.0000
  O   O8        1.0  0.70600  0.22300  0.61600  1.0000
  O   O9        1.0  0.23800  0.25700  0.71000  1.0000
  O   O10       1.0  0.74300  0.76200  0.79000  1.0000
  O   O11       1.0  0.77700  0.29400  0.88400  1.0000
  O   O12       1.0  0.28900  0.76600  0.88400  1.0000
  S   S1        1.0  0.34600  0.33900  0.10500  1.0000
  S   S2        1.0  0.66100  0.65400  0.39500  1.0000
  S   S3        1.0  0.33900  0.34600  0.60500  1.0000
  S   S4        1.0  0.65400  0.66100  0.89500  1.0000
