data_image0
_chemical_formula_structural       As4Cu2HK3O14
_chemical_formula_sum              "As4 Cu2 H1 K3 O14"
_cell_length_a       5.42964
_cell_length_b       5.71342
_cell_length_c       12.7202
_cell_angle_alpha    90.8954
_cell_angle_beta     100.892
_cell_angle_gamma    117.303

_space_group_name_H-M_alt    "P 1"
_space_group_IT_number       1

loop_
  _space_group_symop_operation_xyz
  'x, y, z'

loop_
  _atom_site_type_symbol
  _atom_site_label
  _atom_site_symmetry_multiplicity
  _atom_site_fract_x
  _atom_site_fract_y
  _atom_site_fract_z
  _atom_site_occupancy
  As  As1       1.0  0.59700  0.54800  0.15900  1.0000
  As  As2       1.0  0.56100  0.27800  0.35800  1.0000
  As  As3       1.0  0.43900  0.72200  0.64200  1.0000
  As  As4       1.0  0.40300  0.45200  0.84100  1.0000
  Cu  Cu1       1.0  0.98000  0.23500  0.22000  1.0000
  Cu  Cu2       1.0  0.01950  0.76500  0.78000  1.0000
  H   H1        1.0  0.50000  0.50000  0.50000  1.0000
  K   K1        1.0  0.21100  0.86200  0.06770  1.0000
  K   K2        1.0  0.00000  0.00000  0.50000  1.0000
  K   K3        1.0  0.78900  0.13800  0.93200  1.0000
  O   O1        1.0  0.72600  0.84500  0.11300  1.0000
  O   O2        1.0  0.23200  0.37500  0.12000  1.0000
  O   O3        1.0  0.74100  0.35400  0.12500  1.0000
  O   O4        1.0  0.20900  0.08840  0.30100  1.0000
  O   O5        1.0  0.68000  0.59100  0.30500  1.0000
  O   O6        1.0  0.75500  0.13300  0.32900  1.0000
  O   O7        1.0  0.62200  0.36900  0.49300  1.0000
  O   O8        1.0  0.37800  0.63100  0.50700  1.0000
  O   O9        1.0  0.24500  0.86700  0.67100  1.0000
  O   O10       1.0  0.32000  0.40900  0.69500  1.0000
  O   O11       1.0  0.79100  0.91200  0.69900  1.0000
  O   O12       1.0  0.25900  0.64600  0.87500  1.0000
  O   O13       1.0  0.76800  0.62500  0.88000  1.0000
  O   O14       1.0  0.27400  0.15500  0.88700  1.0000
