data_image0
_chemical_formula_structural       Ca2Cu2O12Te4
_chemical_formula_sum              "Ca2 Cu2 O12 Te4"
_cell_length_a       4.72385
_cell_length_b       4.72385
_cell_length_c       14.3503
_cell_angle_alpha    90.1855
_cell_angle_beta     90.1855
_cell_angle_gamma    68.7506

_space_group_name_H-M_alt    "P 1"
_space_group_IT_number       1

loop_
  _space_group_symop_operation_xyz
  'x, y, z'

loop_
  _atom_site_type_symbol
  _atom_site_label
  _atom_site_symmetry_multiplicity
  _atom_site_fract_x
  _atom_site_fract_y
  _atom_site_fract_z
  _atom_site_occupancy
  Ca  Ca1       1.0  0.93500  0.06470  0.25000  1.0000
  Ca  Ca2       1.0  0.06470  0.93500  0.75000  1.0000
  Cu  Cu1       1.0  0.00000  0.00000  0.00000  1.0000
  Cu  Cu2       1.0  0.00000  0.00000  0.50000  1.0000
  O   O1        1.0  0.75800  0.33000  0.08280  1.0000
  O   O2        1.0  0.15800  0.77400  0.11300  1.0000
  O   O3        1.0  0.38000  0.21400  0.21700  1.0000
  O   O4        1.0  0.78600  0.62000  0.28300  1.0000
  O   O5        1.0  0.22600  0.84200  0.38700  1.0000
  O   O6        1.0  0.67000  0.24200  0.41700  1.0000
  O   O7        1.0  0.33000  0.75800  0.58300  1.0000
  O   O8        1.0  0.77400  0.15800  0.61300  1.0000
  O   O9        1.0  0.21400  0.38000  0.71700  1.0000
  O   O10       1.0  0.62000  0.78600  0.78300  1.0000
  O   O11       1.0  0.84200  0.22600  0.88700  1.0000
  O   O12       1.0  0.24200  0.67000  0.91700  1.0000
  Te  Te1       1.0  0.34300  0.34500  0.09460  1.0000
  Te  Te2       1.0  0.65500  0.65700  0.40500  1.0000
  Te  Te3       1.0  0.34500  0.34300  0.59500  1.0000
  Te  Te4       1.0  0.65700  0.65500  0.90500  1.0000
