data_image0
_chemical_formula_structural       Cu2O12S4Sr2
_chemical_formula_sum              "Cu2 O12 S4 Sr2"
_cell_length_a       4.55363
_cell_length_b       4.55363
_cell_length_c       14.707
_cell_angle_alpha    92.0625
_cell_angle_beta     92.0625
_cell_angle_gamma    66.4152

_space_group_name_H-M_alt    "P 1"
_space_group_IT_number       1

loop_
  _space_group_symop_operation_xyz
  'x, y, z'

loop_
  _atom_site_type_symbol
  _atom_site_label
  _atom_site_symmetry_multiplicity
  _atom_site_fract_x
  _atom_site_fract_y
  _atom_site_fract_z
  _atom_site_occupancy
  Cu  Cu1       1.0  0.00000  0.00000  0.00000  1.0000
  Cu  Cu2       1.0  0.00000  0.00000  0.50000  1.0000
  O   O1        1.0  0.72200  0.31300  0.08840  1.0000
  O   O2        1.0  0.18200  0.72600  0.10200  1.0000
  O   O3        1.0  0.35600  0.26300  0.19600  1.0000
  O   O4        1.0  0.73700  0.64400  0.30400  1.0000
  O   O5        1.0  0.27400  0.81800  0.39800  1.0000
  O   O6        1.0  0.68700  0.27800  0.41200  1.0000
  O   O7        1.0  0.31300  0.72200  0.58800  1.0000
  O   O8        1.0  0.72600  0.18200  0.60200  1.0000
  O   O9        1.0  0.26300  0.35600  0.69600  1.0000
  O   O10       1.0  0.64400  0.73700  0.80400  1.0000
  O   O11       1.0  0.81800  0.27400  0.89800  1.0000
  O   O12       1.0  0.27800  0.68700  0.91200  1.0000
  S   S1        1.0  0.36700  0.35400  0.09730  1.0000
  S   S2        1.0  0.64600  0.63300  0.40300  1.0000
  S   S3        1.0  0.35400  0.36700  0.59700  1.0000
  S   S4        1.0  0.63300  0.64600  0.90300  1.0000
  Sr  Sr1       1.0  0.96200  0.03810  0.25000  1.0000
  Sr  Sr2       1.0  0.03810  0.96200  0.75000  1.0000
