data_image0
_chemical_formula_structural       Cs3Cu2HO14P4
_chemical_formula_sum              "Cs3 Cu2 H1 O14 P4"
_cell_length_a       5.32588
_cell_length_b       5.72741
_cell_length_c       13.2124
_cell_angle_alpha    92.6323
_cell_angle_beta     99.6573
_cell_angle_gamma    116.045

_space_group_name_H-M_alt    "P 1"
_space_group_IT_number       1

loop_
  _space_group_symop_operation_xyz
  'x, y, z'

loop_
  _atom_site_type_symbol
  _atom_site_label
  _atom_site_symmetry_multiplicity
  _atom_site_fract_x
  _atom_site_fract_y
  _atom_site_fract_z
  _atom_site_occupancy
  Cs  Cs1       1.0  0.20400  0.85300  0.06590  1.0000
  Cs  Cs2       1.0  0.00000  0.00000  0.50000  1.0000
  Cs  Cs3       1.0  0.79600  0.14700  0.93400  1.0000
  Cu  Cu1       1.0  0.98300  0.25100  0.22700  1.0000
  Cu  Cu2       1.0  0.01740  0.74900  0.77300  1.0000
  H   H1        1.0  0.50000  0.50000  0.50000  1.0000
  O   O1        1.0  0.26700  0.38800  0.13800  1.0000
  O   O2        1.0  0.74100  0.37800  0.14000  1.0000
  O   O3        1.0  0.71700  0.81400  0.14300  1.0000
  O   O4        1.0  0.65700  0.57000  0.30100  1.0000
  O   O5        1.0  0.23400  0.13100  0.30800  1.0000
  O   O6        1.0  0.72600  0.15900  0.32400  1.0000
  O   O7        1.0  0.62400  0.38600  0.46900  1.0000
  O   O8        1.0  0.37600  0.61400  0.53100  1.0000
  O   O9        1.0  0.27400  0.84100  0.67600  1.0000
  O   O10       1.0  0.76600  0.86900  0.69200  1.0000
  O   O11       1.0  0.34300  0.43000  0.69900  1.0000
  O   O12       1.0  0.28300  0.18600  0.85700  1.0000
  O   O13       1.0  0.25900  0.62200  0.86000  1.0000
  O   O14       1.0  0.73300  0.61200  0.86200  1.0000
  P   P1        1.0  0.59600  0.54200  0.17400  1.0000
  P   P2        1.0  0.55500  0.29800  0.35200  1.0000
  P   P3        1.0  0.44500  0.70200  0.64800  1.0000
  P   P4        1.0  0.40400  0.45800  0.82600  1.0000
