data_image0
_chemical_formula_structural       Au2O12Se4Sr2
_chemical_formula_sum              "Au2 O12 Se4 Sr2"
_cell_length_a       4.80011
_cell_length_b       4.80011
_cell_length_c       15.2501
_cell_angle_alpha    89.195
_cell_angle_beta     89.195
_cell_angle_gamma    67.7889

_space_group_name_H-M_alt    "P 1"
_space_group_IT_number       1

loop_
  _space_group_symop_operation_xyz
  'x, y, z'

loop_
  _atom_site_type_symbol
  _atom_site_label
  _atom_site_symmetry_multiplicity
  _atom_site_fract_x
  _atom_site_fract_y
  _atom_site_fract_z
  _atom_site_occupancy
  Au  Au1       1.0  0.00000  0.00000  0.00000  1.0000
  Au  Au2       1.0  0.00000  0.00000  0.50000  1.0000
  O   O1        1.0  0.73700  0.34200  0.09310  1.0000
  O   O2        1.0  0.18300  0.74900  0.11700  1.0000
  O   O3        1.0  0.36600  0.23100  0.20600  1.0000
  O   O4        1.0  0.76900  0.63400  0.29400  1.0000
  O   O5        1.0  0.25100  0.81700  0.38300  1.0000
  O   O6        1.0  0.65800  0.26300  0.40700  1.0000
  O   O7        1.0  0.34200  0.73700  0.59300  1.0000
  O   O8        1.0  0.74900  0.18300  0.61700  1.0000
  O   O9        1.0  0.23100  0.36600  0.70600  1.0000
  O   O10       1.0  0.63400  0.76900  0.79400  1.0000
  O   O11       1.0  0.81700  0.25100  0.88300  1.0000
  O   O12       1.0  0.26300  0.65800  0.90700  1.0000
  Se  Se1       1.0  0.36400  0.36000  0.10200  1.0000
  Se  Se2       1.0  0.64000  0.63600  0.39800  1.0000
  Se  Se3       1.0  0.36000  0.36400  0.60200  1.0000
  Se  Se4       1.0  0.63600  0.64000  0.89800  1.0000
  Sr  Sr1       1.0  0.93300  0.06740  0.25000  1.0000
  Sr  Sr2       1.0  0.06740  0.93300  0.75000  1.0000
