data_image0
_chemical_formula_structural       Ag2HNa3O14P4
_chemical_formula_sum              "Ag2 H1 Na3 O14 P4"
_cell_length_a       5.37733
_cell_length_b       5.26601
_cell_length_c       12.6743
_cell_angle_alpha    84.4514
_cell_angle_beta     102.06
_cell_angle_gamma    119.654

_space_group_name_H-M_alt    "P 1"
_space_group_IT_number       1

loop_
  _space_group_symop_operation_xyz
  'x, y, z'

loop_
  _atom_site_type_symbol
  _atom_site_label
  _atom_site_symmetry_multiplicity
  _atom_site_fract_x
  _atom_site_fract_y
  _atom_site_fract_z
  _atom_site_occupancy
  Ag  Ag1       1.0  0.96000  0.21100  0.23300  1.0000
  Ag  Ag2       1.0  0.04050  0.78900  0.76700  1.0000
  H   H1        1.0  0.50000  0.50000  0.50000  1.0000
  Na  Na1       1.0  0.18400  0.83800  0.03580  1.0000
  Na  Na2       1.0  0.00000  0.00000  0.50000  1.0000
  Na  Na3       1.0  0.81600  0.16200  0.96400  1.0000
  O   O1        1.0  0.78300  0.79500  0.10100  1.0000
  O   O2        1.0  0.25100  0.43400  0.11400  1.0000
  O   O3        1.0  0.61200  0.24700  0.11900  1.0000
  O   O4        1.0  0.66000  0.54600  0.27500  1.0000
  O   O5        1.0  0.24200  0.10000  0.34700  1.0000
  O   O6        1.0  0.72000  0.11500  0.36200  1.0000
  O   O7        1.0  0.68700  0.47500  0.47200  1.0000
  O   O8        1.0  0.31300  0.52500  0.52800  1.0000
  O   O9        1.0  0.28000  0.88500  0.63800  1.0000
  O   O10       1.0  0.75800  0.90000  0.65300  1.0000
  O   O11       1.0  0.34000  0.45400  0.72500  1.0000
  O   O12       1.0  0.38800  0.75300  0.88100  1.0000
  O   O13       1.0  0.74900  0.56600  0.88600  1.0000
  O   O14       1.0  0.21700  0.20500  0.89900  1.0000
  P   P1        1.0  0.57400  0.50700  0.14400  1.0000
  P   P2        1.0  0.57400  0.29800  0.36700  1.0000
  P   P3        1.0  0.42600  0.70200  0.63300  1.0000
  P   P4        1.0  0.42600  0.49300  0.85600  1.0000
