data_image0
_chemical_formula_structural       Ca2Cu2O12Se4
_chemical_formula_sum              "Ca2 Cu2 O12 Se4"
_cell_length_a       4.61641
_cell_length_b       4.61641
_cell_length_c       14.1332
_cell_angle_alpha    89.806
_cell_angle_beta     89.806
_cell_angle_gamma    68.1295

_space_group_name_H-M_alt    "P 1"
_space_group_IT_number       1

loop_
  _space_group_symop_operation_xyz
  'x, y, z'

loop_
  _atom_site_type_symbol
  _atom_site_label
  _atom_site_symmetry_multiplicity
  _atom_site_fract_x
  _atom_site_fract_y
  _atom_site_fract_z
  _atom_site_occupancy
  Ca  Ca1       1.0  0.93400  0.06640  0.25000  1.0000
  Ca  Ca2       1.0  0.06640  0.93400  0.75000  1.0000
  Cu  Cu1       1.0  0.00000  0.00000  0.00000  1.0000
  Cu  Cu2       1.0  0.00000  0.00000  0.50000  1.0000
  O   O1        1.0  0.74600  0.32300  0.08680  1.0000
  O   O2        1.0  0.17200  0.75800  0.11200  1.0000
  O   O3        1.0  0.36700  0.22700  0.21100  1.0000
  O   O4        1.0  0.77300  0.63300  0.28900  1.0000
  O   O5        1.0  0.24200  0.82800  0.38800  1.0000
  O   O6        1.0  0.67700  0.25400  0.41300  1.0000
  O   O7        1.0  0.32300  0.74600  0.58700  1.0000
  O   O8        1.0  0.75800  0.17200  0.61200  1.0000
  O   O9        1.0  0.22700  0.36700  0.71100  1.0000
  O   O10       1.0  0.63300  0.77300  0.78900  1.0000
  O   O11       1.0  0.82800  0.24200  0.88800  1.0000
  O   O12       1.0  0.25400  0.67700  0.91300  1.0000
  Se  Se1       1.0  0.35500  0.35400  0.09830  1.0000
  Se  Se2       1.0  0.64600  0.64500  0.40200  1.0000
  Se  Se3       1.0  0.35400  0.35500  0.59800  1.0000
  Se  Se4       1.0  0.64500  0.64600  0.90200  1.0000
