data_image0
_chemical_formula_structural       AuBr2
_chemical_formula_sum              "Au1 Br2"
_cell_length_a       3.6871
_cell_length_b       4.46653
_cell_length_c       6.52821
_cell_angle_alpha    88.6101
_cell_angle_beta     106.403
_cell_angle_gamma    65.6224

_space_group_name_H-M_alt    "P 1"
_space_group_IT_number       1

loop_
  _space_group_symop_operation_xyz
  'x, y, z'

loop_
  _atom_site_type_symbol
  _atom_site_label
  _atom_site_symmetry_multiplicity
  _atom_site_fract_x
  _atom_site_fract_y
  _atom_site_fract_z
  _atom_site_occupancy
  Au  Au1       1.0  0.00000  0.00000  0.00000  1.0000
  Br  Br1       1.0  0.76400  0.73300  0.26100  1.0000
  Br  Br2       1.0  0.23600  0.26700  0.73900  1.0000
