data_image0
_chemical_formula_structural       As4Cu2HO14Rb3
_chemical_formula_sum              "As4 Cu2 H1 O14 Rb3"
_cell_length_a       5.45699
_cell_length_b       5.76732
_cell_length_c       12.9947
_cell_angle_alpha    91.5214
_cell_angle_beta     100.522
_cell_angle_gamma    117.031

_space_group_name_H-M_alt    "P 1"
_space_group_IT_number       1

loop_
  _space_group_symop_operation_xyz
  'x, y, z'

loop_
  _atom_site_type_symbol
  _atom_site_label
  _atom_site_symmetry_multiplicity
  _atom_site_fract_x
  _atom_site_fract_y
  _atom_site_fract_z
  _atom_site_occupancy
  As  As1       1.0  0.59700  0.55000  0.16300  1.0000
  As  As2       1.0  0.55700  0.28300  0.35600  1.0000
  As  As3       1.0  0.44300  0.71700  0.64400  1.0000
  As  As4       1.0  0.40300  0.45000  0.83700  1.0000
  Cu  Cu1       1.0  0.97900  0.24000  0.22100  1.0000
  Cu  Cu2       1.0  0.02060  0.76000  0.77900  1.0000
  H   H1        1.0  0.50000  0.50000  0.50000  1.0000
  O   O1        1.0  0.72400  0.84400  0.11900  1.0000
  O   O2        1.0  0.23700  0.37500  0.12500  1.0000
  O   O3        1.0  0.74600  0.36200  0.12900  1.0000
  O   O4        1.0  0.20700  0.09710  0.30100  1.0000
  O   O5        1.0  0.67600  0.59300  0.30500  1.0000
  O   O6        1.0  0.74500  0.13600  0.32400  1.0000
  O   O7        1.0  0.62300  0.37400  0.48900  1.0000
  O   O8        1.0  0.37700  0.62600  0.51100  1.0000
  O   O9        1.0  0.25500  0.86400  0.67600  1.0000
  O   O10       1.0  0.32400  0.40700  0.69500  1.0000
  O   O11       1.0  0.79300  0.90300  0.69900  1.0000
  O   O12       1.0  0.25400  0.63800  0.87100  1.0000
  O   O13       1.0  0.76300  0.62500  0.87500  1.0000
  O   O14       1.0  0.27600  0.15600  0.88100  1.0000
  Rb  Rb1       1.0  0.20900  0.86100  0.06750  1.0000
  Rb  Rb2       1.0  0.00000  0.00000  0.50000  1.0000
  Rb  Rb3       1.0  0.79100  0.13900  0.93200  1.0000
