data_image0
_chemical_formula_structural       Ba2Cu2O12S4
_chemical_formula_sum              "Ba2 Cu2 O12 S4"
_cell_length_a       4.62422
_cell_length_b       4.62422
_cell_length_c       15.4436
_cell_angle_alpha    92.7881
_cell_angle_beta     92.7881
_cell_angle_gamma    65.902

_space_group_name_H-M_alt    "P 1"
_space_group_IT_number       1

loop_
  _space_group_symop_operation_xyz
  'x, y, z'

loop_
  _atom_site_type_symbol
  _atom_site_label
  _atom_site_symmetry_multiplicity
  _atom_site_fract_x
  _atom_site_fract_y
  _atom_site_fract_z
  _atom_site_occupancy
  Ba  Ba1       1.0  0.99000  0.01030  0.25000  1.0000
  Ba  Ba2       1.0  0.01030  0.99000  0.75000  1.0000
  Cu  Cu1       1.0  0.00000  0.00000  0.00000  1.0000
  Cu  Cu2       1.0  0.00000  0.00000  0.50000  1.0000
  O   O1        1.0  0.72700  0.29800  0.08650  1.0000
  O   O2        1.0  0.20300  0.72600  0.09420  1.0000
  O   O3        1.0  0.35000  0.29200  0.18900  1.0000
  O   O4        1.0  0.70800  0.65000  0.31100  1.0000
  O   O5        1.0  0.27400  0.79700  0.40600  1.0000
  O   O6        1.0  0.70200  0.27300  0.41400  1.0000
  O   O7        1.0  0.29800  0.72700  0.58600  1.0000
  O   O8        1.0  0.72600  0.20300  0.59400  1.0000
  O   O9        1.0  0.29200  0.35000  0.68900  1.0000
  O   O10       1.0  0.65000  0.70800  0.81100  1.0000
  O   O11       1.0  0.79700  0.27400  0.90600  1.0000
  O   O12       1.0  0.27300  0.70200  0.91400  1.0000
  S   S1        1.0  0.37200  0.35800  0.09360  1.0000
  S   S2        1.0  0.64200  0.62800  0.40600  1.0000
  S   S3        1.0  0.35800  0.37200  0.59400  1.0000
  S   S4        1.0  0.62800  0.64200  0.90600  1.0000
