data_image0
_chemical_formula_structural       Cu2HO14P4Rb3
_chemical_formula_sum              "Cu2 H1 O14 P4 Rb3"
_cell_length_a       5.2932
_cell_length_b       5.63356
_cell_length_c       12.8711
_cell_angle_alpha    91.5167
_cell_angle_beta     100.175
_cell_angle_gamma    116.559

_space_group_name_H-M_alt    "P 1"
_space_group_IT_number       1

loop_
  _space_group_symop_operation_xyz
  'x, y, z'

loop_
  _atom_site_type_symbol
  _atom_site_label
  _atom_site_symmetry_multiplicity
  _atom_site_fract_x
  _atom_site_fract_y
  _atom_site_fract_z
  _atom_site_occupancy
  Cu  Cu1       1.0  0.97900  0.24200  0.22300  1.0000
  Cu  Cu2       1.0  0.02140  0.75800  0.77700  1.0000
  H   H1        1.0  0.50000  0.50000  0.50000  1.0000
  O   O1        1.0  0.25800  0.37900  0.12900  1.0000
  O   O2        1.0  0.73500  0.37000  0.13200  1.0000
  O   O3        1.0  0.71400  0.81500  0.13200  1.0000
  O   O4        1.0  0.65800  0.56700  0.29600  1.0000
  O   O5        1.0  0.23100  0.12200  0.31000  1.0000
  O   O6        1.0  0.72900  0.15200  0.32600  1.0000
  O   O7        1.0  0.63100  0.38900  0.47200  1.0000
  O   O8        1.0  0.36900  0.61100  0.52800  1.0000
  O   O9        1.0  0.27100  0.84800  0.67400  1.0000
  O   O10       1.0  0.76900  0.87800  0.69000  1.0000
  O   O11       1.0  0.34200  0.43300  0.70400  1.0000
  O   O12       1.0  0.28600  0.18500  0.86800  1.0000
  O   O13       1.0  0.26500  0.63000  0.86800  1.0000
  O   O14       1.0  0.74200  0.62100  0.87100  1.0000
  P   P1        1.0  0.59200  0.53800  0.16600  1.0000
  P   P2        1.0  0.55700  0.29300  0.35200  1.0000
  P   P3        1.0  0.44300  0.70700  0.64800  1.0000
  P   P4        1.0  0.40800  0.46200  0.83400  1.0000
  Rb  Rb1       1.0  0.20500  0.85400  0.06660  1.0000
  Rb  Rb2       1.0  0.00000  0.00000  0.50000  1.0000
  Rb  Rb3       1.0  0.79500  0.14600  0.93300  1.0000
