data_image0
_chemical_formula_structural       Ag2Cs3HO14P4
_chemical_formula_sum              "Ag2 Cs3 H1 O14 P4"
_cell_length_a       5.64985
_cell_length_b       5.88765
_cell_length_c       13.0538
_cell_angle_alpha    91.659
_cell_angle_beta     100.476
_cell_angle_gamma    117.106

_space_group_name_H-M_alt    "P 1"
_space_group_IT_number       1

loop_
  _space_group_symop_operation_xyz
  'x, y, z'

loop_
  _atom_site_type_symbol
  _atom_site_label
  _atom_site_symmetry_multiplicity
  _atom_site_fract_x
  _atom_site_fract_y
  _atom_site_fract_z
  _atom_site_occupancy
  Ag  Ag1       1.0  0.99800  0.27700  0.23100  1.0000
  Ag  Ag2       1.0  0.00246  0.72300  0.76900  1.0000
  Cs  Cs1       1.0  0.20900  0.86100  0.06950  1.0000
  Cs  Cs2       1.0  0.00000  0.00000  0.50000  1.0000
  Cs  Cs3       1.0  0.79100  0.13900  0.93000  1.0000
  H   H1        1.0  0.50000  0.50000  0.50000  1.0000
  O   O1        1.0  0.28300  0.39600  0.12800  1.0000
  O   O2        1.0  0.72700  0.38800  0.13000  1.0000
  O   O3        1.0  0.71800  0.81900  0.14200  1.0000
  O   O4        1.0  0.65300  0.55800  0.29600  1.0000
  O   O5        1.0  0.25000  0.12600  0.31300  1.0000
  O   O6        1.0  0.71200  0.15700  0.33200  1.0000
  O   O7        1.0  0.62900  0.40200  0.47200  1.0000
  O   O8        1.0  0.37100  0.59800  0.52800  1.0000
  O   O9        1.0  0.28800  0.84300  0.66800  1.0000
  O   O10       1.0  0.75000  0.87400  0.68700  1.0000
  O   O11       1.0  0.34700  0.44200  0.70400  1.0000
  O   O12       1.0  0.28200  0.18100  0.85800  1.0000
  O   O13       1.0  0.27300  0.61200  0.87000  1.0000
  O   O14       1.0  0.71700  0.60400  0.87200  1.0000
  P   P1        1.0  0.59700  0.54700  0.16800  1.0000
  P   P2        1.0  0.55600  0.29900  0.35500  1.0000
  P   P3        1.0  0.44400  0.70100  0.64500  1.0000
  P   P4        1.0  0.40300  0.45300  0.83200  1.0000
