data_image0
_chemical_formula_structural       Au2Mg2O12S4
_chemical_formula_sum              "Au2 Mg2 O12 S4"
_cell_length_a       4.75414
_cell_length_b       4.75414
_cell_length_c       13.1592
_cell_angle_alpha    86.9125
_cell_angle_beta     86.9125
_cell_angle_gamma    66.154

_space_group_name_H-M_alt    "P 1"
_space_group_IT_number       1

loop_
  _space_group_symop_operation_xyz
  'x, y, z'

loop_
  _atom_site_type_symbol
  _atom_site_label
  _atom_site_symmetry_multiplicity
  _atom_site_fract_x
  _atom_site_fract_y
  _atom_site_fract_z
  _atom_site_occupancy
  Au  Au1       1.0  0.00000  0.00000  0.00000  1.0000
  Au  Au2       1.0  0.00000  0.00000  0.50000  1.0000
  Mg  Mg1       1.0  0.99500  0.00489  0.25000  1.0000
  Mg  Mg2       1.0  0.00489  0.99500  0.75000  1.0000
  O   O1        1.0  0.71100  0.25000  0.12800  1.0000
  O   O2        1.0  0.23800  0.71500  0.12800  1.0000
  O   O3        1.0  0.25000  0.24700  0.21500  1.0000
  O   O4        1.0  0.75300  0.75000  0.28500  1.0000
  O   O5        1.0  0.28500  0.76200  0.37200  1.0000
  O   O6        1.0  0.75000  0.28900  0.37200  1.0000
  O   O7        1.0  0.25000  0.71100  0.62800  1.0000
  O   O8        1.0  0.71500  0.23800  0.62800  1.0000
  O   O9        1.0  0.24700  0.25000  0.71500  1.0000
  O   O10       1.0  0.75000  0.75300  0.78500  1.0000
  O   O11       1.0  0.76200  0.28500  0.87200  1.0000
  O   O12       1.0  0.28900  0.75000  0.87200  1.0000
  S   S1        1.0  0.35100  0.35400  0.11700  1.0000
  S   S2        1.0  0.64600  0.64900  0.38300  1.0000
  S   S3        1.0  0.35400  0.35100  0.61700  1.0000
  S   S4        1.0  0.64900  0.64600  0.88300  1.0000
