data_image0
_chemical_formula_structural       Ag2HO14P4Rb3
_chemical_formula_sum              "Ag2 H1 O14 P4 Rb3"
_cell_length_a       5.52424
_cell_length_b       5.71743
_cell_length_c       12.8643
_cell_angle_alpha    90.3325
_cell_angle_beta     100.827
_cell_angle_gamma    117.483

_space_group_name_H-M_alt    "P 1"
_space_group_IT_number       1

loop_
  _space_group_symop_operation_xyz
  'x, y, z'

loop_
  _atom_site_type_symbol
  _atom_site_label
  _atom_site_symmetry_multiplicity
  _atom_site_fract_x
  _atom_site_fract_y
  _atom_site_fract_z
  _atom_site_occupancy
  Ag  Ag1       1.0  0.98900  0.25900  0.22800  1.0000
  Ag  Ag2       1.0  0.01060  0.74100  0.77200  1.0000
  H   H1        1.0  0.50000  0.50000  0.50000  1.0000
  O   O1        1.0  0.26400  0.37500  0.11900  1.0000
  O   O2        1.0  0.71700  0.36700  0.12100  1.0000
  O   O3        1.0  0.70900  0.81000  0.12600  1.0000
  O   O4        1.0  0.65000  0.55100  0.28800  1.0000
  O   O5        1.0  0.24500  0.11300  0.32000  1.0000
  O   O6        1.0  0.71600  0.14500  0.33700  1.0000
  O   O7        1.0  0.64600  0.41800  0.47200  1.0000
  O   O8        1.0  0.35400  0.58200  0.52800  1.0000
  O   O9        1.0  0.28400  0.85500  0.66300  1.0000
  O   O10       1.0  0.75500  0.88700  0.68000  1.0000
  O   O11       1.0  0.35000  0.44900  0.71200  1.0000
  O   O12       1.0  0.29100  0.19000  0.87400  1.0000
  O   O13       1.0  0.28300  0.63300  0.87900  1.0000
  O   O14       1.0  0.73600  0.62500  0.88100  1.0000
  P   P1        1.0  0.58600  0.53200  0.15700  1.0000
  P   P2        1.0  0.56100  0.29600  0.35600  1.0000
  P   P3        1.0  0.43900  0.70400  0.64400  1.0000
  P   P4        1.0  0.41400  0.46800  0.84300  1.0000
  Rb  Rb1       1.0  0.20500  0.85300  0.06870  1.0000
  Rb  Rb2       1.0  0.00000  0.00000  0.50000  1.0000
  Rb  Rb3       1.0  0.79500  0.14700  0.93100  1.0000
