data_image0
_chemical_formula_structural       Au2HNa3O14P4
_chemical_formula_sum              "Au2 H1 Na3 O14 P4"
_cell_length_a       5.43285
_cell_length_b       5.33785
_cell_length_c       12.7433
_cell_angle_alpha    84.6603
_cell_angle_beta     101.988
_cell_angle_gamma    119.423

_space_group_name_H-M_alt    "P 1"
_space_group_IT_number       1

loop_
  _space_group_symop_operation_xyz
  'x, y, z'

loop_
  _atom_site_type_symbol
  _atom_site_label
  _atom_site_symmetry_multiplicity
  _atom_site_fract_x
  _atom_site_fract_y
  _atom_site_fract_z
  _atom_site_occupancy
  Au  Au1       1.0  0.98000  0.23000  0.23900  1.0000
  Au  Au2       1.0  0.01950  0.77000  0.76100  1.0000
  H   H1        1.0  0.50000  0.50000  0.50000  1.0000
  Na  Na1       1.0  0.19900  0.85900  0.03630  1.0000
  Na  Na2       1.0  0.00000  0.00000  0.50000  1.0000
  Na  Na3       1.0  0.80100  0.14100  0.96400  1.0000
  O   O1        1.0  0.70000  0.78700  0.09310  1.0000
  O   O2        1.0  0.22900  0.32900  0.11300  1.0000
  O   O3        1.0  0.67600  0.29400  0.11600  1.0000
  O   O4        1.0  0.64900  0.54500  0.27100  1.0000
  O   O5        1.0  0.25500  0.10900  0.35200  1.0000
  O   O6        1.0  0.73500  0.14000  0.36300  1.0000
  O   O7        1.0  0.69400  0.50100  0.46800  1.0000
  O   O8        1.0  0.30600  0.50000  0.53200  1.0000
  O   O9        1.0  0.26500  0.86000  0.63700  1.0000
  O   O10       1.0  0.74500  0.89000  0.64900  1.0000
  O   O11       1.0  0.35100  0.45500  0.72900  1.0000
  O   O12       1.0  0.32400  0.70600  0.88400  1.0000
  O   O13       1.0  0.77100  0.67100  0.88700  1.0000
  O   O14       1.0  0.30000  0.21300  0.90700  1.0000
  P   P1        1.0  0.56300  0.49400  0.14100  1.0000
  P   P2        1.0  0.58100  0.31300  0.36700  1.0000
  P   P3        1.0  0.41900  0.68700  0.63300  1.0000
  P   P4        1.0  0.43700  0.50600  0.85900  1.0000
