data_image0
_chemical_formula_structural       Ag2Mg2O12Te4
_chemical_formula_sum              "Ag2 Mg2 O12 Te4"
_cell_length_a       4.97264
_cell_length_b       4.97264
_cell_length_c       13.1601
_cell_angle_alpha    86.7437
_cell_angle_beta     86.7437
_cell_angle_gamma    69.4679

_space_group_name_H-M_alt    "P 1"
_space_group_IT_number       1

loop_
  _space_group_symop_operation_xyz
  'x, y, z'

loop_
  _atom_site_type_symbol
  _atom_site_label
  _atom_site_symmetry_multiplicity
  _atom_site_fract_x
  _atom_site_fract_y
  _atom_site_fract_z
  _atom_site_occupancy
  Ag  Ag1       1.0  0.00000  0.00000  0.00000  1.0000
  Ag  Ag2       1.0  0.00000  0.00000  0.50000  1.0000
  Mg  Mg1       1.0  0.00643  0.99400  0.25000  1.0000
  Mg  Mg2       1.0  0.99400  0.00642  0.75000  1.0000
  O   O1        1.0  0.25400  0.75000  0.12400  1.0000
  O   O2        1.0  0.76000  0.24800  0.12600  1.0000
  O   O3        1.0  0.25200  0.24000  0.24300  1.0000
  O   O4        1.0  0.76000  0.74800  0.25700  1.0000
  O   O5        1.0  0.75200  0.24000  0.37400  1.0000
  O   O6        1.0  0.25000  0.74600  0.37600  1.0000
  O   O7        1.0  0.75000  0.25400  0.62400  1.0000
  O   O8        1.0  0.24800  0.76000  0.62600  1.0000
  O   O9        1.0  0.24000  0.25200  0.74300  1.0000
  O   O10       1.0  0.74800  0.76000  0.75700  1.0000
  O   O11       1.0  0.24000  0.75200  0.87400  1.0000
  O   O12       1.0  0.74600  0.25000  0.87600  1.0000
  Te  Te1       1.0  0.35200  0.34200  0.11500  1.0000
  Te  Te2       1.0  0.65800  0.64800  0.38500  1.0000
  Te  Te3       1.0  0.34200  0.35200  0.61500  1.0000
  Te  Te4       1.0  0.64800  0.65800  0.88500  1.0000
