data_image0
_chemical_formula_structural       As4Cs3Cu2HO14
_chemical_formula_sum              "As4 Cs3 Cu2 H1 O14"
_cell_length_a       5.5336
_cell_length_b       5.8953
_cell_length_c       13.4819
_cell_angle_alpha    93.2281
_cell_angle_beta     99.7456
_cell_angle_gamma    116.397

_space_group_name_H-M_alt    "P 1"
_space_group_IT_number       1

loop_
  _space_group_symop_operation_xyz
  'x, y, z'

loop_
  _atom_site_type_symbol
  _atom_site_label
  _atom_site_symmetry_multiplicity
  _atom_site_fract_x
  _atom_site_fract_y
  _atom_site_fract_z
  _atom_site_occupancy
  As  As1       1.0  0.60200  0.55400  0.17200  1.0000
  As  As2       1.0  0.55400  0.28900  0.35400  1.0000
  As  As3       1.0  0.44600  0.71100  0.64600  1.0000
  As  As4       1.0  0.39800  0.44600  0.82800  1.0000
  Cs  Cs1       1.0  0.20700  0.85900  0.06530  1.0000
  Cs  Cs2       1.0  0.00000  0.00000  0.50000  1.0000
  Cs  Cs3       1.0  0.79300  0.14100  0.93500  1.0000
  Cu  Cu1       1.0  0.98400  0.25000  0.22400  1.0000
  Cu  Cu2       1.0  0.01560  0.75000  0.77600  1.0000
  H   H1        1.0  0.50000  0.50000  0.50000  1.0000
  O   O1        1.0  0.72500  0.83900  0.13100  1.0000
  O   O2        1.0  0.24800  0.38500  0.13500  1.0000
  O   O3        1.0  0.75600  0.37300  0.13800  1.0000
  O   O4        1.0  0.21000  0.11300  0.30000  1.0000
  O   O5        1.0  0.67300  0.59500  0.30900  1.0000
  O   O6        1.0  0.74100  0.14600  0.32100  1.0000
  O   O7        1.0  0.61800  0.37400  0.48300  1.0000
  O   O8        1.0  0.38200  0.62600  0.51700  1.0000
  O   O9        1.0  0.25900  0.85400  0.67900  1.0000
  O   O10       1.0  0.32700  0.40500  0.69100  1.0000
  O   O11       1.0  0.79000  0.88700  0.70000  1.0000
  O   O12       1.0  0.24400  0.62700  0.86200  1.0000
  O   O13       1.0  0.75200  0.61500  0.86500  1.0000
  O   O14       1.0  0.27500  0.16100  0.86900  1.0000
