data_image0
_chemical_formula_structural       Au2Cs3HO14P4
_chemical_formula_sum              "Au2 Cs3 H1 O14 P4"
_cell_length_a       5.67051
_cell_length_b       5.96098
_cell_length_c       13.0314
_cell_angle_alpha    91.6793
_cell_angle_beta     100.468
_cell_angle_gamma    116.757

_space_group_name_H-M_alt    "P 1"
_space_group_IT_number       1

loop_
  _space_group_symop_operation_xyz
  'x, y, z'

loop_
  _atom_site_type_symbol
  _atom_site_label
  _atom_site_symmetry_multiplicity
  _atom_site_fract_x
  _atom_site_fract_y
  _atom_site_fract_z
  _atom_site_occupancy
  Au  Au1       1.0  0.99900  0.28100  0.23100  1.0000
  Au  Au2       1.0  0.00121  0.71900  0.76900  1.0000
  Cs  Cs1       1.0  0.20700  0.85500  0.07170  1.0000
  Cs  Cs2       1.0  0.00000  0.00000  0.50000  1.0000
  Cs  Cs3       1.0  0.79300  0.14500  0.92800  1.0000
  H   H1        1.0  0.50000  0.50000  0.50000  1.0000
  O   O1        1.0  0.27600  0.38200  0.12600  1.0000
  O   O2        1.0  0.71800  0.37400  0.12800  1.0000
  O   O3        1.0  0.70500  0.79800  0.13500  1.0000
  O   O4        1.0  0.65000  0.55400  0.29300  1.0000
  O   O5        1.0  0.25200  0.13100  0.31300  1.0000
  O   O6        1.0  0.71100  0.15900  0.33100  1.0000
  O   O7        1.0  0.63200  0.40900  0.47100  1.0000
  O   O8        1.0  0.36800  0.59100  0.52900  1.0000
  O   O9        1.0  0.28900  0.84100  0.66900  1.0000
  O   O10       1.0  0.74800  0.86900  0.68700  1.0000
  O   O11       1.0  0.35000  0.44600  0.70700  1.0000
  O   O12       1.0  0.29500  0.20200  0.86500  1.0000
  O   O13       1.0  0.28200  0.62600  0.87200  1.0000
  O   O14       1.0  0.72400  0.61800  0.87400  1.0000
  P   P1        1.0  0.58900  0.53500  0.16400  1.0000
  P   P2        1.0  0.55700  0.30300  0.35400  1.0000
  P   P3        1.0  0.44300  0.69700  0.64600  1.0000
  P   P4        1.0  0.41100  0.46500  0.83600  1.0000
