data_image0
_chemical_formula_structural       Au2O12Sr2Te4
_chemical_formula_sum              "Au2 O12 Sr2 Te4"
_cell_length_a       4.84815
_cell_length_b       4.84815
_cell_length_c       15.4791
_cell_angle_alpha    89.3627
_cell_angle_beta     89.3627
_cell_angle_gamma    68.5599

_space_group_name_H-M_alt    "P 1"
_space_group_IT_number       1

loop_
  _space_group_symop_operation_xyz
  'x, y, z'

loop_
  _atom_site_type_symbol
  _atom_site_label
  _atom_site_symmetry_multiplicity
  _atom_site_fract_x
  _atom_site_fract_y
  _atom_site_fract_z
  _atom_site_occupancy
  Au  Au1       1.0  0.00000  0.00000  0.00000  1.0000
  Au  Au2       1.0  0.00000  0.00000  0.50000  1.0000
  O   O1        1.0  0.75500  0.35300  0.09020  1.0000
  O   O2        1.0  0.17200  0.76600  0.11700  1.0000
  O   O3        1.0  0.37600  0.22100  0.21200  1.0000
  O   O4        1.0  0.77900  0.62400  0.28800  1.0000
  O   O5        1.0  0.23400  0.82800  0.38300  1.0000
  O   O6        1.0  0.64700  0.24500  0.41000  1.0000
  O   O7        1.0  0.35300  0.75500  0.59000  1.0000
  O   O8        1.0  0.76600  0.17200  0.61700  1.0000
  O   O9        1.0  0.22100  0.37600  0.71200  1.0000
  O   O10       1.0  0.62400  0.77900  0.78800  1.0000
  O   O11       1.0  0.82800  0.23400  0.88300  1.0000
  O   O12       1.0  0.24500  0.64700  0.91000  1.0000
  Sr  Sr1       1.0  0.93500  0.06500  0.25000  1.0000
  Sr  Sr2       1.0  0.06500  0.93500  0.75000  1.0000
  Te  Te1       1.0  0.35700  0.35100  0.09840  1.0000
  Te  Te2       1.0  0.64900  0.64300  0.40200  1.0000
  Te  Te3       1.0  0.35100  0.35700  0.59800  1.0000
  Te  Te4       1.0  0.64300  0.64900  0.90200  1.0000
