data_image0
_chemical_formula_structural       Au2Ca2O12Se4
_chemical_formula_sum              "Au2 Ca2 O12 Se4"
_cell_length_a       4.538
_cell_length_b       4.538
_cell_length_c       14.8199
_cell_angle_alpha    84.9551
_cell_angle_beta     84.9551
_cell_angle_gamma    73.0583

_space_group_name_H-M_alt    "P 1"
_space_group_IT_number       1

loop_
  _space_group_symop_operation_xyz
  'x, y, z'

loop_
  _atom_site_type_symbol
  _atom_site_label
  _atom_site_symmetry_multiplicity
  _atom_site_fract_x
  _atom_site_fract_y
  _atom_site_fract_z
  _atom_site_occupancy
  Au  Au1       1.0  0.00000  0.00000  0.00000  1.0000
  Au  Au2       1.0  0.00000  0.00000  0.50000  1.0000
  Ca  Ca1       1.0  0.94000  0.06000  0.25000  1.0000
  Ca  Ca2       1.0  0.06000  0.94000  0.75000  1.0000
  O   O1        1.0  0.79400  0.34900  0.09680  1.0000
  O   O2        1.0  0.24500  0.78600  0.11900  1.0000
  O   O3        1.0  0.37600  0.24700  0.22000  1.0000
  O   O4        1.0  0.75300  0.62400  0.28000  1.0000
  O   O5        1.0  0.21400  0.75500  0.38100  1.0000
  O   O6        1.0  0.65100  0.20600  0.40300  1.0000
  O   O7        1.0  0.34900  0.79400  0.59700  1.0000
  O   O8        1.0  0.78600  0.24500  0.61900  1.0000
  O   O9        1.0  0.24700  0.37600  0.72000  1.0000
  O   O10       1.0  0.62400  0.75300  0.78000  1.0000
  O   O11       1.0  0.75500  0.21400  0.88100  1.0000
  O   O12       1.0  0.20600  0.65100  0.90300  1.0000
  Se  Se1       1.0  0.39300  0.38500  0.11100  1.0000
  Se  Se2       1.0  0.61500  0.60700  0.38900  1.0000
  Se  Se3       1.0  0.38500  0.39300  0.61100  1.0000
  Se  Se4       1.0  0.60700  0.61500  0.88900  1.0000
