data_image0
_chemical_formula_structural       As4Au2HK3O14
_chemical_formula_sum              "As4 Au2 H1 K3 O14"
_cell_length_a       5.73693
_cell_length_b       5.82095
_cell_length_c       12.9403
_cell_angle_alpha    88.8338
_cell_angle_beta     101.841
_cell_angle_gamma    118.754

_space_group_name_H-M_alt    "P 1"
_space_group_IT_number       1

loop_
  _space_group_symop_operation_xyz
  'x, y, z'

loop_
  _atom_site_type_symbol
  _atom_site_label
  _atom_site_symmetry_multiplicity
  _atom_site_fract_x
  _atom_site_fract_y
  _atom_site_fract_z
  _atom_site_occupancy
  As  As1       1.0  0.58500  0.53300  0.14800  1.0000
  As  As2       1.0  0.57100  0.29600  0.36400  1.0000
  As  As3       1.0  0.42900  0.70400  0.63600  1.0000
  As  As4       1.0  0.41500  0.46700  0.85200  1.0000
  Au  Au1       1.0  0.99300  0.25800  0.23100  1.0000
  Au  Au2       1.0  0.00717  0.74200  0.76900  1.0000
  H   H1        1.0  0.50000  0.50000  0.50000  1.0000
  K   K1        1.0  0.20600  0.85400  0.06530  1.0000
  K   K2        1.0  0.00000  0.00000  0.50000  1.0000
  K   K3        1.0  0.79400  0.14600  0.93500  1.0000
  O   O1        1.0  0.71000  0.82800  0.10100  1.0000
  O   O2        1.0  0.23300  0.35400  0.11400  1.0000
  O   O3        1.0  0.72200  0.34500  0.11700  1.0000
  O   O4        1.0  0.67400  0.58300  0.29100  1.0000
  O   O5        1.0  0.22600  0.09630  0.32300  1.0000
  O   O6        1.0  0.72900  0.12600  0.34000  1.0000
  O   O7        1.0  0.66400  0.43000  0.49200  1.0000
  O   O8        1.0  0.33600  0.57000  0.50800  1.0000
  O   O9        1.0  0.27100  0.87400  0.66000  1.0000
  O   O10       1.0  0.77400  0.90400  0.67700  1.0000
  O   O11       1.0  0.32600  0.41700  0.70900  1.0000
  O   O12       1.0  0.27800  0.65500  0.88300  1.0000
  O   O13       1.0  0.76700  0.64600  0.88600  1.0000
  O   O14       1.0  0.29000  0.17200  0.89900  1.0000
