data_image0
_chemical_formula_structural       Ag2HK3O14P4
_chemical_formula_sum              "Ag2 H1 K3 O14 P4"
_cell_length_a       5.47989
_cell_length_b       5.6245
_cell_length_c       12.755
_cell_angle_alpha    89.3247
_cell_angle_beta     101.146
_cell_angle_gamma    117.786

_space_group_name_H-M_alt    "P 1"
_space_group_IT_number       1

loop_
  _space_group_symop_operation_xyz
  'x, y, z'

loop_
  _atom_site_type_symbol
  _atom_site_label
  _atom_site_symmetry_multiplicity
  _atom_site_fract_x
  _atom_site_fract_y
  _atom_site_fract_z
  _atom_site_occupancy
  Ag  Ag1       1.0  0.98700  0.25200  0.22900  1.0000
  Ag  Ag2       1.0  0.01320  0.74800  0.77100  1.0000
  H   H1        1.0  0.50000  0.50000  0.50000  1.0000
  K   K1        1.0  0.20300  0.85100  0.06470  1.0000
  K   K2        1.0  0.00000  0.00000  0.50000  1.0000
  K   K3        1.0  0.79700  0.14900  0.93500  1.0000
  O   O1        1.0  0.25600  0.36800  0.11500  1.0000
  O   O2        1.0  0.71100  0.35600  0.11600  1.0000
  O   O3        1.0  0.70700  0.81000  0.11900  1.0000
  O   O4        1.0  0.64900  0.54700  0.28400  1.0000
  O   O5        1.0  0.24500  0.10800  0.32600  1.0000
  O   O6        1.0  0.72000  0.14000  0.34100  1.0000
  O   O7        1.0  0.65800  0.43200  0.47300  1.0000
  O   O8        1.0  0.34200  0.56800  0.52700  1.0000
  O   O9        1.0  0.28000  0.86000  0.65900  1.0000
  O   O10       1.0  0.75500  0.89200  0.67400  1.0000
  O   O11       1.0  0.35100  0.45300  0.71600  1.0000
  O   O12       1.0  0.29300  0.19000  0.88100  1.0000
  O   O13       1.0  0.28900  0.64400  0.88400  1.0000
  O   O14       1.0  0.74400  0.63200  0.88500  1.0000
  P   P1        1.0  0.58100  0.52600  0.15200  1.0000
  P   P2        1.0  0.56400  0.29600  0.35800  1.0000
  P   P3        1.0  0.43600  0.70400  0.64200  1.0000
  P   P4        1.0  0.41900  0.47400  0.84800  1.0000
