data_image0
_chemical_formula_structural       Au2Ba2O12Se4
_chemical_formula_sum              "Au2 Ba2 O12 Se4"
_cell_length_a       4.84201
_cell_length_b       4.84201
_cell_length_c       15.9428
_cell_angle_alpha    90.1523
_cell_angle_beta     90.1523
_cell_angle_gamma    68.5805

_space_group_name_H-M_alt    "P 1"
_space_group_IT_number       1

loop_
  _space_group_symop_operation_xyz
  'x, y, z'

loop_
  _atom_site_type_symbol
  _atom_site_label
  _atom_site_symmetry_multiplicity
  _atom_site_fract_x
  _atom_site_fract_y
  _atom_site_fract_z
  _atom_site_occupancy
  Au  Au1       1.0  0.00000  0.00000  0.00000  1.0000
  Au  Au2       1.0  0.00000  0.00000  0.50000  1.0000
  Ba  Ba1       1.0  0.95200  0.04810  0.25000  1.0000
  Ba  Ba2       1.0  0.04810  0.95200  0.75000  1.0000
  O   O1        1.0  0.74100  0.34700  0.08740  1.0000
  O   O2        1.0  0.19500  0.74700  0.10800  1.0000
  O   O3        1.0  0.36900  0.25600  0.19700  1.0000
  O   O4        1.0  0.74400  0.63100  0.30300  1.0000
  O   O5        1.0  0.25300  0.80500  0.39200  1.0000
  O   O6        1.0  0.65300  0.25900  0.41300  1.0000
  O   O7        1.0  0.34700  0.74100  0.58700  1.0000
  O   O8        1.0  0.74700  0.19500  0.60800  1.0000
  O   O9        1.0  0.25600  0.36900  0.69700  1.0000
  O   O10       1.0  0.63100  0.74400  0.80300  1.0000
  O   O11       1.0  0.80500  0.25300  0.89200  1.0000
  O   O12       1.0  0.25900  0.65300  0.91300  1.0000
  Se  Se1       1.0  0.37300  0.36300  0.09630  1.0000
  Se  Se2       1.0  0.63700  0.62700  0.40400  1.0000
  Se  Se3       1.0  0.36300  0.37300  0.59600  1.0000
  Se  Se4       1.0  0.62700  0.63700  0.90400  1.0000
