data_image0
_chemical_formula_structural       Ag2Ba2O12Te4
_chemical_formula_sum              "Ag2 Ba2 O12 Te4"
_cell_length_a       4.88928
_cell_length_b       4.88928
_cell_length_c       16.2375
_cell_angle_alpha    90.2888
_cell_angle_beta     90.2888
_cell_angle_gamma    69.5828

_space_group_name_H-M_alt    "P 1"
_space_group_IT_number       1

loop_
  _space_group_symop_operation_xyz
  'x, y, z'

loop_
  _atom_site_type_symbol
  _atom_site_label
  _atom_site_symmetry_multiplicity
  _atom_site_fract_x
  _atom_site_fract_y
  _atom_site_fract_z
  _atom_site_occupancy
  Ag  Ag1       1.0  0.00000  0.00000  0.00000  1.0000
  Ag  Ag2       1.0  0.00000  0.00000  0.50000  1.0000
  Ba  Ba1       1.0  0.95700  0.04320  0.25000  1.0000
  Ba  Ba2       1.0  0.04320  0.95700  0.75000  1.0000
  O   O1        1.0  0.75300  0.35700  0.08060  1.0000
  O   O2        1.0  0.18300  0.76200  0.10800  1.0000
  O   O3        1.0  0.38300  0.24400  0.20200  1.0000
  O   O4        1.0  0.75600  0.61700  0.29800  1.0000
  O   O5        1.0  0.23800  0.81700  0.39200  1.0000
  O   O6        1.0  0.64300  0.24700  0.41900  1.0000
  O   O7        1.0  0.35700  0.75300  0.58100  1.0000
  O   O8        1.0  0.76200  0.18300  0.60800  1.0000
  O   O9        1.0  0.24400  0.38300  0.70200  1.0000
  O   O10       1.0  0.61700  0.75600  0.79800  1.0000
  O   O11       1.0  0.81700  0.23800  0.89200  1.0000
  O   O12       1.0  0.24700  0.64300  0.91900  1.0000
  Te  Te1       1.0  0.36200  0.35300  0.09170  1.0000
  Te  Te2       1.0  0.64700  0.63800  0.40800  1.0000
  Te  Te3       1.0  0.35300  0.36200  0.59200  1.0000
  Te  Te4       1.0  0.63800  0.64700  0.90800  1.0000
