data_image0
_chemical_formula_structural       Au2Ca2O12Te4
_chemical_formula_sum              "Au2 Ca2 O12 Te4"
_cell_length_a       4.60934
_cell_length_b       4.60934
_cell_length_c       15.0991
_cell_angle_alpha    86.1974
_cell_angle_beta     86.1974
_cell_angle_gamma    74.0536

_space_group_name_H-M_alt    "P 1"
_space_group_IT_number       1

loop_
  _space_group_symop_operation_xyz
  'x, y, z'

loop_
  _atom_site_type_symbol
  _atom_site_label
  _atom_site_symmetry_multiplicity
  _atom_site_fract_x
  _atom_site_fract_y
  _atom_site_fract_z
  _atom_site_occupancy
  Au  Au1       1.0  0.00000  0.00000  0.00000  1.0000
  Au  Au2       1.0  0.00000  0.00000  0.50000  1.0000
  Ca  Ca1       1.0  0.94100  0.05880  0.25000  1.0000
  Ca  Ca2       1.0  0.05880  0.94100  0.75000  1.0000
  O   O1        1.0  0.81600  0.34300  0.09820  1.0000
  O   O2        1.0  0.23000  0.79500  0.11900  1.0000
  O   O3        1.0  0.38200  0.22800  0.22500  1.0000
  O   O4        1.0  0.77200  0.61800  0.27500  1.0000
  O   O5        1.0  0.20500  0.77000  0.38100  1.0000
  O   O6        1.0  0.65700  0.18400  0.40200  1.0000
  O   O7        1.0  0.34300  0.81600  0.59800  1.0000
  O   O8        1.0  0.79500  0.23000  0.61900  1.0000
  O   O9        1.0  0.22800  0.38200  0.72500  1.0000
  O   O10       1.0  0.61800  0.77200  0.77500  1.0000
  O   O11       1.0  0.77000  0.20500  0.88100  1.0000
  O   O12       1.0  0.18400  0.65700  0.90200  1.0000
  Te  Te1       1.0  0.38400  0.36700  0.10700  1.0000
  Te  Te2       1.0  0.63300  0.61600  0.39300  1.0000
  Te  Te3       1.0  0.36700  0.38400  0.60700  1.0000
  Te  Te4       1.0  0.61600  0.63300  0.89300  1.0000
