data_image0
_chemical_formula_structural       AgBr2
_chemical_formula_sum              "Ag1 Br2"
_cell_length_a       3.67096
_cell_length_b       4.37801
_cell_length_c       6.47166
_cell_angle_alpha    90.4839
_cell_angle_beta     106.476
_cell_angle_gamma    65.2127

_space_group_name_H-M_alt    "P 1"
_space_group_IT_number       1

loop_
  _space_group_symop_operation_xyz
  'x, y, z'

loop_
  _atom_site_type_symbol
  _atom_site_label
  _atom_site_symmetry_multiplicity
  _atom_site_fract_x
  _atom_site_fract_y
  _atom_site_fract_z
  _atom_site_occupancy
  Ag  Ag1       1.0  0.00000  0.00000  0.00000  1.0000
  Br  Br1       1.0  0.77000  0.72200  0.26200  1.0000
  Br  Br2       1.0  0.23000  0.27800  0.73800  1.0000
