data_image0
_chemical_formula_structural       Ca2Cu2O12S4
_chemical_formula_sum              "Ca2 Cu2 O12 S4"
_cell_length_a       4.48761
_cell_length_b       4.48761
_cell_length_c       13.984
_cell_angle_alpha    91.3447
_cell_angle_beta     91.3447
_cell_angle_gamma    67.0698

_space_group_name_H-M_alt    "P 1"
_space_group_IT_number       1

loop_
  _space_group_symop_operation_xyz
  'x, y, z'

loop_
  _atom_site_type_symbol
  _atom_site_label
  _atom_site_symmetry_multiplicity
  _atom_site_fract_x
  _atom_site_fract_y
  _atom_site_fract_z
  _atom_site_occupancy
  Ca  Ca1       1.0  0.94200  0.05760  0.25000  1.0000
  Ca  Ca2       1.0  0.05760  0.94200  0.75000  1.0000
  Cu  Cu1       1.0  0.00000  0.00000  0.00000  1.0000
  Cu  Cu2       1.0  0.00000  0.00000  0.50000  1.0000
  O   O1        1.0  0.72000  0.31700  0.09150  1.0000
  O   O2        1.0  0.17300  0.72500  0.11100  1.0000
  O   O3        1.0  0.36000  0.23600  0.20300  1.0000
  O   O4        1.0  0.76400  0.64000  0.29700  1.0000
  O   O5        1.0  0.27500  0.82700  0.38900  1.0000
  O   O6        1.0  0.68300  0.28000  0.40900  1.0000
  O   O7        1.0  0.31700  0.72000  0.59100  1.0000
  O   O8        1.0  0.72500  0.17300  0.61100  1.0000
  O   O9        1.0  0.23600  0.36000  0.70300  1.0000
  O   O10       1.0  0.64000  0.76400  0.79700  1.0000
  O   O11       1.0  0.82700  0.27500  0.88900  1.0000
  O   O12       1.0  0.28000  0.68300  0.90900  1.0000
  S   S1        1.0  0.36200  0.35100  0.10100  1.0000
  S   S2        1.0  0.64900  0.63800  0.39900  1.0000
  S   S3        1.0  0.35100  0.36200  0.60100  1.0000
  S   S4        1.0  0.63800  0.64900  0.89900  1.0000
