data_image0
_chemical_formula_structural       Nd2O2Se2Tl2
_chemical_formula_sum              "Nd2 O2 Se2 Tl2"
_cell_length_a       4.77712
_cell_length_b       8.11151
_cell_length_c       6.68576
_cell_angle_alpha    90
_cell_angle_beta     90
_cell_angle_gamma    90

_space_group_name_H-M_alt    "P 1"
_space_group_IT_number       1

loop_
  _space_group_symop_operation_xyz
  'x, y, z'

loop_
  _atom_site_type_symbol
  _atom_site_label
  _atom_site_symmetry_multiplicity
  _atom_site_fract_x
  _atom_site_fract_y
  _atom_site_fract_z
  _atom_site_occupancy
  Nd  Nd1       1.0  0.50000  0.86400  0.03300  1.0000
  Nd  Nd2       1.0  0.50000  0.13600  0.53300  1.0000
  O   O1        1.0  0.50000  0.09070  0.20900  1.0000
  O   O2        1.0  0.50000  0.90900  0.70900  1.0000
  Se  Se1       1.0  0.00000  0.68600  0.13600  1.0000
  Se  Se2       1.0  0.00000  0.31400  0.63600  1.0000
  Tl  Tl1       1.0  0.00000  0.29500  0.11200  1.0000
  Tl  Tl2       1.0  0.00000  0.70500  0.61200  1.0000
