data_image0
_chemical_formula_structural       Au2HO14P4Rb3
_chemical_formula_sum              "Au2 H1 O14 P4 Rb3"
_cell_length_a       5.54196
_cell_length_b       5.74913
_cell_length_c       12.8528
_cell_angle_alpha    89.9766
_cell_angle_beta     100.849
_cell_angle_gamma    117.361

_space_group_name_H-M_alt    "P 1"
_space_group_IT_number       1

loop_
  _space_group_symop_operation_xyz
  'x, y, z'

loop_
  _atom_site_type_symbol
  _atom_site_label
  _atom_site_symmetry_multiplicity
  _atom_site_fract_x
  _atom_site_fract_y
  _atom_site_fract_z
  _atom_site_occupancy
  Au  Au1       1.0  0.99400  0.26900  0.23100  1.0000
  Au  Au2       1.0  0.00561  0.73100  0.76900  1.0000
  H   H1        1.0  0.50000  0.50000  0.50000  1.0000
  O   O1        1.0  0.26200  0.36900  0.11800  1.0000
  O   O2        1.0  0.71200  0.36100  0.12000  1.0000
  O   O3        1.0  0.70200  0.80100  0.12100  1.0000
  O   O4        1.0  0.65000  0.55000  0.28600  1.0000
  O   O5        1.0  0.24800  0.11800  0.32100  1.0000
  O   O6        1.0  0.71600  0.14800  0.33700  1.0000
  O   O7        1.0  0.64800  0.42300  0.47200  1.0000
  O   O8        1.0  0.35200  0.57700  0.52800  1.0000
  O   O9        1.0  0.28400  0.85200  0.66300  1.0000
  O   O10       1.0  0.75200  0.88200  0.67900  1.0000
  O   O11       1.0  0.35000  0.45000  0.71400  1.0000
  O   O12       1.0  0.29800  0.19900  0.87900  1.0000
  O   O13       1.0  0.28800  0.63900  0.88000  1.0000
  O   O14       1.0  0.73800  0.63100  0.88200  1.0000
  P   P1        1.0  0.58300  0.52800  0.15500  1.0000
  P   P2        1.0  0.56200  0.30000  0.35600  1.0000
  P   P3        1.0  0.43800  0.70000  0.64400  1.0000
  P   P4        1.0  0.41700  0.47200  0.84500  1.0000
  Rb  Rb1       1.0  0.20400  0.85200  0.06920  1.0000
  Rb  Rb2       1.0  0.00000  0.00000  0.50000  1.0000
  Rb  Rb3       1.0  0.79600  0.14800  0.93100  1.0000
