data_image0
_chemical_formula_structural       Ag2As4HK3O14
_chemical_formula_sum              "Ag2 As4 H1 K3 O14"
_cell_length_a       5.60075
_cell_length_b       5.75451
_cell_length_c       12.9502
_cell_angle_alpha    89.8255
_cell_angle_beta     101.364
_cell_angle_gamma    118.073

_space_group_name_H-M_alt    "P 1"
_space_group_IT_number       1

loop_
  _space_group_symop_operation_xyz
  'x, y, z'

loop_
  _atom_site_type_symbol
  _atom_site_label
  _atom_site_symmetry_multiplicity
  _atom_site_fract_x
  _atom_site_fract_y
  _atom_site_fract_z
  _atom_site_occupancy
  Ag  Ag1       1.0  0.98700  0.24800  0.22800  1.0000
  Ag  Ag2       1.0  0.01270  0.75200  0.77200  1.0000
  As  As1       1.0  0.58600  0.53700  0.14900  1.0000
  As  As2       1.0  0.56800  0.28900  0.36300  1.0000
  As  As3       1.0  0.43200  0.71100  0.63700  1.0000
  As  As4       1.0  0.41400  0.46300  0.85100  1.0000
  H   H1        1.0  0.50000  0.50000  0.50000  1.0000
  K   K1        1.0  0.20600  0.85600  0.06490  1.0000
  K   K2        1.0  0.00000  0.00000  0.50000  1.0000
  K   K3        1.0  0.79400  0.14400  0.93500  1.0000
  O   O1        1.0  0.71600  0.83700  0.10700  1.0000
  O   O2        1.0  0.23200  0.36300  0.11200  1.0000
  O   O3        1.0  0.72600  0.34900  0.11500  1.0000
  O   O4        1.0  0.66900  0.57800  0.29300  1.0000
  O   O5        1.0  0.22000  0.08680  0.32200  1.0000
  O   O6        1.0  0.73200  0.11900  0.34000  1.0000
  O   O7        1.0  0.66300  0.42300  0.49200  1.0000
  O   O8        1.0  0.33700  0.57700  0.50800  1.0000
  O   O9        1.0  0.26800  0.88100  0.66000  1.0000
  O   O10       1.0  0.78000  0.91300  0.67800  1.0000
  O   O11       1.0  0.33100  0.42200  0.70700  1.0000
  O   O12       1.0  0.27400  0.65100  0.88500  1.0000
  O   O13       1.0  0.76800  0.63700  0.88800  1.0000
  O   O14       1.0  0.28400  0.16300  0.89300  1.0000
