data_image0
_chemical_formula_structural       Ag2Ca2O12S4
_chemical_formula_sum              "Ag2 Ca2 O12 S4"
_cell_length_a       4.51461
_cell_length_b       4.51461
_cell_length_c       14.646
_cell_angle_alpha    92.8149
_cell_angle_beta     92.8149
_cell_angle_gamma    69.232

_space_group_name_H-M_alt    "P 1"
_space_group_IT_number       1

loop_
  _space_group_symop_operation_xyz
  'x, y, z'

loop_
  _atom_site_type_symbol
  _atom_site_label
  _atom_site_symmetry_multiplicity
  _atom_site_fract_x
  _atom_site_fract_y
  _atom_site_fract_z
  _atom_site_occupancy
  Ag  Ag1       1.0  0.00000  0.00000  0.00000  1.0000
  Ag  Ag2       1.0  0.00000  0.00000  0.50000  1.0000
  Ca  Ca1       1.0  0.93900  0.06140  0.25000  1.0000
  Ca  Ca2       1.0  0.06140  0.93900  0.75000  1.0000
  O   O1        1.0  0.70300  0.34600  0.10300  1.0000
  O   O2        1.0  0.15900  0.70800  0.12300  1.0000
  O   O3        1.0  0.36700  0.21700  0.20400  1.0000
  O   O4        1.0  0.78300  0.63300  0.29600  1.0000
  O   O5        1.0  0.29200  0.84100  0.37700  1.0000
  O   O6        1.0  0.65400  0.29700  0.39700  1.0000
  O   O7        1.0  0.34600  0.70300  0.60300  1.0000
  O   O8        1.0  0.70800  0.15900  0.62300  1.0000
  O   O9        1.0  0.21700  0.36700  0.70400  1.0000
  O   O10       1.0  0.63300  0.78300  0.79600  1.0000
  O   O11       1.0  0.84100  0.29200  0.87700  1.0000
  O   O12       1.0  0.29700  0.65400  0.89700  1.0000
  S   S1        1.0  0.36000  0.35400  0.11100  1.0000
  S   S2        1.0  0.64600  0.64000  0.38900  1.0000
  S   S3        1.0  0.35400  0.36000  0.61100  1.0000
  S   S4        1.0  0.64000  0.64600  0.88900  1.0000
