data_image0
_chemical_formula_structural       As4Au2HO14Rb3
_chemical_formula_sum              "As4 Au2 H1 O14 Rb3"
_cell_length_a       5.78768
_cell_length_b       5.93964
_cell_length_c       13.0374
_cell_angle_alpha    90.3346
_cell_angle_beta     101.435
_cell_angle_gamma    118.203

_space_group_name_H-M_alt    "P 1"
_space_group_IT_number       1

loop_
  _space_group_symop_operation_xyz
  'x, y, z'

loop_
  _atom_site_type_symbol
  _atom_site_label
  _atom_site_symmetry_multiplicity
  _atom_site_fract_x
  _atom_site_fract_y
  _atom_site_fract_z
  _atom_site_occupancy
  As  As1       1.0  0.58900  0.53900  0.15200  1.0000
  As  As2       1.0  0.56600  0.29700  0.36000  1.0000
  As  As3       1.0  0.43400  0.70300  0.64000  1.0000
  As  As4       1.0  0.41100  0.46100  0.84800  1.0000
  Au  Au1       1.0  0.99600  0.26700  0.23000  1.0000
  Au  Au2       1.0  0.00444  0.73300  0.77000  1.0000
  H   H1        1.0  0.50000  0.50000  0.50000  1.0000
  O   O1        1.0  0.71000  0.82600  0.10800  1.0000
  O   O2        1.0  0.24200  0.36300  0.11700  1.0000
  O   O3        1.0  0.72800  0.35600  0.12000  1.0000
  O   O4        1.0  0.67300  0.58400  0.29500  1.0000
  O   O5        1.0  0.22600  0.10400  0.31500  1.0000
  O   O6        1.0  0.72600  0.13300  0.33400  1.0000
  O   O7        1.0  0.65000  0.41500  0.49000  1.0000
  O   O8        1.0  0.35000  0.58500  0.51000  1.0000
  O   O9        1.0  0.27400  0.86700  0.66600  1.0000
  O   O10       1.0  0.77400  0.89600  0.68500  1.0000
  O   O11       1.0  0.32700  0.41600  0.70500  1.0000
  O   O12       1.0  0.27200  0.64400  0.88000  1.0000
  O   O13       1.0  0.75800  0.63700  0.88300  1.0000
  O   O14       1.0  0.29000  0.17400  0.89200  1.0000
  Rb  Rb1       1.0  0.20900  0.85600  0.07110  1.0000
  Rb  Rb2       1.0  0.00000  0.00000  0.50000  1.0000
  Rb  Rb3       1.0  0.79100  0.14400  0.92900  1.0000
