data_image0
_chemical_formula_structural       AgI2
_chemical_formula_sum              "Ag1 I2"
_cell_length_a       3.99965
_cell_length_b       4.53148
_cell_length_c       6.86734
_cell_angle_alpha    93.1725
_cell_angle_beta     106.93
_cell_angle_gamma    63.812

_space_group_name_H-M_alt    "P 1"
_space_group_IT_number       1

loop_
  _space_group_symop_operation_xyz
  'x, y, z'

loop_
  _atom_site_type_symbol
  _atom_site_label
  _atom_site_symmetry_multiplicity
  _atom_site_fract_x
  _atom_site_fract_y
  _atom_site_fract_z
  _atom_site_occupancy
  Ag  Ag1       1.0  0.00000  0.00000  0.00000  1.0000
  I   I1        1.0  0.76600  0.72700  0.26000  1.0000
  I   I2        1.0  0.23400  0.27300  0.74000  1.0000
