data_image0
_chemical_formula_structural       As4Au2HNa3O14
_chemical_formula_sum              "As4 Au2 H1 Na3 O14"
_cell_length_a       5.53729
_cell_length_b       5.48751
_cell_length_c       13.0724
_cell_angle_alpha    84.3495
_cell_angle_beta     102.524
_cell_angle_gamma    120.129

_space_group_name_H-M_alt    "P 1"
_space_group_IT_number       1

loop_
  _space_group_symop_operation_xyz
  'x, y, z'

loop_
  _atom_site_type_symbol
  _atom_site_label
  _atom_site_symmetry_multiplicity
  _atom_site_fract_x
  _atom_site_fract_y
  _atom_site_fract_z
  _atom_site_occupancy
  As  As1       1.0  0.55600  0.49300  0.13800  1.0000
  As  As2       1.0  0.57700  0.29800  0.37100  1.0000
  As  As3       1.0  0.42300  0.70200  0.62900  1.0000
  As  As4       1.0  0.44400  0.50700  0.86200  1.0000
  Au  Au1       1.0  0.94800  0.20900  0.23600  1.0000
  Au  Au2       1.0  0.05160  0.79100  0.76400  1.0000
  H   H1        1.0  0.50000  0.50000  0.50000  1.0000
  Na  Na1       1.0  0.18000  0.82900  0.02880  1.0000
  Na  Na2       1.0  0.00000  0.00000  0.50000  1.0000
  Na  Na3       1.0  0.82000  0.17100  0.97100  1.0000
  O   O1        1.0  0.77200  0.78300  0.07920  1.0000
  O   O2        1.0  0.20800  0.42200  0.11600  1.0000
  O   O3        1.0  0.59600  0.20600  0.12100  1.0000
  O   O4        1.0  0.68200  0.56900  0.27600  1.0000
  O   O5        1.0  0.21500  0.09820  0.34800  1.0000
  O   O6        1.0  0.71100  0.08300  0.36100  1.0000
  O   O7        1.0  0.70100  0.48500  0.48600  1.0000
  O   O8        1.0  0.29900  0.51500  0.51400  1.0000
  O   O9        1.0  0.28900  0.91700  0.63900  1.0000
  O   O10       1.0  0.78500  0.90200  0.65200  1.0000
  O   O11       1.0  0.31800  0.43100  0.72400  1.0000
  O   O12       1.0  0.40400  0.79400  0.87900  1.0000
  O   O13       1.0  0.79200  0.57800  0.88400  1.0000
  O   O14       1.0  0.22800  0.21700  0.92100  1.0000
