data_image0
_chemical_formula_structural       As4Au2Cs3HO14
_chemical_formula_sum              "As4 Au2 Cs3 H1 O14"
_cell_length_a       5.84246
_cell_length_b       6.08615
_cell_length_c       13.2639
_cell_angle_alpha    91.6379
_cell_angle_beta     100.832
_cell_angle_gamma    117.411

_space_group_name_H-M_alt    "P 1"
_space_group_IT_number       1

loop_
  _space_group_symop_operation_xyz
  'x, y, z'

loop_
  _atom_site_type_symbol
  _atom_site_label
  _atom_site_symmetry_multiplicity
  _atom_site_fract_x
  _atom_site_fract_y
  _atom_site_fract_z
  _atom_site_occupancy
  As  As1       1.0  0.59600  0.54900  0.16100  1.0000
  As  As2       1.0  0.56000  0.29700  0.35800  1.0000
  As  As3       1.0  0.44000  0.70300  0.64200  1.0000
  As  As4       1.0  0.40400  0.45100  0.83900  1.0000
  Au  Au1       1.0  1.00000  0.27800  0.23000  1.0000
  Au  Au2       1.0  0.00024  0.72200  0.77000  1.0000
  Cs  Cs1       1.0  0.21100  0.86200  0.07180  1.0000
  Cs  Cs2       1.0  0.00000  0.00000  0.50000  1.0000
  Cs  Cs3       1.0  0.78900  0.13800  0.92800  1.0000
  H   H1        1.0  0.50000  0.50000  0.50000  1.0000
  O   O1        1.0  0.71500  0.82900  0.12000  1.0000
  O   O2        1.0  0.25500  0.37900  0.12300  1.0000
  O   O3        1.0  0.73800  0.37200  0.12600  1.0000
  O   O4        1.0  0.67100  0.58300  0.30100  1.0000
  O   O5        1.0  0.22800  0.11400  0.30800  1.0000
  O   O6        1.0  0.72300  0.14100  0.32800  1.0000
  O   O7        1.0  0.63200  0.40000  0.48700  1.0000
  O   O8        1.0  0.36800  0.60000  0.51300  1.0000
  O   O9        1.0  0.27700  0.85900  0.67200  1.0000
  O   O10       1.0  0.77200  0.88600  0.69200  1.0000
  O   O11       1.0  0.32900  0.41700  0.69900  1.0000
  O   O12       1.0  0.26200  0.62800  0.87400  1.0000
  O   O13       1.0  0.74500  0.62100  0.87700  1.0000
  O   O14       1.0  0.28500  0.17100  0.88000  1.0000
