data_image0
_chemical_formula_structural       Cu2Mg2O12Se4
_chemical_formula_sum              "Cu2 Mg2 O12 Se4"
_cell_length_a       4.79898
_cell_length_b       4.79898
_cell_length_c       12.4539
_cell_angle_alpha    87.4964
_cell_angle_beta     87.4964
_cell_angle_gamma    67.2064

_space_group_name_H-M_alt    "P 1"
_space_group_IT_number       1

loop_
  _space_group_symop_operation_xyz
  'x, y, z'

loop_
  _atom_site_type_symbol
  _atom_site_label
  _atom_site_symmetry_multiplicity
  _atom_site_fract_x
  _atom_site_fract_y
  _atom_site_fract_z
  _atom_site_occupancy
  Cu  Cu1       1.0  0.00000  0.00000  0.00000  1.0000
  Cu  Cu2       1.0  0.00000  0.00000  0.50000  1.0000
  Mg  Mg1       1.0  0.00336  0.99700  0.25000  1.0000
  Mg  Mg2       1.0  0.99700  0.00336  0.75000  1.0000
  O   O1        1.0  0.23500  0.73700  0.11400  1.0000
  O   O2        1.0  0.74500  0.23600  0.11500  1.0000
  O   O3        1.0  0.26000  0.24400  0.22700  1.0000
  O   O4        1.0  0.75600  0.74000  0.27300  1.0000
  O   O5        1.0  0.76400  0.25500  0.38500  1.0000
  O   O6        1.0  0.26300  0.76500  0.38600  1.0000
  O   O7        1.0  0.73700  0.23500  0.61400  1.0000
  O   O8        1.0  0.23600  0.74500  0.61500  1.0000
  O   O9        1.0  0.24400  0.26000  0.72700  1.0000
  O   O10       1.0  0.74000  0.75600  0.77300  1.0000
  O   O11       1.0  0.25500  0.76400  0.88500  1.0000
  O   O12       1.0  0.76500  0.26300  0.88600  1.0000
  Se  Se1       1.0  0.35000  0.34100  0.10500  1.0000
  Se  Se2       1.0  0.65900  0.65000  0.39500  1.0000
  Se  Se3       1.0  0.34100  0.35000  0.60500  1.0000
  Se  Se4       1.0  0.65000  0.65900  0.89500  1.0000
