data_image0
_chemical_formula_structural       Cu2HNa3O14P4
_chemical_formula_sum              "Cu2 H1 Na3 O14 P4"
_cell_length_a       5.15617
_cell_length_b       5.26865
_cell_length_c       12.1315
_cell_angle_alpha    86.1266
_cell_angle_beta     102.012
_cell_angle_gamma    118.551

_space_group_name_H-M_alt    "P 1"
_space_group_IT_number       1

loop_
  _space_group_symop_operation_xyz
  'x, y, z'

loop_
  _atom_site_type_symbol
  _atom_site_label
  _atom_site_symmetry_multiplicity
  _atom_site_fract_x
  _atom_site_fract_y
  _atom_site_fract_z
  _atom_site_occupancy
  Cu  Cu1       1.0  0.96100  0.21300  0.22700  1.0000
  Cu  Cu2       1.0  0.03860  0.78700  0.77300  1.0000
  H   H1        1.0  0.50000  0.50000  0.50000  1.0000
  Na  Na1       1.0  0.19700  0.84500  0.04410  1.0000
  Na  Na2       1.0  0.00000  0.00000  0.50000  1.0000
  Na  Na3       1.0  0.80300  0.15500  0.95600  1.0000
  O   O1        1.0  0.77800  0.81700  0.10600  1.0000
  O   O2        1.0  0.65100  0.28200  0.12100  1.0000
  O   O3        1.0  0.24500  0.43000  0.12200  1.0000
  O   O4        1.0  0.68400  0.56500  0.28800  1.0000
  O   O5        1.0  0.23000  0.10500  0.32900  1.0000
  O   O6        1.0  0.73200  0.11400  0.34700  1.0000
  O   O7        1.0  0.67000  0.41400  0.48600  1.0000
  O   O8        1.0  0.33000  0.58600  0.51400  1.0000
  O   O9        1.0  0.26800  0.88600  0.65300  1.0000
  O   O10       1.0  0.77000  0.89500  0.67100  1.0000
  O   O11       1.0  0.31600  0.43500  0.71200  1.0000
  O   O12       1.0  0.75500  0.57000  0.87800  1.0000
  O   O13       1.0  0.34900  0.71800  0.87900  1.0000
  O   O14       1.0  0.22200  0.18300  0.89400  1.0000
  P   P1        1.0  0.58600  0.52500  0.15100  1.0000
  P   P2        1.0  0.57400  0.28500  0.36500  1.0000
  P   P3        1.0  0.42600  0.71500  0.63500  1.0000
  P   P4        1.0  0.41400  0.47500  0.84900  1.0000
