data_image0
_chemical_formula_structural       Ag2As4Cs3HO14
_chemical_formula_sum              "Ag2 As4 Cs3 H1 O14"
_cell_length_a       5.82151
_cell_length_b       6.03422
_cell_length_c       13.2992
_cell_angle_alpha    91.8809
_cell_angle_beta     100.705
_cell_angle_gamma    117.622

_space_group_name_H-M_alt    "P 1"
_space_group_IT_number       1

loop_
  _space_group_symop_operation_xyz
  'x, y, z'

loop_
  _atom_site_type_symbol
  _atom_site_label
  _atom_site_symmetry_multiplicity
  _atom_site_fract_x
  _atom_site_fract_y
  _atom_site_fract_z
  _atom_site_occupancy
  Ag  Ag1       1.0  0.99800  0.27400  0.22900  1.0000
  Ag  Ag2       1.0  0.00209  0.72600  0.77100  1.0000
  As  As1       1.0  0.60200  0.55800  0.16400  1.0000
  As  As2       1.0  0.55700  0.29100  0.35800  1.0000
  As  As3       1.0  0.44300  0.70900  0.64200  1.0000
  As  As4       1.0  0.39800  0.44200  0.83600  1.0000
  Cs  Cs1       1.0  0.21300  0.86600  0.06960  1.0000
  Cs  Cs2       1.0  0.00000  0.00000  0.50000  1.0000
  Cs  Cs3       1.0  0.78700  0.13400  0.93000  1.0000
  H   H1        1.0  0.50000  0.50000  0.50000  1.0000
  O   O1        1.0  0.26100  0.39000  0.12400  1.0000
  O   O2        1.0  0.72700  0.84500  0.12700  1.0000
  O   O3        1.0  0.74400  0.38400  0.12700  1.0000
  O   O4        1.0  0.67100  0.58500  0.30400  1.0000
  O   O5        1.0  0.22500  0.10700  0.30700  1.0000
  O   O6        1.0  0.72400  0.14000  0.32900  1.0000
  O   O7        1.0  0.62600  0.39200  0.48700  1.0000
  O   O8        1.0  0.37400  0.60800  0.51300  1.0000
  O   O9        1.0  0.27600  0.86000  0.67100  1.0000
  O   O10       1.0  0.77500  0.89300  0.69300  1.0000
  O   O11       1.0  0.32900  0.41500  0.69600  1.0000
  O   O12       1.0  0.25600  0.61600  0.87300  1.0000
  O   O13       1.0  0.27300  0.15500  0.87300  1.0000
  O   O14       1.0  0.73900  0.61000  0.87600  1.0000
