data_image0
_chemical_formula_structural       Ag2As4HLi3O14
_chemical_formula_sum              "Ag2 As4 H1 Li3 O14"
_cell_length_a       5.46454
_cell_length_b       5.21033
_cell_length_c       12.912
_cell_angle_alpha    77.4039
_cell_angle_beta     105.359
_cell_angle_gamma    123.691

_space_group_name_H-M_alt    "P 1"
_space_group_IT_number       1

loop_
  _space_group_symop_operation_xyz
  'x, y, z'

loop_
  _atom_site_type_symbol
  _atom_site_label
  _atom_site_symmetry_multiplicity
  _atom_site_fract_x
  _atom_site_fract_y
  _atom_site_fract_z
  _atom_site_occupancy
  Ag  Ag1       1.0  0.89900  0.16900  0.24200  1.0000
  Ag  Ag2       1.0  0.10100  0.83100  0.75800  1.0000
  As  As1       1.0  0.48500  0.44200  0.12400  1.0000
  As  As2       1.0  0.57400  0.30500  0.37600  1.0000
  As  As3       1.0  0.42600  0.69500  0.62400  1.0000
  As  As4       1.0  0.51500  0.55800  0.87600  1.0000
  H   H1        1.0  0.50000  0.50000  0.50000  1.0000
  Li  Li1       1.0  0.13500  0.81200  0.03270  1.0000
  Li  Li2       1.0  0.00000  0.00000  0.50000  1.0000
  Li  Li3       1.0  0.86500  0.18800  0.96700  1.0000
  O   O1        1.0  0.74600  0.74800  0.05550  1.0000
  O   O2        1.0  0.14800  0.41600  0.10600  1.0000
  O   O3        1.0  0.48200  0.10500  0.14000  1.0000
  O   O4        1.0  0.66000  0.57200  0.25800  1.0000
  O   O5        1.0  0.19500  0.07970  0.36400  1.0000
  O   O6        1.0  0.70800  0.07470  0.38300  1.0000
  O   O7        1.0  0.72000  0.52600  0.48100  1.0000
  O   O8        1.0  0.28000  0.47400  0.51900  1.0000
  O   O9        1.0  0.29200  0.92500  0.61700  1.0000
  O   O10       1.0  0.80500  0.92000  0.63600  1.0000
  O   O11       1.0  0.34000  0.42800  0.74200  1.0000
  O   O12       1.0  0.51800  0.89500  0.86000  1.0000
  O   O13       1.0  0.85200  0.58400  0.89400  1.0000
  O   O14       1.0  0.25400  0.25200  0.94500  1.0000
