data_image0
_chemical_formula_structural       CuI2
_chemical_formula_sum              "Cu1 I2"
_cell_length_a       3.7761
_cell_length_b       4.59479
_cell_length_c       6.86998
_cell_angle_alpha    88.7281
_cell_angle_beta     105.952
_cell_angle_gamma    65.7379

_space_group_name_H-M_alt    "P 1"
_space_group_IT_number       1

loop_
  _space_group_symop_operation_xyz
  'x, y, z'

loop_
  _atom_site_type_symbol
  _atom_site_label
  _atom_site_symmetry_multiplicity
  _atom_site_fract_x
  _atom_site_fract_y
  _atom_site_fract_z
  _atom_site_occupancy
  Cu  Cu1       1.0  0.00000  0.00000  0.00000  1.0000
  I   I1        1.0  0.75200  0.74100  0.24600  1.0000
  I   I2        1.0  0.24800  0.25900  0.75400  1.0000
