data_image0
_chemical_formula_structural       Au2HK3O14P4
_chemical_formula_sum              "Au2 H1 K3 O14 P4"
_cell_length_a       5.5001
_cell_length_b       5.64405
_cell_length_c       12.7675
_cell_angle_alpha    88.74
_cell_angle_beta     101.017
_cell_angle_gamma    117.651

_space_group_name_H-M_alt    "P 1"
_space_group_IT_number       1

loop_
  _space_group_symop_operation_xyz
  'x, y, z'

loop_
  _atom_site_type_symbol
  _atom_site_label
  _atom_site_symmetry_multiplicity
  _atom_site_fract_x
  _atom_site_fract_y
  _atom_site_fract_z
  _atom_site_occupancy
  Au  Au1       1.0  0.99300  0.26200  0.23100  1.0000
  Au  Au2       1.0  0.00734  0.73800  0.76900  1.0000
  H   H1        1.0  0.50000  0.50000  0.50000  1.0000
  K   K1        1.0  0.20400  0.85300  0.06450  1.0000
  K   K2        1.0  0.00000  0.00000  0.50000  1.0000
  K   K3        1.0  0.79600  0.14700  0.93600  1.0000
  O   O1        1.0  0.70000  0.80200  0.11400  1.0000
  O   O2        1.0  0.25600  0.36200  0.11500  1.0000
  O   O3        1.0  0.71000  0.35300  0.11600  1.0000
  O   O4        1.0  0.65000  0.55000  0.28200  1.0000
  O   O5        1.0  0.25100  0.11600  0.32900  1.0000
  O   O6        1.0  0.72100  0.14400  0.34300  1.0000
  O   O7        1.0  0.66300  0.44100  0.47200  1.0000
  O   O8        1.0  0.33700  0.55900  0.52800  1.0000
  O   O9        1.0  0.27900  0.85600  0.65700  1.0000
  O   O10       1.0  0.74900  0.88400  0.67100  1.0000
  O   O11       1.0  0.35000  0.45000  0.71800  1.0000
  O   O12       1.0  0.29000  0.64700  0.88400  1.0000
  O   O13       1.0  0.74400  0.63800  0.88500  1.0000
  O   O14       1.0  0.30000  0.19800  0.88600  1.0000
  P   P1        1.0  0.58000  0.52400  0.15000  1.0000
  P   P2        1.0  0.56800  0.30300  0.35900  1.0000
  P   P3        1.0  0.43200  0.69700  0.64100  1.0000
  P   P4        1.0  0.42000  0.47600  0.85000  1.0000
