data_image0
_chemical_formula_structural       O2Sc2Se2Tl2
_chemical_formula_sum              "O2 Sc2 Se2 Tl2"
_cell_length_a       4.27582
_cell_length_b       7.69662
_cell_length_c       6.45209
_cell_angle_alpha    90
_cell_angle_beta     90
_cell_angle_gamma    90

_space_group_name_H-M_alt    "P 1"
_space_group_IT_number       1

loop_
  _space_group_symop_operation_xyz
  'x, y, z'

loop_
  _atom_site_type_symbol
  _atom_site_label
  _atom_site_symmetry_multiplicity
  _atom_site_fract_x
  _atom_site_fract_y
  _atom_site_fract_z
  _atom_site_occupancy
  O   O1        1.0  0.50000  0.03900  0.27300  1.0000
  O   O2        1.0  0.50000  0.96100  0.77300  1.0000
  Sc  Sc1       1.0  0.50000  0.86600  0.05200  1.0000
  Sc  Sc2       1.0  0.50000  0.13400  0.55200  1.0000
  Se  Se1       1.0  0.00000  0.66900  0.07330  1.0000
  Se  Se2       1.0  0.00000  0.33100  0.57300  1.0000
  Tl  Tl1       1.0  0.00000  0.25700  0.09270  1.0000
  Tl  Tl2       1.0  0.00000  0.74300  0.59300  1.0000
