data_image0
_chemical_formula_structural       Ag2As4HNa3O14
_chemical_formula_sum              "Ag2 As4 H1 Na3 O14"
_cell_length_a       5.53162
_cell_length_b       5.46788
_cell_length_c       12.8948
_cell_angle_alpha    85.5272
_cell_angle_beta     102.452
_cell_angle_gamma    120.137

_space_group_name_H-M_alt    "P 1"
_space_group_IT_number       1

loop_
  _space_group_symop_operation_xyz
  'x, y, z'

loop_
  _atom_site_type_symbol
  _atom_site_label
  _atom_site_symmetry_multiplicity
  _atom_site_fract_x
  _atom_site_fract_y
  _atom_site_fract_z
  _atom_site_occupancy
  Ag  Ag1       1.0  0.95300  0.20500  0.23300  1.0000
  Ag  Ag2       1.0  0.04660  0.79500  0.76700  1.0000
  As  As1       1.0  0.57400  0.50800  0.14100  1.0000
  As  As2       1.0  0.58100  0.29000  0.37200  1.0000
  As  As3       1.0  0.41900  0.71000  0.62800  1.0000
  As  As4       1.0  0.42600  0.49200  0.85900  1.0000
  H   H1        1.0  0.50000  0.50000  0.50000  1.0000
  Na  Na1       1.0  0.18300  0.83200  0.02980  1.0000
  Na  Na2       1.0  0.00000  0.00000  0.50000  1.0000
  Na  Na3       1.0  0.81700  0.16800  0.97000  1.0000
  O   O1        1.0  0.80100  0.81000  0.09070  1.0000
  O   O2        1.0  0.60800  0.22300  0.11600  1.0000
  O   O3        1.0  0.22900  0.44200  0.11600  1.0000
  O   O4        1.0  0.69900  0.57100  0.28200  1.0000
  O   O5        1.0  0.21800  0.08910  0.34400  1.0000
  O   O6        1.0  0.71900  0.08100  0.35900  1.0000
  O   O7        1.0  0.69900  0.47300  0.49100  1.0000
  O   O8        1.0  0.30100  0.52700  0.50900  1.0000
  O   O9        1.0  0.28100  0.91900  0.64100  1.0000
  O   O10       1.0  0.78200  0.91100  0.65600  1.0000
  O   O11       1.0  0.30100  0.42900  0.71800  1.0000
  O   O12       1.0  0.77100  0.55800  0.88400  1.0000
  O   O13       1.0  0.39200  0.77700  0.88400  1.0000
  O   O14       1.0  0.19900  0.19000  0.90900  1.0000
