data_image0
_chemical_formula_structural       Ag2As4HO14Rb3
_chemical_formula_sum              "Ag2 As4 H1 O14 Rb3"
_cell_length_a       5.76947
_cell_length_b       5.91652
_cell_length_c       12.9595
_cell_angle_alpha    90.8169
_cell_angle_beta     101.413
_cell_angle_gamma    118.351

_space_group_name_H-M_alt    "P 1"
_space_group_IT_number       1

loop_
  _space_group_symop_operation_xyz
  'x, y, z'

loop_
  _atom_site_type_symbol
  _atom_site_label
  _atom_site_symmetry_multiplicity
  _atom_site_fract_x
  _atom_site_fract_y
  _atom_site_fract_z
  _atom_site_occupancy
  Ag  Ag1       1.0  0.99700  0.26600  0.22800  1.0000
  Ag  Ag2       1.0  0.00323  0.73400  0.77200  1.0000
  As  As1       1.0  0.59800  0.55100  0.15600  1.0000
  As  As2       1.0  0.56400  0.29000  0.36000  1.0000
  As  As3       1.0  0.43600  0.71000  0.64000  1.0000
  As  As4       1.0  0.40200  0.44900  0.84400  1.0000
  H   H1        1.0  0.50000  0.50000  0.50000  1.0000
  O   O1        1.0  0.72300  0.84300  0.11500  1.0000
  O   O2        1.0  0.25100  0.37600  0.11600  1.0000
  O   O3        1.0  0.73900  0.37200  0.12000  1.0000
  O   O4        1.0  0.67500  0.58500  0.30000  1.0000
  O   O5        1.0  0.22400  0.09610  0.31200  1.0000
  O   O6        1.0  0.72900  0.13200  0.33300  1.0000
  O   O7        1.0  0.64200  0.40400  0.49200  1.0000
  O   O8        1.0  0.35800  0.59600  0.50800  1.0000
  O   O9        1.0  0.27100  0.86800  0.66700  1.0000
  O   O10       1.0  0.77600  0.90400  0.68800  1.0000
  O   O11       1.0  0.32500  0.41500  0.70000  1.0000
  O   O12       1.0  0.26100  0.62800  0.88000  1.0000
  O   O13       1.0  0.74900  0.62400  0.88400  1.0000
  O   O14       1.0  0.27700  0.15700  0.88500  1.0000
  Rb  Rb1       1.0  0.21200  0.86200  0.07040  1.0000
  Rb  Rb2       1.0  0.00000  0.00000  0.50000  1.0000
  Rb  Rb3       1.0  0.78800  0.13800  0.93000  1.0000
