data_image0
_chemical_formula_structural       AuI2
_chemical_formula_sum              "Au1 I2"
_cell_length_a       4.02174
_cell_length_b       4.66665
_cell_length_c       6.91421
_cell_angle_alpha    91.0779
_cell_angle_beta     106.908
_cell_angle_gamma    64.4752

_space_group_name_H-M_alt    "P 1"
_space_group_IT_number       1

loop_
  _space_group_symop_operation_xyz
  'x, y, z'

loop_
  _atom_site_type_symbol
  _atom_site_label
  _atom_site_symmetry_multiplicity
  _atom_site_fract_x
  _atom_site_fract_y
  _atom_site_fract_z
  _atom_site_occupancy
  Au  Au1       1.0  0.00000  0.00000  0.00000  1.0000
  I   I1        1.0  0.75500  0.74600  0.25700  1.0000
  I   I2        1.0  0.24500  0.25400  0.74300  1.0000
