data_image0
_chemical_formula_structural       Cu2Ga2Te4
_chemical_formula_sum              "Cu2 Ga2 Te4"
_cell_length_a       6.08262
_cell_length_b       6.08262
_cell_length_c       7.4119
_cell_angle_alpha    114.225
_cell_angle_beta     114.225
_cell_angle_gamma    90

_space_group_name_H-M_alt    "P 1"
_space_group_IT_number       1

loop_
  _space_group_symop_operation_xyz
  'x, y, z'

loop_
  _atom_site_type_symbol
  _atom_site_label
  _atom_site_symmetry_multiplicity
  _atom_site_fract_x
  _atom_site_fract_y
  _atom_site_fract_z
  _atom_site_occupancy
  Cu  Cu1       1.0  0.00000  0.00000  0.00000  1.0000
  Cu  Cu2       1.0  0.25000  0.75000  0.50000  1.0000
  Ga  Ga1       1.0  0.50000  0.50000  0.00000  1.0000
  Ga  Ga2       1.0  0.75000  0.25000  0.50000  1.0000
  Te  Te1       1.0  0.36300  0.37500  0.25000  1.0000
  Te  Te2       1.0  0.88700  0.87500  0.25000  1.0000
  Te  Te3       1.0  0.62500  0.11300  0.75000  1.0000
  Te  Te4       1.0  0.12500  0.63700  0.75000  1.0000
