data_image0
_chemical_formula_structural       AgLi2S2
_chemical_formula_sum              "Ag1 Li2 S2"
_cell_length_a       3.69795
_cell_length_b       4.33356
_cell_length_c       6.16913
_cell_angle_alpha    79.7444
_cell_angle_beta     89.9934
_cell_angle_gamma    115.238

_space_group_name_H-M_alt    "P 1"
_space_group_IT_number       1

loop_
  _space_group_symop_operation_xyz
  'x, y, z'

loop_
  _atom_site_type_symbol
  _atom_site_label
  _atom_site_symmetry_multiplicity
  _atom_site_fract_x
  _atom_site_fract_y
  _atom_site_fract_z
  _atom_site_occupancy
  Ag  Ag1       1.0  0.50000  0.00000  0.00000  1.0000
  Li  Li1       1.0  0.15800  0.31600  0.33600  1.0000
  Li  Li2       1.0  0.84200  0.68400  0.66400  1.0000
  S   S1        1.0  0.86900  0.73800  0.25700  1.0000
  S   S2        1.0  0.13100  0.26200  0.74300  1.0000
