data_image0
_chemical_formula_structural       AuLi2O2
_chemical_formula_sum              "Au1 Li2 O2"
_cell_length_a       2.98265
_cell_length_b       3.53621
_cell_length_c       5.73898
_cell_angle_alpha    78.5302
_cell_angle_beta     89.982
_cell_angle_gamma    114.952

_space_group_name_H-M_alt    "P 1"
_space_group_IT_number       1

loop_
  _space_group_symop_operation_xyz
  'x, y, z'

loop_
  _atom_site_type_symbol
  _atom_site_label
  _atom_site_symmetry_multiplicity
  _atom_site_fract_x
  _atom_site_fract_y
  _atom_site_fract_z
  _atom_site_occupancy
  Au  Au1       1.0  0.50000  0.00000  0.00000  1.0000
  Li  Li1       1.0  0.17000  0.34000  0.35900  1.0000
  Li  Li2       1.0  0.83000  0.66000  0.64100  1.0000
  O   O1        1.0  0.88700  0.77400  0.28600  1.0000
  O   O2        1.0  0.11300  0.22600  0.71400  1.0000
