data_image0
_chemical_formula_structural       AuF2
_chemical_formula_sum              "Au1 F2"
_cell_length_a       3.45506
_cell_length_b       3.84251
_cell_length_c       4.14046
_cell_angle_alpha    102.246
_cell_angle_beta     114.66
_cell_angle_gamma    63.283

_space_group_name_H-M_alt    "P 1"
_space_group_IT_number       1

loop_
  _space_group_symop_operation_xyz
  'x, y, z'

loop_
  _atom_site_type_symbol
  _atom_site_label
  _atom_site_symmetry_multiplicity
  _atom_site_fract_x
  _atom_site_fract_y
  _atom_site_fract_z
  _atom_site_occupancy
  Au  Au1       1.0  0.00000  0.00000  0.00000  1.0000
  F   F1        1.0  0.73700  0.77800  0.25100  1.0000
  F   F2        1.0  0.26300  0.22200  0.74900  1.0000
