data_image0
_chemical_formula_structural       AgLi2O2
_chemical_formula_sum              "Ag1 Li2 O2"
_cell_length_a       2.98616
_cell_length_b       3.46469
_cell_length_c       5.68169
_cell_angle_alpha    79.8453
_cell_angle_beta     90.0015
_cell_angle_gamma    115.525

_space_group_name_H-M_alt    "P 1"
_space_group_IT_number       1

loop_
  _space_group_symop_operation_xyz
  'x, y, z'

loop_
  _atom_site_type_symbol
  _atom_site_label
  _atom_site_symmetry_multiplicity
  _atom_site_fract_x
  _atom_site_fract_y
  _atom_site_fract_z
  _atom_site_occupancy
  Ag  Ag1       1.0  0.50000  0.00000  0.00000  1.0000
  Li  Li1       1.0  0.17000  0.34000  0.36200  1.0000
  Li  Li2       1.0  0.83000  0.66000  0.63800  1.0000
  O   O1        1.0  0.88300  0.76700  0.28100  1.0000
  O   O2        1.0  0.11700  0.23300  0.71900  1.0000
