data_image0
_chemical_formula_structural       Au2HLi3O14P4
_chemical_formula_sum              "Au2 H1 Li3 O14 P4"
_cell_length_a       5.27469
_cell_length_b       5.06324
_cell_length_c       12.6676
_cell_angle_alpha    78.1586
_cell_angle_beta     104.839
_cell_angle_gamma    122.813

_space_group_name_H-M_alt    "P 1"
_space_group_IT_number       1

loop_
  _space_group_symop_operation_xyz
  'x, y, z'

loop_
  _atom_site_type_symbol
  _atom_site_label
  _atom_site_symmetry_multiplicity
  _atom_site_fract_x
  _atom_site_fract_y
  _atom_site_fract_z
  _atom_site_occupancy
  Au  Au1       1.0  0.93100  0.21400  0.23900  1.0000
  Au  Au2       1.0  0.06920  0.78600  0.76100  1.0000
  H   H1        1.0  0.50100  0.50000  0.50000  1.0000
  Li  Li1       1.0  0.14900  0.84000  0.03350  1.0000
  Li  Li2       1.0  0.00000  0.00033  0.50000  1.0000
  Li  Li3       1.0  0.85100  0.16000  0.96700  1.0000
  O   O1        1.0  0.78600  0.79200  0.08320  1.0000
  O   O2        1.0  0.21800  0.46400  0.10400  1.0000
  O   O3        1.0  0.52900  0.19500  0.12900  1.0000
  O   O4        1.0  0.64400  0.55700  0.26800  1.0000
  O   O5        1.0  0.22000  0.09920  0.36400  1.0000
  O   O6        1.0  0.71000  0.10800  0.37900  1.0000
  O   O7        1.0  0.70700  0.51500  0.47000  1.0000
  O   O8        1.0  0.29300  0.48500  0.53000  1.0000
  O   O9        1.0  0.29000  0.89200  0.62100  1.0000
  O   O10       1.0  0.78000  0.90100  0.63600  1.0000
  O   O11       1.0  0.35600  0.44300  0.73200  1.0000
  O   O12       1.0  0.47000  0.80500  0.87100  1.0000
  O   O13       1.0  0.78200  0.53700  0.89600  1.0000
  O   O14       1.0  0.21400  0.20800  0.91700  1.0000
  P   P1        1.0  0.54100  0.50200  0.13700  1.0000
  P   P2        1.0  0.57000  0.30900  0.37400  1.0000
  P   P3        1.0  0.43000  0.69100  0.62600  1.0000
  P   P4        1.0  0.45900  0.49800  0.86300  1.0000
