data_image0
_chemical_formula_structural       AuNa2S2
_chemical_formula_sum              "Au1 Na2 S2"
_cell_length_a       3.82367
_cell_length_b       5.33128
_cell_length_c       5.94232
_cell_angle_alpha    79.2752
_cell_angle_beta     90.0026
_cell_angle_gamma    111.017

_space_group_name_H-M_alt    "P 1"
_space_group_IT_number       1

loop_
  _space_group_symop_operation_xyz
  'x, y, z'

loop_
  _atom_site_type_symbol
  _atom_site_label
  _atom_site_symmetry_multiplicity
  _atom_site_fract_x
  _atom_site_fract_y
  _atom_site_fract_z
  _atom_site_occupancy
  Au  Au1       1.0  0.50000  0.00000  0.00000  1.0000
  Na  Na1       1.0  0.16300  0.32600  0.28200  1.0000
  Na  Na2       1.0  0.83700  0.67400  0.71800  1.0000
  S   S1        1.0  0.88000  0.76000  0.23100  1.0000
  S   S2        1.0  0.12000  0.24000  0.76900  1.0000
