data_image0
_chemical_formula_structural       O2Sc2Te2Tl2
_chemical_formula_sum              "O2 Sc2 Te2 Tl2"
_cell_length_a       4.55496
_cell_length_b       7.9017
_cell_length_c       6.57524
_cell_angle_alpha    90
_cell_angle_beta     90
_cell_angle_gamma    90

_space_group_name_H-M_alt    "P 1"
_space_group_IT_number       1

loop_
  _space_group_symop_operation_xyz
  'x, y, z'

loop_
  _atom_site_type_symbol
  _atom_site_label
  _atom_site_symmetry_multiplicity
  _atom_site_fract_x
  _atom_site_fract_y
  _atom_site_fract_z
  _atom_site_occupancy
  O   O1        1.0  0.50000  0.03560  0.27300  1.0000
  O   O2        1.0  0.50000  0.96400  0.77300  1.0000
  Sc  Sc1       1.0  0.50000  0.87400  0.04860  1.0000
  Sc  Sc2       1.0  0.50000  0.12600  0.54900  1.0000
  Te  Te1       1.0  0.00000  0.65900  0.07400  1.0000
  Te  Te2       1.0  0.00000  0.34100  0.57400  1.0000
  Tl  Tl1       1.0  0.00000  0.22800  0.09550  1.0000
  Tl  Tl2       1.0  0.00000  0.77200  0.59600  1.0000
