data_image0
_chemical_formula_structural       Ba2Cu2Sn4
_chemical_formula_sum              "Ba2 Cu2 Sn4"
_cell_length_a       4.67806
_cell_length_b       4.81217
_cell_length_c       10.1321
_cell_angle_alpha    76.2627
_cell_angle_beta     90
_cell_angle_gamma    90

_space_group_name_H-M_alt    "P 1"
_space_group_IT_number       1

loop_
  _space_group_symop_operation_xyz
  'x, y, z'

loop_
  _atom_site_type_symbol
  _atom_site_label
  _atom_site_symmetry_multiplicity
  _atom_site_fract_x
  _atom_site_fract_y
  _atom_site_fract_z
  _atom_site_occupancy
  Ba  Ba1       1.0  0.75000  0.39100  0.21700  1.0000
  Ba  Ba2       1.0  0.25000  0.60900  0.78300  1.0000
  Cu  Cu1       1.0  0.25000  0.82200  0.35500  1.0000
  Cu  Cu2       1.0  0.75000  0.17800  0.64500  1.0000
  Sn  Sn1       1.0  0.25000  0.95700  0.08500  1.0000
  Sn  Sn2       1.0  0.75000  0.75000  0.50000  1.0000
  Sn  Sn3       1.0  0.25000  0.25000  0.50000  1.0000
  Sn  Sn4       1.0  0.75000  0.04250  0.91500  1.0000
