data_image0
_chemical_formula_structural       Cu2HLi3O14P4
_chemical_formula_sum              "Cu2 H1 Li3 O14 P4"
_cell_length_a       5.03139
_cell_length_b       4.94388
_cell_length_c       12.3871
_cell_angle_alpha    77.5877
_cell_angle_beta     103.942
_cell_angle_gamma    120.719

_space_group_name_H-M_alt    "P 1"
_space_group_IT_number       1

loop_
  _space_group_symop_operation_xyz
  'x, y, z'

loop_
  _atom_site_type_symbol
  _atom_site_label
  _atom_site_symmetry_multiplicity
  _atom_site_fract_x
  _atom_site_fract_y
  _atom_site_fract_z
  _atom_site_occupancy
  Cu  Cu1       1.0  0.94300  0.20300  0.24100  1.0000
  Cu  Cu2       1.0  0.05660  0.79700  0.75900  1.0000
  H   H1        1.0  0.50000  0.50000  0.50000  1.0000
  Li  Li1       1.0  0.14700  0.82100  0.02620  1.0000
  Li  Li2       1.0  0.00000  0.00000  0.50000  1.0000
  Li  Li3       1.0  0.85300  0.17900  0.97400  1.0000
  O   O1        1.0  0.77900  0.79700  0.07380  1.0000
  O   O2        1.0  0.21600  0.44700  0.11700  1.0000
  O   O3        1.0  0.58200  0.20800  0.13700  1.0000
  O   O4        1.0  0.68800  0.59300  0.26800  1.0000
  O   O5        1.0  0.23400  0.11800  0.35300  1.0000
  O   O6        1.0  0.74100  0.11800  0.37100  1.0000
  O   O7        1.0  0.71300  0.49800  0.47500  1.0000
  O   O8        1.0  0.28700  0.50200  0.52500  1.0000
  O   O9        1.0  0.25900  0.88200  0.62900  1.0000
  O   O10       1.0  0.76600  0.88200  0.64700  1.0000
  O   O11       1.0  0.31200  0.40700  0.73200  1.0000
  O   O12       1.0  0.41800  0.79200  0.86300  1.0000
  O   O13       1.0  0.78400  0.55300  0.88300  1.0000
  O   O14       1.0  0.22100  0.20300  0.92600  1.0000
  P   P1        1.0  0.55800  0.50600  0.13900  1.0000
  P   P2        1.0  0.59200  0.31900  0.37200  1.0000
  P   P3        1.0  0.40800  0.68100  0.62800  1.0000
  P   P4        1.0  0.44200  0.49400  0.86100  1.0000
