data_image0
_chemical_formula_structural       Ag2HLi3O14P4
_chemical_formula_sum              "Ag2 H1 Li3 O14 P4"
_cell_length_a       5.24538
_cell_length_b       4.99663
_cell_length_c       12.5984
_cell_angle_alpha    78.2162
_cell_angle_beta     104.765
_cell_angle_gamma    122.317

_space_group_name_H-M_alt    "P 1"
_space_group_IT_number       1

loop_
  _space_group_symop_operation_xyz
  'x, y, z'

loop_
  _atom_site_type_symbol
  _atom_site_label
  _atom_site_symmetry_multiplicity
  _atom_site_fract_x
  _atom_site_fract_y
  _atom_site_fract_z
  _atom_site_occupancy
  Ag  Ag1       1.0  0.92700  0.19000  0.23700  1.0000
  Ag  Ag2       1.0  0.07340  0.81000  0.76400  1.0000
  H   H1        1.0  0.50000  0.50000  0.50000  1.0000
  Li  Li1       1.0  0.15100  0.83700  0.03160  1.0000
  Li  Li2       1.0  0.00000  0.00017  0.50000  1.0000
  Li  Li3       1.0  0.84900  0.16300  0.96800  1.0000
  O   O1        1.0  0.79500  0.79600  0.08640  1.0000
  O   O2        1.0  0.22300  0.46700  0.10400  1.0000
  O   O3        1.0  0.53200  0.19000  0.12600  1.0000
  O   O4        1.0  0.64600  0.55200  0.26800  1.0000
  O   O5        1.0  0.22300  0.08370  0.36300  1.0000
  O   O6        1.0  0.72000  0.10400  0.37900  1.0000
  O   O7        1.0  0.70500  0.50600  0.47100  1.0000
  O   O8        1.0  0.29500  0.49400  0.52900  1.0000
  O   O9        1.0  0.28000  0.89600  0.62100  1.0000
  O   O10       1.0  0.77700  0.91600  0.63700  1.0000
  O   O11       1.0  0.35400  0.44800  0.73200  1.0000
  O   O12       1.0  0.46900  0.81000  0.87400  1.0000
  O   O13       1.0  0.77700  0.53300  0.89600  1.0000
  O   O14       1.0  0.20500  0.20400  0.91400  1.0000
  P   P1        1.0  0.54300  0.49900  0.13700  1.0000
  P   P2        1.0  0.57200  0.30000  0.37500  1.0000
  P   P3        1.0  0.42700  0.70000  0.62500  1.0000
  P   P4        1.0  0.45700  0.50100  0.86300  1.0000
