data_image0
_chemical_formula_structural       AuNa2Se2
_chemical_formula_sum              "Au1 Na2 Se2"
_cell_length_a       3.97755
_cell_length_b       5.55592
_cell_length_c       6.0498
_cell_angle_alpha    76.6898
_cell_angle_beta     90.0044
_cell_angle_gamma    110.967

_space_group_name_H-M_alt    "P 1"
_space_group_IT_number       1

loop_
  _space_group_symop_operation_xyz
  'x, y, z'

loop_
  _atom_site_type_symbol
  _atom_site_label
  _atom_site_symmetry_multiplicity
  _atom_site_fract_x
  _atom_site_fract_y
  _atom_site_fract_z
  _atom_site_occupancy
  Au  Au1       1.0  0.50000  0.00000  0.00000  1.0000
  Na  Na1       1.0  0.15500  0.31100  0.26100  1.0000
  Na  Na2       1.0  0.84500  0.68900  0.73900  1.0000
  Se  Se1       1.0  0.87100  0.74100  0.24500  1.0000
  Se  Se2       1.0  0.12900  0.25900  0.75500  1.0000
