data_image0
_chemical_formula_structural       AgLi2Te2
_chemical_formula_sum              "Ag1 Li2 Te2"
_cell_length_a       4.33045
_cell_length_b       5.09772
_cell_length_c       6.00594
_cell_angle_alpha    77.307
_cell_angle_beta     89.9831
_cell_angle_gamma    115.13

_space_group_name_H-M_alt    "P 1"
_space_group_IT_number       1

loop_
  _space_group_symop_operation_xyz
  'x, y, z'

loop_
  _atom_site_type_symbol
  _atom_site_label
  _atom_site_symmetry_multiplicity
  _atom_site_fract_x
  _atom_site_fract_y
  _atom_site_fract_z
  _atom_site_occupancy
  Ag  Ag1       1.0  0.50000  0.00000  0.00000  1.0000
  Li  Li1       1.0  0.16200  0.32600  0.22100  1.0000
  Li  Li2       1.0  0.83800  0.67400  0.77900  1.0000
  Te  Te1       1.0  0.85000  0.70000  0.27800  1.0000
  Te  Te2       1.0  0.15000  0.30000  0.72200  1.0000
