data_image0
_chemical_formula_structural       AgK2S2
_chemical_formula_sum              "Ag1 K2 S2"
_cell_length_a       3.87435
_cell_length_b       6.03018
_cell_length_c       6.53228
_cell_angle_alpha    77.5657
_cell_angle_beta     89.989
_cell_angle_gamma    108.735

_space_group_name_H-M_alt    "P 1"
_space_group_IT_number       1

loop_
  _space_group_symop_operation_xyz
  'x, y, z'

loop_
  _atom_site_type_symbol
  _atom_site_label
  _atom_site_symmetry_multiplicity
  _atom_site_fract_x
  _atom_site_fract_y
  _atom_site_fract_z
  _atom_site_occupancy
  Ag  Ag1       1.0  0.50000  0.00000  0.00000  1.0000
  K   K1        1.0  0.16200  0.32500  0.28800  1.0000
  K   K2        1.0  0.83800  0.67500  0.71200  1.0000
  S   S1        1.0  0.88900  0.77700  0.21000  1.0000
  S   S2        1.0  0.11100  0.22300  0.79000  1.0000
