data_image0
_chemical_formula_structural       CuK2Te2
_chemical_formula_sum              "Cu1 K2 Te2"
_cell_length_a       3.97104
_cell_length_b       6.65043
_cell_length_c       7.05566
_cell_angle_alpha    78.556
_cell_angle_beta     89.9144
_cell_angle_gamma    107.371

_space_group_name_H-M_alt    "P 1"
_space_group_IT_number       1

loop_
  _space_group_symop_operation_xyz
  'x, y, z'

loop_
  _atom_site_type_symbol
  _atom_site_label
  _atom_site_symmetry_multiplicity
  _atom_site_fract_x
  _atom_site_fract_y
  _atom_site_fract_z
  _atom_site_occupancy
  Cu  Cu1       1.0  0.50000  0.00000  0.00000  1.0000
  K   K1        1.0  0.15500  0.31200  0.28300  1.0000
  K   K2        1.0  0.84500  0.68800  0.71700  1.0000
  Te  Te1       1.0  0.89100  0.78300  0.20400  1.0000
  Te  Te2       1.0  0.10900  0.21700  0.79600  1.0000
