data_image0
_chemical_formula_structural       Ag2Ca2O12Te4
_chemical_formula_sum              "Ag2 Ca2 O12 Te4"
_cell_length_a       4.76661
_cell_length_b       4.76661
_cell_length_c       15.0696
_cell_angle_alpha    89.349
_cell_angle_beta     89.349
_cell_angle_gamma    69.2567

_space_group_name_H-M_alt    "P 1"
_space_group_IT_number       1

loop_
  _space_group_symop_operation_xyz
  'x, y, z'

loop_
  _atom_site_type_symbol
  _atom_site_label
  _atom_site_symmetry_multiplicity
  _atom_site_fract_x
  _atom_site_fract_y
  _atom_site_fract_z
  _atom_site_occupancy
  Ag  Ag1       1.0  0.00000  0.00000  0.00000  1.0000
  Ag  Ag2       1.0  0.00000  0.00000  0.50000  1.0000
  Ca  Ca1       1.0  0.93300  0.06670  0.25000  1.0000
  Ca  Ca2       1.0  0.06670  0.93300  0.75000  1.0000
  O   O1        1.0  0.75800  0.34800  0.09350  1.0000
  O   O2        1.0  0.16900  0.77100  0.12300  1.0000
  O   O3        1.0  0.38300  0.20800  0.22000  1.0000
  O   O4        1.0  0.79200  0.61700  0.28000  1.0000
  O   O5        1.0  0.22900  0.83100  0.37700  1.0000
  O   O6        1.0  0.65200  0.24200  0.40600  1.0000
  O   O7        1.0  0.34800  0.75800  0.59400  1.0000
  O   O8        1.0  0.77100  0.16900  0.62300  1.0000
  O   O9        1.0  0.20800  0.38300  0.72000  1.0000
  O   O10       1.0  0.61700  0.79200  0.78000  1.0000
  O   O11       1.0  0.83100  0.22900  0.87700  1.0000
  O   O12       1.0  0.24200  0.65200  0.90600  1.0000
  Te  Te1       1.0  0.35200  0.35200  0.10400  1.0000
  Te  Te2       1.0  0.64800  0.64800  0.39600  1.0000
  Te  Te3       1.0  0.35200  0.35200  0.60400  1.0000
  Te  Te4       1.0  0.64800  0.64800  0.89600  1.0000
