data_image0
_chemical_formula_structural       As4Au2HLi3O14
_chemical_formula_sum              "As4 Au2 H1 Li3 O14"
_cell_length_a       5.45542
_cell_length_b       5.27855
_cell_length_c       12.9432
_cell_angle_alpha    77.9616
_cell_angle_beta     105.387
_cell_angle_gamma    123.81

_space_group_name_H-M_alt    "P 1"
_space_group_IT_number       1

loop_
  _space_group_symop_operation_xyz
  'x, y, z'

loop_
  _atom_site_type_symbol
  _atom_site_label
  _atom_site_symmetry_multiplicity
  _atom_site_fract_x
  _atom_site_fract_y
  _atom_site_fract_z
  _atom_site_occupancy
  As  As1       1.0  0.50900  0.46100  0.12800  1.0000
  As  As2       1.0  0.57600  0.29900  0.37900  1.0000
  As  As3       1.0  0.42400  0.70100  0.62100  1.0000
  As  As4       1.0  0.49100  0.53900  0.87200  1.0000
  Au  Au1       1.0  0.91300  0.18500  0.24200  1.0000
  Au  Au2       1.0  0.08710  0.81500  0.75800  1.0000
  H   H1        1.0  0.50000  0.50000  0.50000  1.0000
  Li  Li1       1.0  0.14300  0.82200  0.02950  1.0000
  Li  Li2       1.0  0.00000  0.00000  0.50000  1.0000
  Li  Li3       1.0  0.85700  0.17800  0.97000  1.0000
  O   O1        1.0  0.76500  0.76400  0.06110  1.0000
  O   O2        1.0  0.16300  0.42500  0.10700  1.0000
  O   O3        1.0  0.51200  0.13300  0.13300  1.0000
  O   O4        1.0  0.66500  0.56600  0.26500  1.0000
  O   O5        1.0  0.19500  0.08050  0.36600  1.0000
  O   O6        1.0  0.70300  0.06680  0.38100  1.0000
  O   O7        1.0  0.72100  0.52000  0.48400  1.0000
  O   O8        1.0  0.27900  0.48000  0.51600  1.0000
  O   O9        1.0  0.29700  0.93300  0.61900  1.0000
  O   O10       1.0  0.80500  0.92000  0.63400  1.0000
  O   O11       1.0  0.33500  0.43400  0.73500  1.0000
  O   O12       1.0  0.48800  0.86700  0.86700  1.0000
  O   O13       1.0  0.83700  0.57500  0.89300  1.0000
  O   O14       1.0  0.23500  0.23600  0.93900  1.0000
