data_image0
_chemical_formula_structural       As4Cu2HLi3O14
_chemical_formula_sum              "As4 Cu2 H1 Li3 O14"
_cell_length_a       5.24162
_cell_length_b       5.21721
_cell_length_c       12.2773
_cell_angle_alpha    81.1024
_cell_angle_beta     104.377
_cell_angle_gamma    121.099

_space_group_name_H-M_alt    "P 1"
_space_group_IT_number       1

loop_
  _space_group_symop_operation_xyz
  'x, y, z'

loop_
  _atom_site_type_symbol
  _atom_site_label
  _atom_site_symmetry_multiplicity
  _atom_site_fract_x
  _atom_site_fract_y
  _atom_site_fract_z
  _atom_site_occupancy
  As  As1       1.0  0.55400  0.48400  0.13400  1.0000
  As  As2       1.0  0.59700  0.28800  0.37800  1.0000
  As  As3       1.0  0.40200  0.71100  0.62200  1.0000
  As  As4       1.0  0.44500  0.51500  0.86600  1.0000
  Cu  Cu1       1.0  0.94200  0.18800  0.23600  1.0000
  Cu  Cu2       1.0  0.05690  0.81100  0.76300  1.0000
  H   H1        1.0  0.50100  0.50000  0.50000  1.0000
  Li  Li1       1.0  0.16800  0.83200  0.02130  1.0000
  Li  Li2       1.0  0.00061  0.00000  0.50000  1.0000
  Li  Li3       1.0  0.83400  0.16900  0.98000  1.0000
  O   O1        1.0  0.79600  0.79400  0.06930  1.0000
  O   O2        1.0  0.19600  0.43800  0.12000  1.0000
  O   O3        1.0  0.59000  0.17700  0.12400  1.0000
  O   O4        1.0  0.72700  0.58400  0.27700  1.0000
  O   O5        1.0  0.21200  0.08980  0.34600  1.0000
  O   O6        1.0  0.73700  0.06640  0.36600  1.0000
  O   O7        1.0  0.28600  0.53300  0.49900  1.0000
  O   O8        1.0  0.71400  0.46800  0.50100  1.0000
  O   O9        1.0  0.26200  0.93400  0.63400  1.0000
  O   O10       1.0  0.78800  0.91000  0.65500  1.0000
  O   O11       1.0  0.27200  0.41500  0.72300  1.0000
  O   O12       1.0  0.40900  0.82300  0.87500  1.0000
  O   O13       1.0  0.80400  0.56400  0.88000  1.0000
  O   O14       1.0  0.20400  0.20600  0.93100  1.0000
