data_image0
_chemical_formula_structural       AgNa2Se2
_chemical_formula_sum              "Ag1 Na2 Se2"
_cell_length_a       3.99711
_cell_length_b       5.42579
_cell_length_c       6.18038
_cell_angle_alpha    78.8993
_cell_angle_beta     89.997
_cell_angle_gamma    111.614

_space_group_name_H-M_alt    "P 1"
_space_group_IT_number       1

loop_
  _space_group_symop_operation_xyz
  'x, y, z'

loop_
  _atom_site_type_symbol
  _atom_site_label
  _atom_site_symmetry_multiplicity
  _atom_site_fract_x
  _atom_site_fract_y
  _atom_site_fract_z
  _atom_site_occupancy
  Ag  Ag1       1.0  0.50000  0.00000  0.00000  1.0000
  Na  Na1       1.0  0.15800  0.31500  0.28300  1.0000
  Na  Na2       1.0  0.84200  0.68500  0.71700  1.0000
  Se  Se1       1.0  0.87300  0.74500  0.23700  1.0000
  Se  Se2       1.0  0.12700  0.25500  0.76300  1.0000
