data_image0
_chemical_formula_structural       CuF2
_chemical_formula_sum              "Cu1 F2"
_cell_length_a       3.01879
_cell_length_b       3.33506
_cell_length_c       3.93261
_cell_angle_alpha    106.725
_cell_angle_beta     112.679
_cell_angle_gamma    63.0092

_space_group_name_H-M_alt    "P 1"
_space_group_IT_number       1

loop_
  _space_group_symop_operation_xyz
  'x, y, z'

loop_
  _atom_site_type_symbol
  _atom_site_label
  _atom_site_symmetry_multiplicity
  _atom_site_fract_x
  _atom_site_fract_y
  _atom_site_fract_z
  _atom_site_occupancy
  Cu  Cu1       1.0  0.33300  0.66600  0.33300  1.0000
  F   F1        1.0  0.58900  0.91000  0.09000  1.0000
  F   F2        1.0  0.07730  0.42400  0.57700  1.0000
