data_image0
_chemical_formula_structural       AgNa2Te2
_chemical_formula_sum              "Ag1 Na2 Te2"
_cell_length_a       4.289
_cell_length_b       5.79354
_cell_length_c       6.41808
_cell_angle_alpha    73.5203
_cell_angle_beta     90.01
_cell_angle_gamma    111.722

_space_group_name_H-M_alt    "P 1"
_space_group_IT_number       1

loop_
  _space_group_symop_operation_xyz
  'x, y, z'

loop_
  _atom_site_type_symbol
  _atom_site_label
  _atom_site_symmetry_multiplicity
  _atom_site_fract_x
  _atom_site_fract_y
  _atom_site_fract_z
  _atom_site_occupancy
  Ag  Ag1       1.0  0.50000  0.00000  0.00000  1.0000
  Na  Na1       1.0  0.15200  0.30500  0.24000  1.0000
  Na  Na2       1.0  0.84800  0.69500  0.76100  1.0000
  Te  Te1       1.0  0.85900  0.71900  0.26400  1.0000
  Te  Te2       1.0  0.14100  0.28100  0.73600  1.0000
