data_image0
_chemical_formula_structural       AuLi2S2
_chemical_formula_sum              "Au1 Li2 S2"
_cell_length_a       3.72866
_cell_length_b       4.47945
_cell_length_c       5.9879
_cell_angle_alpha    77.4361
_cell_angle_beta     90.0113
_cell_angle_gamma    114.568

_space_group_name_H-M_alt    "P 1"
_space_group_IT_number       1

loop_
  _space_group_symop_operation_xyz
  'x, y, z'

loop_
  _atom_site_type_symbol
  _atom_site_label
  _atom_site_symmetry_multiplicity
  _atom_site_fract_x
  _atom_site_fract_y
  _atom_site_fract_z
  _atom_site_occupancy
  Au  Au1       1.0  0.50000  0.00000  0.00000  1.0000
  Li  Li1       1.0  0.15700  0.31400  0.31500  1.0000
  Li  Li2       1.0  0.84300  0.68600  0.68500  1.0000
  S   S1        1.0  0.86900  0.73700  0.26200  1.0000
  S   S2        1.0  0.13100  0.26300  0.73800  1.0000
