data_image0
_chemical_formula_structural       AuK2Te2
_chemical_formula_sum              "Au1 K2 Te2"
_cell_length_a       4.20837
_cell_length_b       6.72533
_cell_length_c       7.11234
_cell_angle_alpha    78.3508
_cell_angle_beta     89.9839
_cell_angle_gamma    108.23

_space_group_name_H-M_alt    "P 1"
_space_group_IT_number       1

loop_
  _space_group_symop_operation_xyz
  'x, y, z'

loop_
  _atom_site_type_symbol
  _atom_site_label
  _atom_site_symmetry_multiplicity
  _atom_site_fract_x
  _atom_site_fract_y
  _atom_site_fract_z
  _atom_site_occupancy
  Au  Au1       1.0  0.50000  0.00000  0.00000  1.0000
  K   K1        1.0  0.15600  0.31300  0.27100  1.0000
  K   K2        1.0  0.84400  0.68700  0.72900  1.0000
  Te  Te1       1.0  0.88700  0.77400  0.21700  1.0000
  Te  Te2       1.0  0.11300  0.22600  0.78300  1.0000
