data_image0
_chemical_formula_structural       AlLa6Mg22
_chemical_formula_sum              "Al1 La6 Mg22"
_cell_length_a       10.2548
_cell_length_b       10.2548
_cell_length_c       10.2548
_cell_angle_alpha    120
_cell_angle_beta     90
_cell_angle_gamma    120

_space_group_name_H-M_alt    "P 1"
_space_group_IT_number       1

loop_
  _space_group_symop_operation_xyz
  'x, y, z'

loop_
  _atom_site_type_symbol
  _atom_site_label
  _atom_site_symmetry_multiplicity
  _atom_site_fract_x
  _atom_site_fract_y
  _atom_site_fract_z
  _atom_site_occupancy
  Al  Al1       1.0  0.50000  0.00000  0.50000  1.0000
  La  La1       1.0  0.80000  0.00000  0.20000  1.0000
  La  La2       1.0  0.20000  0.00000  0.20000  1.0000
  La  La3       1.0  0.20000  0.39900  0.20000  1.0000
  La  La4       1.0  0.80000  0.00000  0.80000  1.0000
  La  La5       1.0  0.80000  0.60100  0.80000  1.0000
  La  La6       1.0  0.20000  0.00000  0.80000  1.0000
  Mg  Mg1       1.0  0.50000  0.00000  0.00000  1.0000
  Mg  Mg2       1.0  0.50000  0.50000  1.00000  1.0000
  Mg  Mg3       1.0  0.00000  0.50000  1.00000  1.0000
  Mg  Mg4       1.0  0.38100  0.76200  0.14400  1.0000
  Mg  Mg5       1.0  0.51500  0.34300  0.17200  1.0000
  Mg  Mg6       1.0  0.82800  0.34300  0.17200  1.0000
  Mg  Mg7       1.0  0.82800  0.65700  0.17200  1.0000
  Mg  Mg8       1.0  0.61900  0.76200  0.38100  1.0000
  Mg  Mg9       1.0  0.61900  0.23800  0.38100  1.0000
  Mg  Mg10      1.0  0.14400  0.76200  0.38100  1.0000
  Mg  Mg11      1.0  0.82800  0.65700  0.48500  1.0000
  Mg  Mg12      1.0  0.50000  0.50000  0.50000  1.0000
  Mg  Mg13      1.0  0.00000  0.00000  0.50000  1.0000
  Mg  Mg14      1.0  0.00000  0.50000  0.50000  1.0000
  Mg  Mg15      1.0  0.17200  0.34300  0.51500  1.0000
  Mg  Mg16      1.0  0.85600  0.23800  0.61900  1.0000
  Mg  Mg17      1.0  0.38100  0.76200  0.61900  1.0000
  Mg  Mg18      1.0  0.38100  0.23800  0.61900  1.0000
  Mg  Mg19      1.0  0.17200  0.34300  0.82800  1.0000
  Mg  Mg20      1.0  0.17200  0.65700  0.82800  1.0000
  Mg  Mg21      1.0  0.48500  0.65700  0.82800  1.0000
  Mg  Mg22      1.0  0.61900  0.23800  0.85600  1.0000
