data_image0
_chemical_formula_structural       Ce2O2Se2Tl2
_chemical_formula_sum              "Ce2 O2 Se2 Tl2"
_cell_length_a       4.86504
_cell_length_b       8.08122
_cell_length_c       6.74402
_cell_angle_alpha    90
_cell_angle_beta     90
_cell_angle_gamma    90

_space_group_name_H-M_alt    "P 1"
_space_group_IT_number       1

loop_
  _space_group_symop_operation_xyz
  'x, y, z'

loop_
  _atom_site_type_symbol
  _atom_site_label
  _atom_site_symmetry_multiplicity
  _atom_site_fract_x
  _atom_site_fract_y
  _atom_site_fract_z
  _atom_site_occupancy
  Ce  Ce1       1.0  0.50000  0.85900  0.03050  1.0000
  Ce  Ce2       1.0  0.50000  0.14100  0.53000  1.0000
  O   O1        1.0  0.50000  0.09290  0.20300  1.0000
  O   O2        1.0  0.50000  0.90700  0.70300  1.0000
  Se  Se1       1.0  0.00000  0.68200  0.14700  1.0000
  Se  Se2       1.0  0.00000  0.31800  0.64700  1.0000
  Tl  Tl1       1.0  0.00000  0.29400  0.11000  1.0000
  Tl  Tl2       1.0  0.00000  0.70600  0.61000  1.0000
