data_image0
_chemical_formula_structural       Eu4Mg2O14Si4
_chemical_formula_sum              "Eu4 Mg2 O14 Si4"
_cell_length_a       7.85718
_cell_length_b       7.85718
_cell_length_c       5.01675
_cell_angle_alpha    90
_cell_angle_beta     90
_cell_angle_gamma    90

_space_group_name_H-M_alt    "P 1"
_space_group_IT_number       1

loop_
  _space_group_symop_operation_xyz
  'x, y, z'

loop_
  _atom_site_type_symbol
  _atom_site_label
  _atom_site_symmetry_multiplicity
  _atom_site_fract_x
  _atom_site_fract_y
  _atom_site_fract_z
  _atom_site_occupancy
  Eu  Eu1       1.0  0.83600  0.33600  0.49300  1.0000
  Eu  Eu2       1.0  0.16400  0.66400  0.49300  1.0000
  Eu  Eu3       1.0  0.33600  0.16400  0.50700  1.0000
  Eu  Eu4       1.0  0.66400  0.83600  0.50700  1.0000
  Mg  Mg1       1.0  0.00000  0.00000  0.00000  1.0000
  Mg  Mg2       1.0  0.50000  0.50000  0.00000  1.0000
  O   O1        1.0  0.50000  0.00000  0.17400  1.0000
  O   O2        1.0  0.81400  0.08010  0.21400  1.0000
  O   O3        1.0  0.58000  0.31400  0.21400  1.0000
  O   O4        1.0  0.42000  0.68600  0.21400  1.0000
  O   O5        1.0  0.18600  0.92000  0.21400  1.0000
  O   O6        1.0  0.14200  0.35800  0.26000  1.0000
  O   O7        1.0  0.85800  0.64200  0.26000  1.0000
  O   O8        1.0  0.64200  0.14200  0.74000  1.0000
  O   O9        1.0  0.35800  0.85800  0.74000  1.0000
  O   O10       1.0  0.08010  0.18600  0.78600  1.0000
  O   O11       1.0  0.31400  0.42000  0.78600  1.0000
  O   O12       1.0  0.68600  0.58000  0.78600  1.0000
  O   O13       1.0  0.92000  0.81400  0.78600  1.0000
  O   O14       1.0  0.00000  0.50000  0.82600  1.0000
  Si  Si1       1.0  0.64100  0.14100  0.06140  1.0000
  Si  Si2       1.0  0.35900  0.85900  0.06140  1.0000
  Si  Si3       1.0  0.14100  0.35900  0.93900  1.0000
  Si  Si4       1.0  0.85900  0.64100  0.93900  1.0000
