data_image0
_chemical_formula_structural       Cs2CuTe2
_chemical_formula_sum              "Cs2 Cu1 Te2"
_cell_length_a       4.04969
_cell_length_b       7.54215
_cell_length_c       7.32847
_cell_angle_alpha    79.4911
_cell_angle_beta     78.9294
_cell_angle_gamma    110.068

_space_group_name_H-M_alt    "P 1"
_space_group_IT_number       1

loop_
  _space_group_symop_operation_xyz
  'x, y, z'

loop_
  _atom_site_type_symbol
  _atom_site_label
  _atom_site_symmetry_multiplicity
  _atom_site_fract_x
  _atom_site_fract_y
  _atom_site_fract_z
  _atom_site_occupancy
  Cs  Cs1       1.0  0.95500  0.30000  0.30800  1.0000
  Cs  Cs2       1.0  0.04530  0.70000  0.69200  1.0000
  Cu  Cu1       1.0  0.50000  0.00000  0.00000  1.0000
  Te  Te1       1.0  0.79700  0.79000  0.20400  1.0000
  Te  Te2       1.0  0.20300  0.21000  0.79600  1.0000
