data_image0
_chemical_formula_structural       AgRb2S2
_chemical_formula_sum              "Ag1 Rb2 S2"
_cell_length_a       3.91064
_cell_length_b       6.29394
_cell_length_c       6.79337
_cell_angle_alpha    77.3973
_cell_angle_beta     89.9968
_cell_angle_gamma    108.101

_space_group_name_H-M_alt    "P 1"
_space_group_IT_number       1

loop_
  _space_group_symop_operation_xyz
  'x, y, z'

loop_
  _atom_site_type_symbol
  _atom_site_label
  _atom_site_symmetry_multiplicity
  _atom_site_fract_x
  _atom_site_fract_y
  _atom_site_fract_z
  _atom_site_occupancy
  Ag  Ag1       1.0  0.50000  0.00000  0.00000  1.0000
  Rb  Rb1       1.0  0.16300  0.32600  0.29000  1.0000
  Rb  Rb2       1.0  0.83700  0.67400  0.71000  1.0000
  S   S1        1.0  0.89300  0.78600  0.20200  1.0000
  S   S2        1.0  0.10700  0.21400  0.79800  1.0000
