data_image0
_chemical_formula_structural       Br2Dy2S2
_chemical_formula_sum              "Br2 Dy2 S2"
_cell_length_a       5.36067
_cell_length_b       4.07284
_cell_length_c       8.59641
_cell_angle_alpha    90
_cell_angle_beta     90
_cell_angle_gamma    90

_space_group_name_H-M_alt    "P 1"
_space_group_IT_number       1

loop_
  _space_group_symop_operation_xyz
  'x, y, z'

loop_
  _atom_site_type_symbol
  _atom_site_label
  _atom_site_symmetry_multiplicity
  _atom_site_fract_x
  _atom_site_fract_y
  _atom_site_fract_z
  _atom_site_occupancy
  Br  Br1       1.0  0.25000  0.75000  0.36300  1.0000
  Br  Br2       1.0  0.75000  0.25000  0.63700  1.0000
  Dy  Dy1       1.0  0.25000  0.25000  0.13500  1.0000
  Dy  Dy2       1.0  0.75000  0.75000  0.86500  1.0000
  S   S1        1.0  0.75000  0.25000  0.07920  1.0000
  S   S2        1.0  0.25000  0.75000  0.92100  1.0000
