data_image0
_chemical_formula_structural       I2Na4O
_chemical_formula_sum              "I2 Na4 O1"
_cell_length_a       4.65973
_cell_length_b       4.65973
_cell_length_c       8.63676
_cell_angle_alpha    105.65
_cell_angle_beta     105.65
_cell_angle_gamma    90

_space_group_name_H-M_alt    "P 1"
_space_group_IT_number       1

loop_
  _space_group_symop_operation_xyz
  'x, y, z'

loop_
  _atom_site_type_symbol
  _atom_site_label
  _atom_site_symmetry_multiplicity
  _atom_site_fract_x
  _atom_site_fract_y
  _atom_site_fract_z
  _atom_site_occupancy
  I   I1        1.0  0.65300  0.65300  0.30700  1.0000
  I   I2        1.0  0.34700  0.34700  0.69300  1.0000
  Na  Na1       1.0  0.50000  0.00000  0.00000  1.0000
  Na  Na2       1.0  0.00000  0.50000  0.00000  1.0000
  Na  Na3       1.0  0.14300  0.14300  0.28600  1.0000
  Na  Na4       1.0  0.85700  0.85700  0.71400  1.0000
  O   O1        1.0  0.00000  0.00000  0.00000  1.0000
