data_image0
_chemical_formula_structural       AgCs2O2
_chemical_formula_sum              "Ag1 Cs2 O2"
_cell_length_a       3.56014
_cell_length_b       5.58626
_cell_length_c       6.34255
_cell_angle_alpha    74.7924
_cell_angle_beta     90.0061
_cell_angle_gamma    108.579

_space_group_name_H-M_alt    "P 1"
_space_group_IT_number       1

loop_
  _space_group_symop_operation_xyz
  'x, y, z'

loop_
  _atom_site_type_symbol
  _atom_site_label
  _atom_site_symmetry_multiplicity
  _atom_site_fract_x
  _atom_site_fract_y
  _atom_site_fract_z
  _atom_site_occupancy
  Ag  Ag1       1.0  0.50000  0.00000  0.00000  1.0000
  Cs  Cs1       1.0  0.16900  0.33700  0.30200  1.0000
  Cs  Cs2       1.0  0.83100  0.66300  0.69800  1.0000
  O   O1        1.0  0.88900  0.77700  0.17000  1.0000
  O   O2        1.0  0.11100  0.22300  0.83000  1.0000
