data_image0
_chemical_formula_structural       AgK2Se2
_chemical_formula_sum              "Ag1 K2 Se2"
_cell_length_a       4.03059
_cell_length_b       6.28351
_cell_length_c       6.74678
_cell_angle_alpha    78.056
_cell_angle_beta     90.0607
_cell_angle_gamma    108.713

_space_group_name_H-M_alt    "P 1"
_space_group_IT_number       1

loop_
  _space_group_symop_operation_xyz
  'x, y, z'

loop_
  _atom_site_type_symbol
  _atom_site_label
  _atom_site_symmetry_multiplicity
  _atom_site_fract_x
  _atom_site_fract_y
  _atom_site_fract_z
  _atom_site_occupancy
  Ag  Ag1       1.0  0.50000  0.00000  0.00000  1.0000
  K   K1        1.0  0.16100  0.32200  0.28200  1.0000
  K   K2        1.0  0.83900  0.67800  0.71800  1.0000
  Se  Se1       1.0  0.88800  0.77500  0.21400  1.0000
  Se  Se2       1.0  0.11200  0.22500  0.78600  1.0000
