data_image0
_chemical_formula_structural       CuLi2S2
_chemical_formula_sum              "Cu1 Li2 S2"
_cell_length_a       3.44467
_cell_length_b       4.36925
_cell_length_c       5.96529
_cell_angle_alpha    78.7304
_cell_angle_beta     89.988
_cell_angle_gamma    113.218

_space_group_name_H-M_alt    "P 1"
_space_group_IT_number       1

loop_
  _space_group_symop_operation_xyz
  'x, y, z'

loop_
  _atom_site_type_symbol
  _atom_site_label
  _atom_site_symmetry_multiplicity
  _atom_site_fract_x
  _atom_site_fract_y
  _atom_site_fract_z
  _atom_site_occupancy
  Cu  Cu1       1.0  0.50000  0.00000  0.00000  1.0000
  Li  Li1       1.0  0.16100  0.32200  0.33100  1.0000
  Li  Li2       1.0  0.83900  0.67800  0.66900  1.0000
  S   S1        1.0  0.88200  0.76400  0.24300  1.0000
  S   S2        1.0  0.11800  0.23600  0.75700  1.0000
