data_image0
_chemical_formula_structural       AuRb2Te2
_chemical_formula_sum              "Au1 Rb2 Te2"
_cell_length_a       4.20366
_cell_length_b       6.88534
_cell_length_c       7.36794
_cell_angle_alpha    78.486
_cell_angle_beta     90.1257
_cell_angle_gamma    107.772

_space_group_name_H-M_alt    "P 1"
_space_group_IT_number       1

loop_
  _space_group_symop_operation_xyz
  'x, y, z'

loop_
  _atom_site_type_symbol
  _atom_site_label
  _atom_site_symmetry_multiplicity
  _atom_site_fract_x
  _atom_site_fract_y
  _atom_site_fract_z
  _atom_site_occupancy
  Au  Au1       1.0  0.50000  0.00000  0.00000  1.0000
  Rb  Rb1       1.0  0.15700  0.31100  0.27700  1.0000
  Rb  Rb2       1.0  0.84300  0.68900  0.72300  1.0000
  Te  Te1       1.0  0.89200  0.78100  0.20900  1.0000
  Te  Te2       1.0  0.10800  0.21900  0.79100  1.0000
