data_image0
_chemical_formula_structural       Cs2CuSe2
_chemical_formula_sum              "Cs2 Cu1 Se2"
_cell_length_a       3.81198
_cell_length_b       6.84081
_cell_length_c       7.22185
_cell_angle_alpha    76.3572
_cell_angle_beta     89.9912
_cell_angle_gamma    106.148

_space_group_name_H-M_alt    "P 1"
_space_group_IT_number       1

loop_
  _space_group_symop_operation_xyz
  'x, y, z'

loop_
  _atom_site_type_symbol
  _atom_site_label
  _atom_site_symmetry_multiplicity
  _atom_site_fract_x
  _atom_site_fract_y
  _atom_site_fract_z
  _atom_site_occupancy
  Cs  Cs1       1.0  0.15900  0.31700  0.29200  1.0000
  Cs  Cs2       1.0  0.84100  0.68300  0.70800  1.0000
  Cu  Cu1       1.0  0.50000  0.00000  0.00000  1.0000
  Se  Se1       1.0  0.90000  0.79900  0.18500  1.0000
  Se  Se2       1.0  0.10000  0.20100  0.81500  1.0000
