data_image0
_chemical_formula_structural       O4Se4Sm4Tl4
_chemical_formula_sum              "O4 Se4 Sm4 Tl4"
_cell_length_a       5.58056
_cell_length_b       5.52719
_cell_length_c       12.8689
_cell_angle_alpha    90
_cell_angle_beta     110.335
_cell_angle_gamma    90

_space_group_name_H-M_alt    "P 1"
_space_group_IT_number       1

loop_
  _space_group_symop_operation_xyz
  'x, y, z'

loop_
  _atom_site_type_symbol
  _atom_site_label
  _atom_site_symmetry_multiplicity
  _atom_site_fract_x
  _atom_site_fract_y
  _atom_site_fract_z
  _atom_site_occupancy
  O   O1        1.0  0.25000  0.49800  0.00000  1.0000
  O   O2        1.0  0.75000  0.99800  0.00000  1.0000
  O   O3        1.0  0.25000  0.99800  0.00015  1.0000
  O   O4        1.0  0.75000  0.49800  0.00000  1.0000
  Se  Se1       1.0  0.72700  0.74300  0.25100  1.0000
  Se  Se2       1.0  0.22700  0.24500  0.25100  1.0000
  Se  Se3       1.0  0.77300  0.74500  0.74900  1.0000
  Se  Se4       1.0  0.27300  0.24300  0.74900  1.0000
  Sm  Sm1       1.0  0.57800  0.24900  0.09740  1.0000
  Sm  Sm2       1.0  0.07780  0.74800  0.09750  1.0000
  Sm  Sm3       1.0  0.92200  0.24800  0.90200  1.0000
  Sm  Sm4       1.0  0.42200  0.74900  0.90300  1.0000
  Tl  Tl1       1.0  0.89600  0.20700  0.39300  1.0000
  Tl  Tl2       1.0  0.39600  0.71100  0.39300  1.0000
  Tl  Tl3       1.0  0.60400  0.21100  0.60700  1.0000
  Tl  Tl4       1.0  0.10400  0.70700  0.60700  1.0000
