data_image0
_chemical_formula_structural       AuCs2Te2
_chemical_formula_sum              "Au1 Cs2 Te2"
_cell_length_a       4.22868
_cell_length_b       7.12961
_cell_length_c       7.67972
_cell_angle_alpha    78.9986
_cell_angle_beta     90.1133
_cell_angle_gamma    107.228

_space_group_name_H-M_alt    "P 1"
_space_group_IT_number       1

loop_
  _space_group_symop_operation_xyz
  'x, y, z'

loop_
  _atom_site_type_symbol
  _atom_site_label
  _atom_site_symmetry_multiplicity
  _atom_site_fract_x
  _atom_site_fract_y
  _atom_site_fract_z
  _atom_site_occupancy
  Au  Au1       1.0  0.50000  0.00000  0.00000  1.0000
  Cs  Cs1       1.0  0.15800  0.31300  0.28300  1.0000
  Cs  Cs2       1.0  0.84200  0.68700  0.71700  1.0000
  Te  Te1       1.0  0.89600  0.79000  0.19800  1.0000
  Te  Te2       1.0  0.10400  0.21000  0.80200  1.0000
