data_image0
_chemical_formula_structural       AgRb2Se2
_chemical_formula_sum              "Ag1 Rb2 Se2"
_cell_length_a       4.05011
_cell_length_b       6.49352
_cell_length_c       6.97146
_cell_angle_alpha    78.2998
_cell_angle_beta     89.9763
_cell_angle_gamma    108.18

_space_group_name_H-M_alt    "P 1"
_space_group_IT_number       1

loop_
  _space_group_symop_operation_xyz
  'x, y, z'

loop_
  _atom_site_type_symbol
  _atom_site_label
  _atom_site_symmetry_multiplicity
  _atom_site_fract_x
  _atom_site_fract_y
  _atom_site_fract_z
  _atom_site_occupancy
  Ag  Ag1       1.0  0.50000  0.00000  0.00000  1.0000
  Rb  Rb1       1.0  0.16100  0.32200  0.28600  1.0000
  Rb  Rb2       1.0  0.83900  0.67800  0.71400  1.0000
  Se  Se1       1.0  0.89100  0.78200  0.20600  1.0000
  Se  Se2       1.0  0.10900  0.21800  0.79400  1.0000
