data_image0
_chemical_formula_structural       Cd4Eu2
_chemical_formula_sum              "Cd4 Eu2"
_cell_length_a       5.0255
_cell_length_b       6.24228
_cell_length_c       6.24228
_cell_angle_alpha    95.3166
_cell_angle_beta     113.737
_cell_angle_gamma    66.2631

_space_group_name_H-M_alt    "P 1"
_space_group_IT_number       1

loop_
  _space_group_symop_operation_xyz
  'x, y, z'

loop_
  _atom_site_type_symbol
  _atom_site_label
  _atom_site_symmetry_multiplicity
  _atom_site_fract_x
  _atom_site_fract_y
  _atom_site_fract_z
  _atom_site_occupancy
  Cd  Cd1       1.0  0.55400  0.11000  0.21900  1.0000
  Cd  Cd2       1.0  0.05420  0.28100  0.39000  1.0000
  Cd  Cd3       1.0  0.94600  0.71900  0.61000  1.0000
  Cd  Cd4       1.0  0.44600  0.89000  0.78100  1.0000
  Eu  Eu1       1.0  0.25000  0.70300  0.20300  1.0000
  Eu  Eu2       1.0  0.75000  0.29700  0.79700  1.0000
