data_image0
_chemical_formula_structural       Cs2CuS2
_chemical_formula_sum              "Cs2 Cu1 S2"
_cell_length_a       3.6635
_cell_length_b       6.45998
_cell_length_c       7.00302
_cell_angle_alpha    75.895
_cell_angle_beta     89.9792
_cell_angle_gamma    106.483

_space_group_name_H-M_alt    "P 1"
_space_group_IT_number       1

loop_
  _space_group_symop_operation_xyz
  'x, y, z'

loop_
  _atom_site_type_symbol
  _atom_site_label
  _atom_site_symmetry_multiplicity
  _atom_site_fract_x
  _atom_site_fract_y
  _atom_site_fract_z
  _atom_site_occupancy
  Cs  Cs1       1.0  0.16000  0.32100  0.29200  1.0000
  Cs  Cs2       1.0  0.84000  0.67900  0.70800  1.0000
  Cu  Cu1       1.0  0.50000  0.00000  0.00000  1.0000
  S   S1        1.0  0.90100  0.80200  0.18400  1.0000
  S   S2        1.0  0.09900  0.19800  0.81600  1.0000
