data_image0
_chemical_formula_structural       O2Pm2Se2Tl2
_chemical_formula_sum              "O2 Pm2 Se2 Tl2"
_cell_length_a       4.72554
_cell_length_b       8.12346
_cell_length_c       6.66372
_cell_angle_alpha    90
_cell_angle_beta     90
_cell_angle_gamma    90

_space_group_name_H-M_alt    "P 1"
_space_group_IT_number       1

loop_
  _space_group_symop_operation_xyz
  'x, y, z'

loop_
  _atom_site_type_symbol
  _atom_site_label
  _atom_site_symmetry_multiplicity
  _atom_site_fract_x
  _atom_site_fract_y
  _atom_site_fract_z
  _atom_site_occupancy
  O   O1        1.0  0.50000  0.08880  0.21200  1.0000
  O   O2        1.0  0.50000  0.91100  0.71200  1.0000
  Pm  Pm1       1.0  0.50000  0.86600  0.03360  1.0000
  Pm  Pm2       1.0  0.50000  0.13400  0.53400  1.0000
  Se  Se1       1.0  0.00000  0.68600  0.13300  1.0000
  Se  Se2       1.0  0.00000  0.31400  0.63300  1.0000
  Tl  Tl1       1.0  0.00000  0.29500  0.11300  1.0000
  Tl  Tl2       1.0  0.00000  0.70500  0.61300  1.0000
