data_image0
_chemical_formula_structural       Dy2O2Se2Tl2
_chemical_formula_sum              "Dy2 O2 Se2 Tl2"
_cell_length_a       4.59595
_cell_length_b       8.00432
_cell_length_c       6.60934
_cell_angle_alpha    90
_cell_angle_beta     90
_cell_angle_gamma    90

_space_group_name_H-M_alt    "P 1"
_space_group_IT_number       1

loop_
  _space_group_symop_operation_xyz
  'x, y, z'

loop_
  _atom_site_type_symbol
  _atom_site_label
  _atom_site_symmetry_multiplicity
  _atom_site_fract_x
  _atom_site_fract_y
  _atom_site_fract_z
  _atom_site_occupancy
  Dy  Dy1       1.0  0.50000  0.86300  0.04660  1.0000
  Dy  Dy2       1.0  0.50000  0.13700  0.54700  1.0000
  O   O1        1.0  0.50000  0.06940  0.24200  1.0000
  O   O2        1.0  0.50000  0.93100  0.74200  1.0000
  Se  Se1       1.0  0.00000  0.67200  0.09180  1.0000
  Se  Se2       1.0  0.00000  0.32800  0.59200  1.0000
  Tl  Tl1       1.0  0.00000  0.27600  0.11100  1.0000
  Tl  Tl2       1.0  0.00000  0.72400  0.61100  1.0000
