data_image0
_chemical_formula_structural       CuNa2Se2
_chemical_formula_sum              "Cu1 Na2 Se2"
_cell_length_a       3.6929
_cell_length_b       5.35994
_cell_length_c       6.21185
_cell_angle_alpha    79.0627
_cell_angle_beta     89.9898
_cell_angle_gamma    110.157

_space_group_name_H-M_alt    "P 1"
_space_group_IT_number       1

loop_
  _space_group_symop_operation_xyz
  'x, y, z'

loop_
  _atom_site_type_symbol
  _atom_site_label
  _atom_site_symmetry_multiplicity
  _atom_site_fract_x
  _atom_site_fract_y
  _atom_site_fract_z
  _atom_site_occupancy
  Cu  Cu1       1.0  0.50000  0.00000  0.00000  1.0000
  Na  Na1       1.0  0.15800  0.31600  0.29300  1.0000
  Na  Na2       1.0  0.84200  0.68400  0.70700  1.0000
  Se  Se1       1.0  0.88300  0.76700  0.22300  1.0000
  Se  Se2       1.0  0.11700  0.23300  0.77700  1.0000
