data_image0
_chemical_formula_structural       CuO2Rb2
_chemical_formula_sum              "Cu1 O2 Rb2"
_cell_length_a       3.14746
_cell_length_b       5.18678
_cell_length_c       5.88855
_cell_angle_alpha    74.7528
_cell_angle_beta     89.9966
_cell_angle_gamma    107.662

_space_group_name_H-M_alt    "P 1"
_space_group_IT_number       1

loop_
  _space_group_symop_operation_xyz
  'x, y, z'

loop_
  _atom_site_type_symbol
  _atom_site_label
  _atom_site_symmetry_multiplicity
  _atom_site_fract_x
  _atom_site_fract_y
  _atom_site_fract_z
  _atom_site_occupancy
  Cu  Cu1       1.0  0.50000  0.00000  0.00000  1.0000
  O   O1        1.0  0.89700  0.79400  0.18200  1.0000
  O   O2        1.0  0.10300  0.20600  0.81800  1.0000
  Rb  Rb1       1.0  0.16500  0.33000  0.30700  1.0000
  Rb  Rb2       1.0  0.83500  0.67000  0.69300  1.0000
