data_image0
_chemical_formula_structural       CuLi2Se2
_chemical_formula_sum              "Cu1 Li2 Se2"
_cell_length_a       3.68251
_cell_length_b       4.64698
_cell_length_c       5.96528
_cell_angle_alpha    78.7448
_cell_angle_beta     90.0022
_cell_angle_gamma    113.34

_space_group_name_H-M_alt    "P 1"
_space_group_IT_number       1

loop_
  _space_group_symop_operation_xyz
  'x, y, z'

loop_
  _atom_site_type_symbol
  _atom_site_label
  _atom_site_symmetry_multiplicity
  _atom_site_fract_x
  _atom_site_fract_y
  _atom_site_fract_z
  _atom_site_occupancy
  Cu  Cu1       1.0  0.50000  0.00000  0.00000  1.0000
  Li  Li1       1.0  0.15300  0.30600  0.30900  1.0000
  Li  Li2       1.0  0.84700  0.69400  0.69100  1.0000
  Se  Se1       1.0  0.86900  0.73800  0.24600  1.0000
  Se  Se2       1.0  0.13100  0.26200  0.75400  1.0000
