data_image0
_chemical_formula_structural       P4Re3
_chemical_formula_sum              "P4 Re3"
_cell_length_a       3.02315
_cell_length_b       6.07367
_cell_length_c       6.31132
_cell_angle_alpha    113.205
_cell_angle_beta     103.857
_cell_angle_gamma    90

_space_group_name_H-M_alt    "P 1"
_space_group_IT_number       1

loop_
  _space_group_symop_operation_xyz
  'x, y, z'

loop_
  _atom_site_type_symbol
  _atom_site_label
  _atom_site_symmetry_multiplicity
  _atom_site_fract_x
  _atom_site_fract_y
  _atom_site_fract_z
  _atom_site_occupancy
  P   P1        1.0  0.08500  0.43600  0.17000  1.0000
  P   P2        1.0  0.64900  0.97500  0.29800  1.0000
  P   P3        1.0  0.35100  0.02490  0.70200  1.0000
  P   P4        1.0  0.91500  0.56400  0.83000  1.0000
  Re  Re1       1.0  0.00000  0.00000  0.00000  1.0000
  Re  Re2       1.0  0.73600  0.68100  0.47200  1.0000
  Re  Re3       1.0  0.26400  0.31900  0.52800  1.0000
