data_image0
_chemical_formula_structural       AuNa2Te2
_chemical_formula_sum              "Au1 Na2 Te2"
_cell_length_a       4.21351
_cell_length_b       5.85992
_cell_length_c       6.41663
_cell_angle_alpha    73.0745
_cell_angle_beta     89.9974
_cell_angle_gamma    111.077

_space_group_name_H-M_alt    "P 1"
_space_group_IT_number       1

loop_
  _space_group_symop_operation_xyz
  'x, y, z'

loop_
  _atom_site_type_symbol
  _atom_site_label
  _atom_site_symmetry_multiplicity
  _atom_site_fract_x
  _atom_site_fract_y
  _atom_site_fract_z
  _atom_site_occupancy
  Au  Au1       1.0  0.50000  0.00000  0.00000  1.0000
  Na  Na1       1.0  0.15000  0.30100  0.23400  1.0000
  Na  Na2       1.0  0.85000  0.69900  0.76600  1.0000
  Te  Te1       1.0  0.86100  0.72200  0.26600  1.0000
  Te  Te2       1.0  0.13900  0.27800  0.73400  1.0000
