data_image0
_chemical_formula_structural       O2Se2Tl2Y2
_chemical_formula_sum              "O2 Se2 Tl2 Y2"
_cell_length_a       4.53748
_cell_length_b       8.13573
_cell_length_c       6.61665
_cell_angle_alpha    90
_cell_angle_beta     90
_cell_angle_gamma    90

_space_group_name_H-M_alt    "P 1"
_space_group_IT_number       1

loop_
  _space_group_symop_operation_xyz
  'x, y, z'

loop_
  _atom_site_type_symbol
  _atom_site_label
  _atom_site_symmetry_multiplicity
  _atom_site_fract_x
  _atom_site_fract_y
  _atom_site_fract_z
  _atom_site_occupancy
  O   O1        1.0  0.50000  0.08330  0.22500  1.0000
  O   O2        1.0  0.50000  0.91700  0.72500  1.0000
  Se  Se1       1.0  0.00000  0.68600  0.11200  1.0000
  Se  Se2       1.0  0.00000  0.31400  0.61200  1.0000
  Tl  Tl1       1.0  0.00000  0.29300  0.11600  1.0000
  Tl  Tl2       1.0  0.00000  0.70700  0.61600  1.0000
  Y   Y1        1.0  0.50000  0.87300  0.03850  1.0000
  Y   Y2        1.0  0.50000  0.12700  0.53900  1.0000
