data_image0
_chemical_formula_structural       Ho2O2Se2Tl2
_chemical_formula_sum              "Ho2 O2 Se2 Tl2"
_cell_length_a       4.51189
_cell_length_b       8.14114
_cell_length_c       6.58042
_cell_angle_alpha    90
_cell_angle_beta     90
_cell_angle_gamma    90

_space_group_name_H-M_alt    "P 1"
_space_group_IT_number       1

loop_
  _space_group_symop_operation_xyz
  'x, y, z'

loop_
  _atom_site_type_symbol
  _atom_site_label
  _atom_site_symmetry_multiplicity
  _atom_site_fract_x
  _atom_site_fract_y
  _atom_site_fract_z
  _atom_site_occupancy
  Ho  Ho1       1.0  0.50000  0.87400  0.03620  1.0000
  Ho  Ho2       1.0  0.50000  0.12600  0.53600  1.0000
  O   O1        1.0  0.50000  0.08200  0.22300  1.0000
  O   O2        1.0  0.50000  0.91800  0.72300  1.0000
  Se  Se1       1.0  0.00000  0.69000  0.11500  1.0000
  Se  Se2       1.0  0.00000  0.31000  0.61500  1.0000
  Tl  Tl1       1.0  0.00000  0.29600  0.11700  1.0000
  Tl  Tl2       1.0  0.00000  0.70400  0.61700  1.0000
