data_image0
_chemical_formula_structural       Cu4O4Se4Ti4
_chemical_formula_sum              "Cu4 O4 Se4 Ti4"
_cell_length_a       6.75083
_cell_length_b       5.6623
_cell_length_c       5.6077
_cell_angle_alpha    90
_cell_angle_beta     97.3084
_cell_angle_gamma    90

_space_group_name_H-M_alt    "P 1"
_space_group_IT_number       1

loop_
  _space_group_symop_operation_xyz
  'x, y, z'

loop_
  _atom_site_type_symbol
  _atom_site_label
  _atom_site_symmetry_multiplicity
  _atom_site_fract_x
  _atom_site_fract_y
  _atom_site_fract_z
  _atom_site_occupancy
  Cu  Cu1       1.0  0.10800  0.69700  0.00969  1.0000
  Cu  Cu2       1.0  0.89200  0.19700  0.49000  1.0000
  Cu  Cu3       1.0  0.10800  0.80300  0.51000  1.0000
  Cu  Cu4       1.0  0.89200  0.30300  0.99000  1.0000
  O   O1        1.0  0.57700  0.28400  0.00662  1.0000
  O   O2        1.0  0.42300  0.78400  0.49300  1.0000
  O   O3        1.0  0.57700  0.21600  0.50700  1.0000
  O   O4        1.0  0.42300  0.71600  0.99300  1.0000
  Se  Se1       1.0  0.81600  0.87900  0.17900  1.0000
  Se  Se2       1.0  0.18400  0.37900  0.32100  1.0000
  Se  Se3       1.0  0.81600  0.62100  0.67900  1.0000
  Se  Se4       1.0  0.18400  0.12100  0.82100  1.0000
  Ti  Ti1       1.0  0.43700  0.01850  0.21500  1.0000
  Ti  Ti2       1.0  0.56300  0.51900  0.28500  1.0000
  Ti  Ti3       1.0  0.43700  0.48100  0.71500  1.0000
  Ti  Ti4       1.0  0.56300  0.98100  0.78500  1.0000
