data_image0
_chemical_formula_structural       AuRb2S2
_chemical_formula_sum              "Au1 Rb2 S2"
_cell_length_a       3.88248
_cell_length_b       6.33787
_cell_length_c       6.77449
_cell_angle_alpha    76.625
_cell_angle_beta     90.0089
_cell_angle_gamma    107.832

_space_group_name_H-M_alt    "P 1"
_space_group_IT_number       1

loop_
  _space_group_symop_operation_xyz
  'x, y, z'

loop_
  _atom_site_type_symbol
  _atom_site_label
  _atom_site_symmetry_multiplicity
  _atom_site_fract_x
  _atom_site_fract_y
  _atom_site_fract_z
  _atom_site_occupancy
  Au  Au1       1.0  0.50000  0.00000  0.00000  1.0000
  Rb  Rb1       1.0  0.16100  0.32200  0.28600  1.0000
  Rb  Rb2       1.0  0.83900  0.67800  0.71400  1.0000
  S   S1        1.0  0.89400  0.78700  0.20000  1.0000
  S   S2        1.0  0.10600  0.21300  0.80000  1.0000
