data_image0
_chemical_formula_structural       Au4O4Se4Ti4
_chemical_formula_sum              "Au4 O4 Se4 Ti4"
_cell_length_a       6.91908
_cell_length_b       6.83129
_cell_length_c       5.81304
_cell_angle_alpha    90
_cell_angle_beta     96.9272
_cell_angle_gamma    90

_space_group_name_H-M_alt    "P 1"
_space_group_IT_number       1

loop_
  _space_group_symop_operation_xyz
  'x, y, z'

loop_
  _atom_site_type_symbol
  _atom_site_label
  _atom_site_symmetry_multiplicity
  _atom_site_fract_x
  _atom_site_fract_y
  _atom_site_fract_z
  _atom_site_occupancy
  Au  Au1       1.0  0.06720  0.68000  0.02460  1.0000
  Au  Au2       1.0  0.93300  0.18000  0.47500  1.0000
  Au  Au3       1.0  0.06720  0.82000  0.52500  1.0000
  Au  Au4       1.0  0.93300  0.32000  0.97500  1.0000
  O   O1        1.0  0.48100  0.34000  0.09750  1.0000
  O   O2        1.0  0.51900  0.84000  0.40200  1.0000
  O   O3        1.0  0.48100  0.16000  0.59800  1.0000
  O   O4        1.0  0.51900  0.66000  0.90200  1.0000
  Se  Se1       1.0  0.24000  0.01820  0.02070  1.0000
  Se  Se2       1.0  0.76000  0.51800  0.47900  1.0000
  Se  Se3       1.0  0.24000  0.48200  0.52100  1.0000
  Se  Se4       1.0  0.76000  0.98200  0.97900  1.0000
  Ti  Ti1       1.0  0.44200  0.60500  0.21200  1.0000
  Ti  Ti2       1.0  0.55800  0.10500  0.28800  1.0000
  Ti  Ti3       1.0  0.44200  0.89500  0.71200  1.0000
  Ti  Ti4       1.0  0.55800  0.39500  0.78800  1.0000
