data_image0
_chemical_formula_structural       CdCu2Se4Sn
_chemical_formula_sum              "Cd1 Cu2 Se4 Sn1"
_cell_length_a       5.87559
_cell_length_b       5.87559
_cell_length_c       7.12897
_cell_angle_alpha    114.336
_cell_angle_beta     114.336
_cell_angle_gamma    90

_space_group_name_H-M_alt    "P 1"
_space_group_IT_number       1

loop_
  _space_group_symop_operation_xyz
  'x, y, z'

loop_
  _atom_site_type_symbol
  _atom_site_label
  _atom_site_symmetry_multiplicity
  _atom_site_fract_x
  _atom_site_fract_y
  _atom_site_fract_z
  _atom_site_occupancy
  Cd  Cd1       1.0  0.00000  0.00000  0.00000  1.0000
  Cu  Cu1       1.0  0.75000  0.25000  0.50000  1.0000
  Cu  Cu2       1.0  0.25000  0.75000  0.50000  1.0000
  Se  Se1       1.0  0.39700  0.39700  0.28300  1.0000
  Se  Se2       1.0  0.88600  0.88600  0.28300  1.0000
  Se  Se3       1.0  0.60300  0.11400  0.71700  1.0000
  Se  Se4       1.0  0.11400  0.60300  0.71700  1.0000
  Sn  Sn1       1.0  0.50000  0.50000  0.00000  1.0000
