data_image0
_chemical_formula_structural       AuK2S2
_chemical_formula_sum              "Au1 K2 S2"
_cell_length_a       3.86092
_cell_length_b       6.06357
_cell_length_c       6.49638
_cell_angle_alpha    77.3269
_cell_angle_beta     90.0006
_cell_angle_gamma    108.56

_space_group_name_H-M_alt    "P 1"
_space_group_IT_number       1

loop_
  _space_group_symop_operation_xyz
  'x, y, z'

loop_
  _atom_site_type_symbol
  _atom_site_label
  _atom_site_symmetry_multiplicity
  _atom_site_fract_x
  _atom_site_fract_y
  _atom_site_fract_z
  _atom_site_occupancy
  Au  Au1       1.0  0.50000  0.00000  0.00000  1.0000
  K   K1        1.0  0.16200  0.32500  0.28300  1.0000
  K   K2        1.0  0.83800  0.67500  0.71700  1.0000
  S   S1        1.0  0.89000  0.78100  0.21000  1.0000
  S   S2        1.0  0.11000  0.21900  0.79000  1.0000
