data_image0
_chemical_formula_structural       AuCs2Se2
_chemical_formula_sum              "Au1 Cs2 Se2"
_cell_length_a       4.04456
_cell_length_b       6.72728
_cell_length_c       7.28122
_cell_angle_alpha    77.8114
_cell_angle_beta     89.899
_cell_angle_gamma    107.528

_space_group_name_H-M_alt    "P 1"
_space_group_IT_number       1

loop_
  _space_group_symop_operation_xyz
  'x, y, z'

loop_
  _atom_site_type_symbol
  _atom_site_label
  _atom_site_symmetry_multiplicity
  _atom_site_fract_x
  _atom_site_fract_y
  _atom_site_fract_z
  _atom_site_occupancy
  Au  Au1       1.0  0.50000  0.00000  0.00000  1.0000
  Cs  Cs1       1.0  0.15600  0.31600  0.28800  1.0000
  Cs  Cs2       1.0  0.84400  0.68400  0.71200  1.0000
  Se  Se1       1.0  0.89400  0.78900  0.19300  1.0000
  Se  Se2       1.0  0.10600  0.21100  0.80700  1.0000
