data_image0
_chemical_formula_structural       O2Se2Tl2Yb2
_chemical_formula_sum              "O2 Se2 Tl2 Yb2"
_cell_length_a       4.44198
_cell_length_b       8.09513
_cell_length_c       5.63766
_cell_angle_alpha    90
_cell_angle_beta     90
_cell_angle_gamma    90

_space_group_name_H-M_alt    "P 1"
_space_group_IT_number       1

loop_
  _space_group_symop_operation_xyz
  'x, y, z'

loop_
  _atom_site_type_symbol
  _atom_site_label
  _atom_site_symmetry_multiplicity
  _atom_site_fract_x
  _atom_site_fract_y
  _atom_site_fract_z
  _atom_site_occupancy
  O   O1        1.0  0.50000  0.12400  0.16700  1.0000
  O   O2        1.0  0.50000  0.87600  0.66700  1.0000
  Se  Se1       1.0  0.00000  0.66600  0.14100  1.0000
  Se  Se2       1.0  0.00000  0.33400  0.64100  1.0000
  Tl  Tl1       1.0  0.00000  0.27600  0.12900  1.0000
  Tl  Tl2       1.0  0.00000  0.72400  0.62900  1.0000
  Yb  Yb1       1.0  0.50000  0.86900  0.05330  1.0000
  Yb  Yb2       1.0  0.50000  0.13100  0.55300  1.0000
