data_image0
_chemical_formula_structural       AgK2Te2
_chemical_formula_sum              "Ag1 K2 Te2"
_cell_length_a       4.25724
_cell_length_b       6.68404
_cell_length_c       7.15042
_cell_angle_alpha    78.256
_cell_angle_beta     89.8273
_cell_angle_gamma    108.56

_space_group_name_H-M_alt    "P 1"
_space_group_IT_number       1

loop_
  _space_group_symop_operation_xyz
  'x, y, z'

loop_
  _atom_site_type_symbol
  _atom_site_label
  _atom_site_symmetry_multiplicity
  _atom_site_fract_x
  _atom_site_fract_y
  _atom_site_fract_z
  _atom_site_occupancy
  Ag  Ag1       1.0  0.50000  0.00000  0.00000  1.0000
  K   K1        1.0  0.15700  0.31700  0.27700  1.0000
  K   K2        1.0  0.84300  0.68300  0.72300  1.0000
  Te  Te1       1.0  0.88500  0.77200  0.21600  1.0000
  Te  Te2       1.0  0.11500  0.22800  0.78400  1.0000
