data_image0
_chemical_formula_structural       AgK2O2
_chemical_formula_sum              "Ag1 K2 O2"
_cell_length_a       3.41991
_cell_length_b       5.09352
_cell_length_c       5.70625
_cell_angle_alpha    75.8792
_cell_angle_beta     89.992
_cell_angle_gamma    109.615

_space_group_name_H-M_alt    "P 1"
_space_group_IT_number       1

loop_
  _space_group_symop_operation_xyz
  'x, y, z'

loop_
  _atom_site_type_symbol
  _atom_site_label
  _atom_site_symmetry_multiplicity
  _atom_site_fract_x
  _atom_site_fract_y
  _atom_site_fract_z
  _atom_site_occupancy
  Ag  Ag1       1.0  0.50000  0.00000  0.00000  1.0000
  K   K1        1.0  0.16800  0.33700  0.30800  1.0000
  K   K2        1.0  0.83200  0.66300  0.69200  1.0000
  O   O1        1.0  0.88900  0.77800  0.21000  1.0000
  O   O2        1.0  0.11100  0.22200  0.79000  1.0000
