data_image0
_chemical_formula_structural       CuNa2S2
_chemical_formula_sum              "Cu1 Na2 S2"
_cell_length_a       3.52366
_cell_length_b       5.1645
_cell_length_c       5.98452
_cell_angle_alpha    78.8657
_cell_angle_beta     89.9757
_cell_angle_gamma    109.945

_space_group_name_H-M_alt    "P 1"
_space_group_IT_number       1

loop_
  _space_group_symop_operation_xyz
  'x, y, z'

loop_
  _atom_site_type_symbol
  _atom_site_label
  _atom_site_symmetry_multiplicity
  _atom_site_fract_x
  _atom_site_fract_y
  _atom_site_fract_z
  _atom_site_occupancy
  Cu  Cu1       1.0  0.50000  0.00000  0.00000  1.0000
  Na  Na1       1.0  0.16300  0.32600  0.29300  1.0000
  Na  Na2       1.0  0.83700  0.67400  0.70700  1.0000
  S   S1        1.0  0.88800  0.77600  0.22200  1.0000
  S   S2        1.0  0.11200  0.22400  0.77800  1.0000
