data_image0
_chemical_formula_structural       AuLi2Se2
_chemical_formula_sum              "Au1 Li2 Se2"
_cell_length_a       3.99083
_cell_length_b       4.82848
_cell_length_c       5.61675
_cell_angle_alpha    76.338
_cell_angle_beta     90.0116
_cell_angle_gamma    114.393

_space_group_name_H-M_alt    "P 1"
_space_group_IT_number       1

loop_
  _space_group_symop_operation_xyz
  'x, y, z'

loop_
  _atom_site_type_symbol
  _atom_site_label
  _atom_site_symmetry_multiplicity
  _atom_site_fract_x
  _atom_site_fract_y
  _atom_site_fract_z
  _atom_site_occupancy
  Au  Au1       1.0  0.50000  0.00000  0.00000  1.0000
  Li  Li1       1.0  0.15200  0.30400  0.25200  1.0000
  Li  Li2       1.0  0.84800  0.69600  0.74800  1.0000
  Se  Se1       1.0  0.85000  0.70100  0.27600  1.0000
  Se  Se2       1.0  0.15000  0.29900  0.72400  1.0000
