data_image0
_chemical_formula_structural       Au4Cr4O4Se4
_chemical_formula_sum              "Au4 Cr4 O4 Se4"
_cell_length_a       6.64092
_cell_length_b       6.64336
_cell_length_c       5.99775
_cell_angle_alpha    90
_cell_angle_beta     86.0984
_cell_angle_gamma    90

_space_group_name_H-M_alt    "P 1"
_space_group_IT_number       1

loop_
  _space_group_symop_operation_xyz
  'x, y, z'

loop_
  _atom_site_type_symbol
  _atom_site_label
  _atom_site_symmetry_multiplicity
  _atom_site_fract_x
  _atom_site_fract_y
  _atom_site_fract_z
  _atom_site_occupancy
  Au  Au1       1.0  0.93500  0.29000  0.03080  1.0000
  Au  Au2       1.0  0.06490  0.79000  0.46900  1.0000
  Au  Au3       1.0  0.93500  0.21000  0.53100  1.0000
  Au  Au4       1.0  0.06490  0.71000  0.96900  1.0000
  Cr  Cr1       1.0  0.50400  0.62900  0.21500  1.0000
  Cr  Cr2       1.0  0.49600  0.12900  0.28500  1.0000
  Cr  Cr3       1.0  0.50400  0.87100  0.71500  1.0000
  Cr  Cr4       1.0  0.49600  0.37100  0.78500  1.0000
  O   O1        1.0  0.62100  0.36600  0.09030  1.0000
  O   O2        1.0  0.37900  0.86600  0.41000  1.0000
  O   O3        1.0  0.62100  0.13400  0.59000  1.0000
  O   O4        1.0  0.37900  0.63400  0.91000  1.0000
  Se  Se1       1.0  0.73900  0.88200  0.03500  1.0000
  Se  Se2       1.0  0.26100  0.38200  0.46500  1.0000
  Se  Se3       1.0  0.73900  0.61800  0.53500  1.0000
  Se  Se4       1.0  0.26100  0.11800  0.96500  1.0000
