data_image0
_chemical_formula_structural       Au2Ge2Pr2
_chemical_formula_sum              "Au2 Ge2 Pr2"
_cell_length_a       4.50414
_cell_length_b       4.50442
_cell_length_c       7.96913
_cell_angle_alpha    90
_cell_angle_beta     90
_cell_angle_gamma    119.998

_space_group_name_H-M_alt    "P 1"
_space_group_IT_number       1

loop_
  _space_group_symop_operation_xyz
  'x, y, z'

loop_
  _atom_site_type_symbol
  _atom_site_label
  _atom_site_symmetry_multiplicity
  _atom_site_fract_x
  _atom_site_fract_y
  _atom_site_fract_z
  _atom_site_occupancy
  Au  Au1       1.0  0.33300  0.66700  0.01760  1.0000
  Au  Au2       1.0  0.66700  0.33300  0.51800  1.0000
  Ge  Ge1       1.0  0.33300  0.66700  0.47200  1.0000
  Ge  Ge2       1.0  0.66700  0.33300  0.97200  1.0000
  Pr  Pr1       1.0  0.00000  0.00000  0.25100  1.0000
  Pr  Pr2       1.0  0.00000  0.00001  0.75100  1.0000
