data_image0
_chemical_formula_structural       CuRb2Te2
_chemical_formula_sum              "Cu1 Rb2 Te2"
_cell_length_a       4.00805
_cell_length_b       6.98378
_cell_length_c       7.32798
_cell_angle_alpha    78.2285
_cell_angle_beta     90.0337
_cell_angle_gamma    106.665

_space_group_name_H-M_alt    "P 1"
_space_group_IT_number       1

loop_
  _space_group_symop_operation_xyz
  'x, y, z'

loop_
  _atom_site_type_symbol
  _atom_site_label
  _atom_site_symmetry_multiplicity
  _atom_site_fract_x
  _atom_site_fract_y
  _atom_site_fract_z
  _atom_site_occupancy
  Cu  Cu1       1.0  0.50000  0.00000  0.00000  1.0000
  Rb  Rb1       1.0  0.15800  0.31400  0.28400  1.0000
  Rb  Rb2       1.0  0.84200  0.68600  0.71600  1.0000
  Te  Te1       1.0  0.89600  0.79200  0.19800  1.0000
  Te  Te2       1.0  0.10400  0.20800  0.80200  1.0000
