data_image0
_chemical_formula_structural       CuRb2S2
_chemical_formula_sum              "Cu1 Rb2 S2"
_cell_length_a       3.60834
_cell_length_b       6.20793
_cell_length_c       6.66113
_cell_angle_alpha    76.9953
_cell_angle_beta     89.9779
_cell_angle_gamma    106.89

_space_group_name_H-M_alt    "P 1"
_space_group_IT_number       1

loop_
  _space_group_symop_operation_xyz
  'x, y, z'

loop_
  _atom_site_type_symbol
  _atom_site_label
  _atom_site_symmetry_multiplicity
  _atom_site_fract_x
  _atom_site_fract_y
  _atom_site_fract_z
  _atom_site_occupancy
  Cu  Cu1       1.0  0.50000  0.00000  0.00000  1.0000
  Rb  Rb1       1.0  0.16100  0.32100  0.29300  1.0000
  Rb  Rb2       1.0  0.83900  0.67900  0.70700  1.0000
  S   S1        1.0  0.89800  0.79600  0.19200  1.0000
  S   S2        1.0  0.10200  0.20400  0.80800  1.0000
