data_image0
_chemical_formula_structural       Pr4Sb2
_chemical_formula_sum              "Pr4 Sb2"
_cell_length_a       4.60067
_cell_length_b       4.60067
_cell_length_c       9.55748
_cell_angle_alpha    103.927
_cell_angle_beta     103.927
_cell_angle_gamma    90

_space_group_name_H-M_alt    "P 1"
_space_group_IT_number       1

loop_
  _space_group_symop_operation_xyz
  'x, y, z'

loop_
  _atom_site_type_symbol
  _atom_site_label
  _atom_site_symmetry_multiplicity
  _atom_site_fract_x
  _atom_site_fract_y
  _atom_site_fract_z
  _atom_site_occupancy
  Pr  Pr1       1.0  0.50000  0.00000  0.00000  1.0000
  Pr  Pr2       1.0  0.00000  0.50000  0.00000  1.0000
  Pr  Pr3       1.0  0.17900  0.17900  0.35900  1.0000
  Pr  Pr4       1.0  0.82100  0.82100  0.64100  1.0000
  Sb  Sb1       1.0  0.63800  0.63800  0.27600  1.0000
  Sb  Sb2       1.0  0.36200  0.36200  0.72400  1.0000
