data_image0
_chemical_formula_structural       AuRb2Se2
_chemical_formula_sum              "Au1 Rb2 Se2"
_cell_length_a       4.01565
_cell_length_b       6.459
_cell_length_c       6.95377
_cell_angle_alpha    78.1385
_cell_angle_beta     90.1038
_cell_angle_gamma    108.096

_space_group_name_H-M_alt    "P 1"
_space_group_IT_number       1

loop_
  _space_group_symop_operation_xyz
  'x, y, z'

loop_
  _atom_site_type_symbol
  _atom_site_label
  _atom_site_symmetry_multiplicity
  _atom_site_fract_x
  _atom_site_fract_y
  _atom_site_fract_z
  _atom_site_occupancy
  Au  Au1       1.0  0.50000  0.00000  0.00000  1.0000
  Rb  Rb1       1.0  0.16100  0.32000  0.28100  1.0000
  Rb  Rb2       1.0  0.83900  0.68000  0.71900  1.0000
  Se  Se1       1.0  0.89300  0.78500  0.20600  1.0000
  Se  Se2       1.0  0.10700  0.21500  0.79400  1.0000
