data_image0
_chemical_formula_structural       Ag4Nb4O4Se4
_chemical_formula_sum              "Ag4 Nb4 O4 Se4"
_cell_length_a       7.78769
_cell_length_b       5.90905
_cell_length_c       5.685
_cell_angle_alpha    90
_cell_angle_beta     84.1397
_cell_angle_gamma    90

_space_group_name_H-M_alt    "P 1"
_space_group_IT_number       1

loop_
  _space_group_symop_operation_xyz
  'x, y, z'

loop_
  _atom_site_type_symbol
  _atom_site_label
  _atom_site_symmetry_multiplicity
  _atom_site_fract_x
  _atom_site_fract_y
  _atom_site_fract_z
  _atom_site_occupancy
  Ag  Ag1       1.0  0.08660  0.68400  0.10000  1.0000
  Ag  Ag2       1.0  0.91300  0.18400  0.40000  1.0000
  Ag  Ag3       1.0  0.08660  0.81600  0.60000  1.0000
  Ag  Ag4       1.0  0.91300  0.31600  0.90000  1.0000
  Nb  Nb1       1.0  0.43300  0.02480  0.22200  1.0000
  Nb  Nb2       1.0  0.56700  0.52500  0.27800  1.0000
  Nb  Nb3       1.0  0.43300  0.47500  0.72200  1.0000
  Nb  Nb4       1.0  0.56700  0.97500  0.77800  1.0000
  O   O1        1.0  0.43800  0.71400  0.01630  1.0000
  O   O2        1.0  0.56200  0.21400  0.48400  1.0000
  O   O3        1.0  0.43800  0.78600  0.51600  1.0000
  O   O4        1.0  0.56200  0.28600  0.98400  1.0000
  Se  Se1       1.0  0.77000  0.88800  0.11300  1.0000
  Se  Se2       1.0  0.23000  0.38800  0.38700  1.0000
  Se  Se3       1.0  0.77000  0.61200  0.61300  1.0000
  Se  Se4       1.0  0.23000  0.11200  0.88700  1.0000
