data_image0
_chemical_formula_structural       Fe4Li4O4Se4
_chemical_formula_sum              "Fe4 Li4 O4 Se4"
_cell_length_a       6.07064
_cell_length_b       7.10403
_cell_length_c       5.47362
_cell_angle_alpha    90
_cell_angle_beta     93.8309
_cell_angle_gamma    90

_space_group_name_H-M_alt    "P 1"
_space_group_IT_number       1

loop_
  _space_group_symop_operation_xyz
  'x, y, z'

loop_
  _atom_site_type_symbol
  _atom_site_label
  _atom_site_symmetry_multiplicity
  _atom_site_fract_x
  _atom_site_fract_y
  _atom_site_fract_z
  _atom_site_occupancy
  Fe  Fe1       1.0  0.53500  0.61100  0.23900  1.0000
  Fe  Fe2       1.0  0.46500  0.11100  0.26100  1.0000
  Fe  Fe3       1.0  0.53500  0.88900  0.73900  1.0000
  Fe  Fe4       1.0  0.46500  0.38900  0.76100  1.0000
  Li  Li1       1.0  0.85800  0.31400  0.01400  1.0000
  Li  Li2       1.0  0.14200  0.81400  0.48600  1.0000
  Li  Li3       1.0  0.85800  0.18600  0.51400  1.0000
  Li  Li4       1.0  0.14200  0.68600  0.98600  1.0000
  O   O1        1.0  0.57700  0.34900  0.13600  1.0000
  O   O2        1.0  0.42300  0.84900  0.36400  1.0000
  O   O3        1.0  0.57700  0.15100  0.63600  1.0000
  O   O4        1.0  0.42300  0.65100  0.86400  1.0000
  Se  Se1       1.0  0.86500  0.93400  0.13500  1.0000
  Se  Se2       1.0  0.13500  0.43400  0.36500  1.0000
  Se  Se3       1.0  0.86500  0.56600  0.63500  1.0000
  Se  Se4       1.0  0.13500  0.06570  0.86500  1.0000
