data_image0
_chemical_formula_structural       BBrEu2N2
_chemical_formula_sum              "B1 Br1 Eu2 N2"
_cell_length_a       3.96311
_cell_length_b       3.96311
_cell_length_c       9.01869
_cell_angle_alpha    77.3076
_cell_angle_beta     102.692
_cell_angle_gamma    120

_space_group_name_H-M_alt    "P 1"
_space_group_IT_number       1

loop_
  _space_group_symop_operation_xyz
  'x, y, z'

loop_
  _atom_site_type_symbol
  _atom_site_label
  _atom_site_symmetry_multiplicity
  _atom_site_fract_x
  _atom_site_fract_y
  _atom_site_fract_z
  _atom_site_occupancy
  B   B1        1.0  0.50000  0.50000  0.50000  1.0000
  Br  Br1       1.0  0.00000  0.00000  0.00000  1.0000
  Eu  Eu1       1.0  0.75100  0.24900  0.25300  1.0000
  Eu  Eu2       1.0  0.24900  0.75100  0.74700  1.0000
  N   N1        1.0  0.44900  0.55100  0.34600  1.0000
  N   N2        1.0  0.55100  0.44900  0.65400  1.0000
