data_image0
_chemical_formula_structural       Ce16Mg4Ru4
_chemical_formula_sum              "Ce16 Mg4 Ru4"
_cell_length_a       10.1449
_cell_length_b       10.1449
_cell_length_c       10.1449
_cell_angle_alpha    120
_cell_angle_beta     90
_cell_angle_gamma    120

_space_group_name_H-M_alt    "P 1"
_space_group_IT_number       1

loop_
  _space_group_symop_operation_xyz
  'x, y, z'

loop_
  _atom_site_type_symbol
  _atom_site_label
  _atom_site_symmetry_multiplicity
  _atom_site_fract_x
  _atom_site_fract_y
  _atom_site_fract_z
  _atom_site_occupancy
  Ce  Ce1       1.0  0.34400  0.68900  0.03350  1.0000
  Ce  Ce2       1.0  0.56100  0.50000  0.06100  1.0000
  Ce  Ce3       1.0  0.93900  0.50000  0.06100  1.0000
  Ce  Ce4       1.0  0.56100  0.12200  0.06100  1.0000
  Ce  Ce5       1.0  0.18900  0.00000  0.18900  1.0000
  Ce  Ce6       1.0  0.81100  0.00000  0.18900  1.0000
  Ce  Ce7       1.0  0.18900  0.37700  0.18900  1.0000
  Ce  Ce8       1.0  0.56100  0.50000  0.43900  1.0000
  Ce  Ce9       1.0  0.93900  0.50000  0.43900  1.0000
  Ce  Ce10      1.0  0.93900  0.87800  0.43900  1.0000
  Ce  Ce11      1.0  0.96700  0.31100  0.65600  1.0000
  Ce  Ce12      1.0  0.34400  0.31100  0.65600  1.0000
  Ce  Ce13      1.0  0.34400  0.68900  0.65600  1.0000
  Ce  Ce14      1.0  0.18900  0.00000  0.81100  1.0000
  Ce  Ce15      1.0  0.81100  0.00000  0.81100  1.0000
  Ce  Ce16      1.0  0.81100  0.62300  0.81100  1.0000
  Mg  Mg1       1.0  0.57800  0.15700  0.42200  1.0000
  Mg  Mg2       1.0  0.26500  0.84300  0.42200  1.0000
  Mg  Mg3       1.0  0.57800  0.84300  0.42200  1.0000
  Mg  Mg4       1.0  0.57800  0.15700  0.73500  1.0000
  Ru  Ru1       1.0  0.13800  0.27600  0.41400  1.0000
  Ru  Ru2       1.0  0.13800  0.27600  0.86200  1.0000
  Ru  Ru3       1.0  0.13800  0.72400  0.86200  1.0000
  Ru  Ru4       1.0  0.58600  0.72400  0.86200  1.0000
