data_image0
_chemical_formula_structural       Cr4Cs4O4Se4
_chemical_formula_sum              "Cr4 Cs4 O4 Se4"
_cell_length_a       5.63568
_cell_length_b       5.58323
_cell_length_c       14.4599
_cell_angle_alpha    90
_cell_angle_beta     101.18
_cell_angle_gamma    90

_space_group_name_H-M_alt    "P 1"
_space_group_IT_number       1

loop_
  _space_group_symop_operation_xyz
  'x, y, z'

loop_
  _atom_site_type_symbol
  _atom_site_label
  _atom_site_symmetry_multiplicity
  _atom_site_fract_x
  _atom_site_fract_y
  _atom_site_fract_z
  _atom_site_occupancy
  Cr  Cr1       1.0  0.50400  0.35900  0.01910  1.0000
  Cr  Cr2       1.0  0.02730  0.86000  0.03550  1.0000
  Cr  Cr3       1.0  0.97300  0.36000  0.96400  1.0000
  Cr  Cr4       1.0  0.49600  0.85900  0.98100  1.0000
  Cs  Cs1       1.0  0.12400  0.36900  0.21100  1.0000
  Cs  Cs2       1.0  0.74000  0.35900  0.40100  1.0000
  Cs  Cs3       1.0  0.26000  0.85900  0.59900  1.0000
  Cs  Cs4       1.0  0.87600  0.86900  0.78900  1.0000
  O   O1        1.0  0.76000  0.11100  0.01140  1.0000
  O   O2        1.0  0.75900  0.60900  0.01160  1.0000
  O   O3        1.0  0.24100  0.10900  0.98800  1.0000
  O   O4        1.0  0.24000  0.61100  0.98900  1.0000
  Se  Se1       1.0  0.52600  0.86800  0.22400  1.0000
  Se  Se2       1.0  0.35000  0.86500  0.36500  1.0000
  Se  Se3       1.0  0.65000  0.36500  0.63500  1.0000
  Se  Se4       1.0  0.47400  0.36800  0.77600  1.0000
