data_image0
_chemical_formula_structural       Mn4Na4O4Se4
_chemical_formula_sum              "Mn4 Na4 O4 Se4"
_cell_length_a       6.65986
_cell_length_b       6.30426
_cell_length_c       6.86021
_cell_angle_alpha    90
_cell_angle_beta     102.135
_cell_angle_gamma    90

_space_group_name_H-M_alt    "P 1"
_space_group_IT_number       1

loop_
  _space_group_symop_operation_xyz
  'x, y, z'

loop_
  _atom_site_type_symbol
  _atom_site_label
  _atom_site_symmetry_multiplicity
  _atom_site_fract_x
  _atom_site_fract_y
  _atom_site_fract_z
  _atom_site_occupancy
  Mn  Mn1       1.0  0.47600  0.10700  0.22500  1.0000
  Mn  Mn2       1.0  0.52400  0.60700  0.27500  1.0000
  Mn  Mn3       1.0  0.47600  0.39300  0.72500  1.0000
  Mn  Mn4       1.0  0.52400  0.89300  0.77500  1.0000
  Na  Na1       1.0  0.87400  0.27100  0.00616  1.0000
  Na  Na2       1.0  0.12600  0.77100  0.49400  1.0000
  Na  Na3       1.0  0.87400  0.22900  0.50600  1.0000
  Na  Na4       1.0  0.12600  0.72900  0.99400  1.0000
  O   O1        1.0  0.64400  0.35000  0.20900  1.0000
  O   O2        1.0  0.35600  0.85000  0.29100  1.0000
  O   O3        1.0  0.64400  0.15000  0.70900  1.0000
  O   O4        1.0  0.35600  0.65000  0.79100  1.0000
  Se  Se1       1.0  0.76800  0.87000  0.16800  1.0000
  Se  Se2       1.0  0.23200  0.37000  0.33200  1.0000
  Se  Se3       1.0  0.76800  0.63000  0.66800  1.0000
  Se  Se4       1.0  0.23200  0.13000  0.83200  1.0000
