data_image0
_chemical_formula_structural       Fe4K4O4Se4
_chemical_formula_sum              "Fe4 K4 O4 Se4"
_cell_length_a       7.35203
_cell_length_b       7.24795
_cell_length_c       6.24355
_cell_angle_alpha    90
_cell_angle_beta     107.07
_cell_angle_gamma    90

_space_group_name_H-M_alt    "P 1"
_space_group_IT_number       1

loop_
  _space_group_symop_operation_xyz
  'x, y, z'

loop_
  _atom_site_type_symbol
  _atom_site_label
  _atom_site_symmetry_multiplicity
  _atom_site_fract_x
  _atom_site_fract_y
  _atom_site_fract_z
  _atom_site_occupancy
  Fe  Fe1       1.0  0.53100  0.58600  0.20700  1.0000
  Fe  Fe2       1.0  0.46900  0.08640  0.29300  1.0000
  Fe  Fe3       1.0  0.53100  0.91400  0.70700  1.0000
  Fe  Fe4       1.0  0.46900  0.41400  0.79300  1.0000
  K   K1        1.0  0.08990  0.75500  0.04530  1.0000
  K   K2        1.0  0.91000  0.25500  0.45500  1.0000
  K   K3        1.0  0.08990  0.74500  0.54500  1.0000
  K   K4        1.0  0.91000  0.24500  0.95500  1.0000
  O   O1        1.0  0.64900  0.39100  0.10000  1.0000
  O   O2        1.0  0.35100  0.89100  0.40000  1.0000
  O   O3        1.0  0.64900  0.10900  0.60000  1.0000
  O   O4        1.0  0.35100  0.60900  0.90000  1.0000
  Se  Se1       1.0  0.70900  0.89200  0.14200  1.0000
  Se  Se2       1.0  0.29100  0.39200  0.35800  1.0000
  Se  Se3       1.0  0.70900  0.60800  0.64200  1.0000
  Se  Se4       1.0  0.29100  0.10800  0.85800  1.0000
