data_image0
_chemical_formula_structural       Au4Sn4Zr3
_chemical_formula_sum              "Au4 Sn4 Zr3"
_cell_length_a       6.47377
_cell_length_b       6.47377
_cell_length_c       7.93104
_cell_angle_alpha    65.9127
_cell_angle_beta     65.9127
_cell_angle_gamma    90

_space_group_name_H-M_alt    "P 1"
_space_group_IT_number       1

loop_
  _space_group_symop_operation_xyz
  'x, y, z'

loop_
  _atom_site_type_symbol
  _atom_site_label
  _atom_site_symmetry_multiplicity
  _atom_site_fract_x
  _atom_site_fract_y
  _atom_site_fract_z
  _atom_site_occupancy
  Au  Au1       1.0  0.61700  0.13200  0.25200  1.0000
  Au  Au2       1.0  0.13200  0.61700  0.25200  1.0000
  Au  Au3       1.0  0.38300  0.38300  0.74800  1.0000
  Au  Au4       1.0  0.86800  0.86800  0.74800  1.0000
  Sn  Sn1       1.0  0.50000  0.00000  0.00000  1.0000
  Sn  Sn2       1.0  0.00000  0.50000  0.00000  1.0000
  Sn  Sn3       1.0  0.76300  0.76300  0.47400  1.0000
  Sn  Sn4       1.0  0.23700  0.23700  0.52600  1.0000
  Zr  Zr1       1.0  0.50000  0.50000  0.00000  1.0000
  Zr  Zr2       1.0  0.75000  0.25000  0.50000  1.0000
  Zr  Zr3       1.0  0.25000  0.75000  0.50000  1.0000
