data_image0
_chemical_formula_structural       As4Hf3Pd4
_chemical_formula_sum              "As4 Hf3 Pd4"
_cell_length_a       6.11338
_cell_length_b       6.11338
_cell_length_c       7.37352
_cell_angle_alpha    65.5091
_cell_angle_beta     65.5091
_cell_angle_gamma    90

_space_group_name_H-M_alt    "P 1"
_space_group_IT_number       1

loop_
  _space_group_symop_operation_xyz
  'x, y, z'

loop_
  _atom_site_type_symbol
  _atom_site_label
  _atom_site_symmetry_multiplicity
  _atom_site_fract_x
  _atom_site_fract_y
  _atom_site_fract_z
  _atom_site_occupancy
  As  As1       1.0  0.50000  0.00000  0.00000  1.0000
  As  As2       1.0  0.00000  0.50000  0.00000  1.0000
  As  As3       1.0  0.75200  0.75200  0.49600  1.0000
  As  As4       1.0  0.24800  0.24800  0.50400  1.0000
  Hf  Hf1       1.0  0.50000  0.50000  0.00000  1.0000
  Hf  Hf2       1.0  0.75000  0.25000  0.50000  1.0000
  Hf  Hf3       1.0  0.25000  0.75000  0.50000  1.0000
  Pd  Pd1       1.0  0.62500  0.12300  0.25200  1.0000
  Pd  Pd2       1.0  0.12300  0.62500  0.25200  1.0000
  Pd  Pd3       1.0  0.37500  0.37500  0.74800  1.0000
  Pd  Pd4       1.0  0.87700  0.87700  0.74800  1.0000
