data_image0
_chemical_formula_structural       Au4Sn4Ti3
_chemical_formula_sum              "Au4 Sn4 Ti3"
_cell_length_a       6.31568
_cell_length_b       6.31568
_cell_length_c       7.74483
_cell_angle_alpha    65.9373
_cell_angle_beta     65.9373
_cell_angle_gamma    90

_space_group_name_H-M_alt    "P 1"
_space_group_IT_number       1

loop_
  _space_group_symop_operation_xyz
  'x, y, z'

loop_
  _atom_site_type_symbol
  _atom_site_label
  _atom_site_symmetry_multiplicity
  _atom_site_fract_x
  _atom_site_fract_y
  _atom_site_fract_z
  _atom_site_occupancy
  Au  Au1       1.0  0.60600  0.13700  0.25600  1.0000
  Au  Au2       1.0  0.13700  0.60600  0.25600  1.0000
  Au  Au3       1.0  0.86300  0.86300  0.74400  1.0000
  Au  Au4       1.0  0.39400  0.39400  0.74400  1.0000
  Sn  Sn1       1.0  0.50000  0.00000  0.00000  1.0000
  Sn  Sn2       1.0  0.00000  0.50000  0.00000  1.0000
  Sn  Sn3       1.0  0.76800  0.76800  0.46400  1.0000
  Sn  Sn4       1.0  0.23200  0.23200  0.53600  1.0000
  Ti  Ti1       1.0  0.50000  0.50000  0.00000  1.0000
  Ti  Ti2       1.0  0.75000  0.25000  0.50000  1.0000
  Ti  Ti3       1.0  0.25000  0.75000  0.50000  1.0000
