data_image0
_chemical_formula_structural       Ag4Ge4Hf3
_chemical_formula_sum              "Ag4 Ge4 Hf3"
_cell_length_a       5.98678
_cell_length_b       5.98678
_cell_length_c       7.44663
_cell_angle_alpha    66.298
_cell_angle_beta     66.298
_cell_angle_gamma    90

_space_group_name_H-M_alt    "P 1"
_space_group_IT_number       1

loop_
  _space_group_symop_operation_xyz
  'x, y, z'

loop_
  _atom_site_type_symbol
  _atom_site_label
  _atom_site_symmetry_multiplicity
  _atom_site_fract_x
  _atom_site_fract_y
  _atom_site_fract_z
  _atom_site_occupancy
  Ag  Ag1       1.0  0.72900  0.07240  0.19900  1.0000
  Ag  Ag2       1.0  0.07240  0.72900  0.19900  1.0000
  Ag  Ag3       1.0  0.27100  0.27100  0.80100  1.0000
  Ag  Ag4       1.0  0.92800  0.92800  0.80100  1.0000
  Ge  Ge1       1.0  0.50000  0.00000  0.00000  1.0000
  Ge  Ge2       1.0  0.00000  0.50000  0.00000  1.0000
  Ge  Ge3       1.0  0.27600  0.27600  0.44900  1.0000
  Ge  Ge4       1.0  0.72400  0.72400  0.55100  1.0000
  Hf  Hf1       1.0  0.50000  0.50000  0.00000  1.0000
  Hf  Hf2       1.0  0.75000  0.25000  0.50000  1.0000
  Hf  Hf3       1.0  0.25000  0.75000  0.50000  1.0000
