data_image0
_chemical_formula_structural       As4Pd4Ti3
_chemical_formula_sum              "As4 Pd4 Ti3"
_cell_length_a       5.9648
_cell_length_b       5.9648
_cell_length_c       7.17044
_cell_angle_alpha    65.4221
_cell_angle_beta     65.4221
_cell_angle_gamma    90

_space_group_name_H-M_alt    "P 1"
_space_group_IT_number       1

loop_
  _space_group_symop_operation_xyz
  'x, y, z'

loop_
  _atom_site_type_symbol
  _atom_site_label
  _atom_site_symmetry_multiplicity
  _atom_site_fract_x
  _atom_site_fract_y
  _atom_site_fract_z
  _atom_site_occupancy
  As  As1       1.0  0.50000  0.00000  0.00000  1.0000
  As  As2       1.0  0.00000  0.50000  0.00000  1.0000
  As  As3       1.0  0.75600  0.75600  0.48900  1.0000
  As  As4       1.0  0.24400  0.24400  0.51100  1.0000
  Pd  Pd1       1.0  0.61600  0.12800  0.25500  1.0000
  Pd  Pd2       1.0  0.12800  0.61600  0.25500  1.0000
  Pd  Pd3       1.0  0.38400  0.38400  0.74500  1.0000
  Pd  Pd4       1.0  0.87200  0.87200  0.74500  1.0000
  Ti  Ti1       1.0  0.50000  0.50000  0.00000  1.0000
  Ti  Ti2       1.0  0.75000  0.25000  0.50000  1.0000
  Ti  Ti3       1.0  0.25000  0.75000  0.50000  1.0000
