data_image0
_chemical_formula_structural       Cu4Sn4Zr3
_chemical_formula_sum              "Cu4 Sn4 Zr3"
_cell_length_a       6.17866
_cell_length_b       6.17866
_cell_length_c       7.56509
_cell_angle_alpha    65.8978
_cell_angle_beta     65.8978
_cell_angle_gamma    90

_space_group_name_H-M_alt    "P 1"
_space_group_IT_number       1

loop_
  _space_group_symop_operation_xyz
  'x, y, z'

loop_
  _atom_site_type_symbol
  _atom_site_label
  _atom_site_symmetry_multiplicity
  _atom_site_fract_x
  _atom_site_fract_y
  _atom_site_fract_z
  _atom_site_occupancy
  Cu  Cu1       1.0  0.62700  0.12600  0.24700  1.0000
  Cu  Cu2       1.0  0.12600  0.62700  0.24700  1.0000
  Cu  Cu3       1.0  0.37300  0.37300  0.75300  1.0000
  Cu  Cu4       1.0  0.87400  0.87400  0.75300  1.0000
  Sn  Sn1       1.0  0.50000  0.00000  0.00000  1.0000
  Sn  Sn2       1.0  0.00000  0.50000  0.00000  1.0000
  Sn  Sn3       1.0  0.75600  0.75600  0.48700  1.0000
  Sn  Sn4       1.0  0.24400  0.24400  0.51300  1.0000
  Zr  Zr1       1.0  0.50000  0.50000  0.00000  1.0000
  Zr  Zr2       1.0  0.75000  0.25000  0.50000  1.0000
  Zr  Zr3       1.0  0.25000  0.75000  0.50000  1.0000
