data_image0
_chemical_formula_structural       As4Ni4Zr3
_chemical_formula_sum              "As4 Ni4 Zr3"
_cell_length_a       5.82716
_cell_length_b       5.82716
_cell_length_c       7.08908
_cell_angle_alpha    65.7326
_cell_angle_beta     65.7326
_cell_angle_gamma    90

_space_group_name_H-M_alt    "P 1"
_space_group_IT_number       1

loop_
  _space_group_symop_operation_xyz
  'x, y, z'

loop_
  _atom_site_type_symbol
  _atom_site_label
  _atom_site_symmetry_multiplicity
  _atom_site_fract_x
  _atom_site_fract_y
  _atom_site_fract_z
  _atom_site_occupancy
  As  As1       1.0  0.50000  0.00000  0.00000  1.0000
  As  As2       1.0  0.00000  0.50000  0.00000  1.0000
  As  As3       1.0  0.75600  0.75600  0.48800  1.0000
  As  As4       1.0  0.24400  0.24400  0.51200  1.0000
  Ni  Ni1       1.0  0.62900  0.12400  0.24700  1.0000
  Ni  Ni2       1.0  0.12400  0.62900  0.24700  1.0000
  Ni  Ni3       1.0  0.37100  0.37100  0.75300  1.0000
  Ni  Ni4       1.0  0.87600  0.87600  0.75300  1.0000
  Zr  Zr1       1.0  0.50000  0.50000  0.00000  1.0000
  Zr  Zr2       1.0  0.75000  0.25000  0.50000  1.0000
  Zr  Zr3       1.0  0.25000  0.75000  0.50000  1.0000
