data_image0
_chemical_formula_structural       Hf3Pd4Sb4
_chemical_formula_sum              "Hf3 Pd4 Sb4"
_cell_length_a       6.32073
_cell_length_b       6.32073
_cell_length_c       7.68566
_cell_angle_alpha    65.7196
_cell_angle_beta     65.7196
_cell_angle_gamma    90

_space_group_name_H-M_alt    "P 1"
_space_group_IT_number       1

loop_
  _space_group_symop_operation_xyz
  'x, y, z'

loop_
  _atom_site_type_symbol
  _atom_site_label
  _atom_site_symmetry_multiplicity
  _atom_site_fract_x
  _atom_site_fract_y
  _atom_site_fract_z
  _atom_site_occupancy
  Hf  Hf1       1.0  0.50000  0.50000  0.00000  1.0000
  Hf  Hf2       1.0  0.75000  0.25000  0.50000  1.0000
  Hf  Hf3       1.0  0.25000  0.75000  0.50000  1.0000
  Pd  Pd1       1.0  0.61200  0.13100  0.25700  1.0000
  Pd  Pd2       1.0  0.13100  0.61200  0.25700  1.0000
  Pd  Pd3       1.0  0.38800  0.38800  0.74300  1.0000
  Pd  Pd4       1.0  0.86900  0.86900  0.74300  1.0000
  Sb  Sb1       1.0  0.50000  0.00000  0.00000  1.0000
  Sb  Sb2       1.0  0.00000  0.50000  0.00000  1.0000
  Sb  Sb3       1.0  0.76100  0.76100  0.47800  1.0000
  Sb  Sb4       1.0  0.23900  0.23900  0.52200  1.0000
