data_image0
_chemical_formula_structural       Co4P4
_chemical_formula_sum              "Co4 P4"
_cell_length_a       5.04459
_cell_length_b       3.2582
_cell_length_c       5.54402
_cell_angle_alpha    90
_cell_angle_beta     90
_cell_angle_gamma    90

_space_group_name_H-M_alt    "P 1"
_space_group_IT_number       1

loop_
  _space_group_symop_operation_xyz
  'x, y, z'

loop_
  _atom_site_type_symbol
  _atom_site_label
  _atom_site_symmetry_multiplicity
  _atom_site_fract_x
  _atom_site_fract_y
  _atom_site_fract_z
  _atom_site_occupancy
  Co  Co1       1.0  0.00056  0.25000  0.19700  1.0000
  Co  Co2       1.0  0.50100  0.25000  0.30300  1.0000
  Co  Co3       1.0  0.49900  0.75000  0.69700  1.0000
  Co  Co4       1.0  0.99900  0.75000  0.80300  1.0000
  P   P1        1.0  0.30900  0.75000  0.08160  1.0000
  P   P2        1.0  0.80900  0.75000  0.41800  1.0000
  P   P3        1.0  0.19100  0.25000  0.58200  1.0000
  P   P4        1.0  0.69100  0.25000  0.91800  1.0000
