data_image0
_chemical_formula_structural       Cu4Hf3Pb4
_chemical_formula_sum              "Cu4 Hf3 Pb4"
_cell_length_a       6.24728
_cell_length_b       6.24728
_cell_length_c       7.65605
_cell_angle_alpha    65.921
_cell_angle_beta     65.921
_cell_angle_gamma    90

_space_group_name_H-M_alt    "P 1"
_space_group_IT_number       1

loop_
  _space_group_symop_operation_xyz
  'x, y, z'

loop_
  _atom_site_type_symbol
  _atom_site_label
  _atom_site_symmetry_multiplicity
  _atom_site_fract_x
  _atom_site_fract_y
  _atom_site_fract_z
  _atom_site_occupancy
  Cu  Cu1       1.0  0.61500  0.13300  0.25200  1.0000
  Cu  Cu2       1.0  0.13300  0.61500  0.25200  1.0000
  Cu  Cu3       1.0  0.38500  0.38500  0.74800  1.0000
  Cu  Cu4       1.0  0.86700  0.86700  0.74800  1.0000
  Hf  Hf1       1.0  0.50000  0.50000  0.00000  1.0000
  Hf  Hf2       1.0  0.75000  0.25000  0.50000  1.0000
  Hf  Hf3       1.0  0.25000  0.75000  0.50000  1.0000
  Pb  Pb1       1.0  0.50000  0.00000  0.00000  1.0000
  Pb  Pb2       1.0  0.00000  0.50000  0.00000  1.0000
  Pb  Pb3       1.0  0.76500  0.76500  0.47100  1.0000
  Pb  Pb4       1.0  0.23500  0.23500  0.52900  1.0000
