data_image0
_chemical_formula_structural       Eu2Ni2Si4
_chemical_formula_sum              "Eu2 Ni2 Si4"
_cell_length_a       3.96007
_cell_length_b       4.14052
_cell_length_c       8.64936
_cell_angle_alpha    76.1516
_cell_angle_beta     90
_cell_angle_gamma    90

_space_group_name_H-M_alt    "P 1"
_space_group_IT_number       1

loop_
  _space_group_symop_operation_xyz
  'x, y, z'

loop_
  _atom_site_type_symbol
  _atom_site_label
  _atom_site_symmetry_multiplicity
  _atom_site_fract_x
  _atom_site_fract_y
  _atom_site_fract_z
  _atom_site_occupancy
  Eu  Eu1       1.0  0.25000  0.89100  0.21900  1.0000
  Eu  Eu2       1.0  0.75000  0.10900  0.78100  1.0000
  Ni  Ni1       1.0  0.75000  0.32200  0.35600  1.0000
  Ni  Ni2       1.0  0.25000  0.67800  0.64400  1.0000
  Si  Si1       1.0  0.75000  0.46000  0.08070  1.0000
  Si  Si2       1.0  0.75000  0.75000  0.49900  1.0000
  Si  Si3       1.0  0.25000  0.25000  0.50100  1.0000
  Si  Si4       1.0  0.25000  0.54000  0.91900  1.0000
