data_image0
_chemical_formula_structural       Hf3Ni4Sb4
_chemical_formula_sum              "Hf3 Ni4 Sb4"
_cell_length_a       6.07344
_cell_length_b       6.07344
_cell_length_c       7.38026
_cell_angle_alpha    65.7031
_cell_angle_beta     65.7031
_cell_angle_gamma    90

_space_group_name_H-M_alt    "P 1"
_space_group_IT_number       1

loop_
  _space_group_symop_operation_xyz
  'x, y, z'

loop_
  _atom_site_type_symbol
  _atom_site_label
  _atom_site_symmetry_multiplicity
  _atom_site_fract_x
  _atom_site_fract_y
  _atom_site_fract_z
  _atom_site_occupancy
  Hf  Hf1       1.0  0.50000  0.50000  0.00000  1.0000
  Hf  Hf2       1.0  0.75000  0.25000  0.50000  1.0000
  Hf  Hf3       1.0  0.25000  0.75000  0.50000  1.0000
  Ni  Ni1       1.0  0.61000  0.13200  0.25800  1.0000
  Ni  Ni2       1.0  0.13200  0.61000  0.25800  1.0000
  Ni  Ni3       1.0  0.39000  0.39000  0.74200  1.0000
  Ni  Ni4       1.0  0.86800  0.86800  0.74200  1.0000
  Sb  Sb1       1.0  0.50000  0.00000  0.00000  1.0000
  Sb  Sb2       1.0  0.00000  0.50000  0.00000  1.0000
  Sb  Sb3       1.0  0.76300  0.76300  0.47500  1.0000
  Sb  Sb4       1.0  0.23700  0.23700  0.52500  1.0000
