data_image0
_chemical_formula_structural       Bi4Pt4Zr3
_chemical_formula_sum              "Bi4 Pt4 Zr3"
_cell_length_a       6.55327
_cell_length_b       6.55327
_cell_length_c       7.90859
_cell_angle_alpha    65.5239
_cell_angle_beta     65.5239
_cell_angle_gamma    90

_space_group_name_H-M_alt    "P 1"
_space_group_IT_number       1

loop_
  _space_group_symop_operation_xyz
  'x, y, z'

loop_
  _atom_site_type_symbol
  _atom_site_label
  _atom_site_symmetry_multiplicity
  _atom_site_fract_x
  _atom_site_fract_y
  _atom_site_fract_z
  _atom_site_occupancy
  Bi  Bi1       1.0  0.50000  0.00000  0.00000  1.0000
  Bi  Bi2       1.0  0.00000  0.50000  0.00000  1.0000
  Bi  Bi3       1.0  0.77400  0.77400  0.45300  1.0000
  Bi  Bi4       1.0  0.22600  0.22600  0.54700  1.0000
  Pt  Pt1       1.0  0.59800  0.13900  0.26300  1.0000
  Pt  Pt2       1.0  0.13900  0.59800  0.26300  1.0000
  Pt  Pt3       1.0  0.40200  0.40200  0.73700  1.0000
  Pt  Pt4       1.0  0.86100  0.86100  0.73700  1.0000
  Zr  Zr1       1.0  0.50000  0.50000  0.00000  1.0000
  Zr  Zr2       1.0  0.75000  0.25000  0.50000  1.0000
  Zr  Zr3       1.0  0.25000  0.75000  0.50000  1.0000
