data_image0
_chemical_formula_structural       Ag4Sn4Ti3
_chemical_formula_sum              "Ag4 Sn4 Ti3"
_cell_length_a       6.28003
_cell_length_b       6.28003
_cell_length_c       7.71343
_cell_angle_alpha    65.9782
_cell_angle_beta     65.9782
_cell_angle_gamma    90

_space_group_name_H-M_alt    "P 1"
_space_group_IT_number       1

loop_
  _space_group_symop_operation_xyz
  'x, y, z'

loop_
  _atom_site_type_symbol
  _atom_site_label
  _atom_site_symmetry_multiplicity
  _atom_site_fract_x
  _atom_site_fract_y
  _atom_site_fract_z
  _atom_site_occupancy
  Ag  Ag1       1.0  0.62600  0.12500  0.24900  1.0000
  Ag  Ag2       1.0  0.12500  0.62600  0.24900  1.0000
  Ag  Ag3       1.0  0.37400  0.37400  0.75100  1.0000
  Ag  Ag4       1.0  0.87500  0.87500  0.75100  1.0000
  Sn  Sn1       1.0  0.50000  0.00000  0.00000  1.0000
  Sn  Sn2       1.0  0.00000  0.50000  0.00000  1.0000
  Sn  Sn3       1.0  0.75100  0.75100  0.49800  1.0000
  Sn  Sn4       1.0  0.24900  0.24900  0.50200  1.0000
  Ti  Ti1       1.0  0.50000  0.50000  0.00000  1.0000
  Ti  Ti2       1.0  0.75000  0.25000  0.50000  1.0000
  Ti  Ti3       1.0  0.25000  0.75000  0.50000  1.0000
