data_image0
_chemical_formula_structural       Cl3CsLi2
_chemical_formula_sum              "Cl3 Cs1 Li2"
_cell_length_a       7.08263
_cell_length_b       5.19605
_cell_length_c       4.52567
_cell_angle_alpha    90
_cell_angle_beta     108.632
_cell_angle_gamma    111.519

_space_group_name_H-M_alt    "P 1"
_space_group_IT_number       1

loop_
  _space_group_symop_operation_xyz
  'x, y, z'

loop_
  _atom_site_type_symbol
  _atom_site_label
  _atom_site_symmetry_multiplicity
  _atom_site_fract_x
  _atom_site_fract_y
  _atom_site_fract_z
  _atom_site_occupancy
  Cl  Cl1       1.0  0.00000  0.00000  0.00000  1.0000
  Cl  Cl2       1.0  0.46000  0.73000  0.23000  1.0000
  Cl  Cl3       1.0  0.54000  0.27000  0.77000  1.0000
  Cs  Cs1       1.0  0.00000  0.50000  0.50000  1.0000
  Li  Li1       1.0  0.38400  0.19200  0.19200  1.0000
  Li  Li2       1.0  0.61600  0.80800  0.80800  1.0000
