data_image0
_chemical_formula_structural       Bi4Pd4Ti3
_chemical_formula_sum              "Bi4 Pd4 Ti3"
_cell_length_a       6.80835
_cell_length_b       4.44274
_cell_length_c       7.73472
_cell_angle_alpha    90
_cell_angle_beta     90.4973
_cell_angle_gamma    90

_space_group_name_H-M_alt    "P 1"
_space_group_IT_number       1

loop_
  _space_group_symop_operation_xyz
  'x, y, z'

loop_
  _atom_site_type_symbol
  _atom_site_label
  _atom_site_symmetry_multiplicity
  _atom_site_fract_x
  _atom_site_fract_y
  _atom_site_fract_z
  _atom_site_occupancy
  Bi  Bi1       1.0  0.16800  0.25000  0.05210  1.0000
  Bi  Bi2       1.0  0.77000  0.25000  0.39200  1.0000
  Bi  Bi3       1.0  0.20600  0.75000  0.59500  1.0000
  Bi  Bi4       1.0  0.78800  0.75000  0.94100  1.0000
  Pd  Pd1       1.0  0.57600  0.25000  0.06900  1.0000
  Pd  Pd2       1.0  0.33100  0.25000  0.39700  1.0000
  Pd  Pd3       1.0  0.75800  0.75000  0.59400  1.0000
  Pd  Pd4       1.0  0.37700  0.75000  0.91600  1.0000
  Ti  Ti1       1.0  0.47300  0.75000  0.26200  1.0000
  Ti  Ti2       1.0  0.02510  0.75000  0.26600  1.0000
  Ti  Ti3       1.0  0.52600  0.25000  0.71500  1.0000
