data_image0
_chemical_formula_structural       Bi4Pd4Zr3
_chemical_formula_sum              "Bi4 Pd4 Zr3"
_cell_length_a       6.49181
_cell_length_b       6.49181
_cell_length_c       7.89185
_cell_angle_alpha    65.7136
_cell_angle_beta     65.7136
_cell_angle_gamma    90

_space_group_name_H-M_alt    "P 1"
_space_group_IT_number       1

loop_
  _space_group_symop_operation_xyz
  'x, y, z'

loop_
  _atom_site_type_symbol
  _atom_site_label
  _atom_site_symmetry_multiplicity
  _atom_site_fract_x
  _atom_site_fract_y
  _atom_site_fract_z
  _atom_site_occupancy
  Bi  Bi1       1.0  0.50000  0.00000  0.00000  1.0000
  Bi  Bi2       1.0  0.00000  0.50000  0.00000  1.0000
  Bi  Bi3       1.0  0.76700  0.76700  0.46600  1.0000
  Bi  Bi4       1.0  0.23300  0.23300  0.53400  1.0000
  Pd  Pd1       1.0  0.60500  0.13600  0.25900  1.0000
  Pd  Pd2       1.0  0.13600  0.60500  0.25900  1.0000
  Pd  Pd3       1.0  0.39500  0.39500  0.74100  1.0000
  Pd  Pd4       1.0  0.86400  0.86400  0.74100  1.0000
  Zr  Zr1       1.0  0.50000  0.50000  0.00000  1.0000
  Zr  Zr2       1.0  0.75000  0.25000  0.50000  1.0000
  Zr  Zr3       1.0  0.25000  0.75000  0.50000  1.0000
