data_image0
_chemical_formula_structural       Cu4Pb4Ti4
_chemical_formula_sum              "Cu4 Pb4 Ti4"
_cell_length_a       6.11137
_cell_length_b       4.45578
_cell_length_c       7.81629
_cell_angle_alpha    90
_cell_angle_beta     90
_cell_angle_gamma    90

_space_group_name_H-M_alt    "P 1"
_space_group_IT_number       1

loop_
  _space_group_symop_operation_xyz
  'x, y, z'

loop_
  _atom_site_type_symbol
  _atom_site_label
  _atom_site_symmetry_multiplicity
  _atom_site_fract_x
  _atom_site_fract_y
  _atom_site_fract_z
  _atom_site_occupancy
  Cu  Cu1       1.0  0.72100  0.25000  0.08470  1.0000
  Cu  Cu2       1.0  0.22100  0.25000  0.41500  1.0000
  Cu  Cu3       1.0  0.77900  0.75000  0.58500  1.0000
  Cu  Cu4       1.0  0.27900  0.75000  0.91500  1.0000
  Pb  Pb1       1.0  0.24600  0.25000  0.08350  1.0000
  Pb  Pb2       1.0  0.74600  0.25000  0.41600  1.0000
  Pb  Pb3       1.0  0.25400  0.75000  0.58400  1.0000
  Pb  Pb4       1.0  0.75400  0.75000  0.91600  1.0000
  Ti  Ti1       1.0  0.99800  0.75000  0.24600  1.0000
  Ti  Ti2       1.0  0.49800  0.75000  0.25400  1.0000
  Ti  Ti3       1.0  0.50200  0.25000  0.74600  1.0000
  Ti  Ti4       1.0  0.00216  0.25000  0.75400  1.0000
