data_image0
_chemical_formula_structural       Ag4Pb4Zr3
_chemical_formula_sum              "Ag4 Pb4 Zr3"
_cell_length_a       6.53333
_cell_length_b       6.53333
_cell_length_c       8.05064
_cell_angle_alpha    66.0609
_cell_angle_beta     66.0609
_cell_angle_gamma    90

_space_group_name_H-M_alt    "P 1"
_space_group_IT_number       1

loop_
  _space_group_symop_operation_xyz
  'x, y, z'

loop_
  _atom_site_type_symbol
  _atom_site_label
  _atom_site_symmetry_multiplicity
  _atom_site_fract_x
  _atom_site_fract_y
  _atom_site_fract_z
  _atom_site_occupancy
  Ag  Ag1       1.0  0.63100  0.12400  0.24500  1.0000
  Ag  Ag2       1.0  0.12400  0.63100  0.24500  1.0000
  Ag  Ag3       1.0  0.87600  0.87600  0.75500  1.0000
  Ag  Ag4       1.0  0.36900  0.36900  0.75500  1.0000
  Pb  Pb1       1.0  0.50000  0.00000  0.00000  1.0000
  Pb  Pb2       1.0  0.00000  0.50000  0.00000  1.0000
  Pb  Pb3       1.0  0.75200  0.75200  0.49700  1.0000
  Pb  Pb4       1.0  0.24800  0.24800  0.50300  1.0000
  Zr  Zr1       1.0  0.50000  0.50000  0.00000  1.0000
  Zr  Zr2       1.0  0.75000  0.25000  0.50000  1.0000
  Zr  Zr3       1.0  0.25000  0.75000  0.50000  1.0000
