data_image0
_chemical_formula_structural       Bi4Pd4Ti4
_chemical_formula_sum              "Bi4 Pd4 Ti4"
_cell_length_a       6.32786
_cell_length_b       4.50638
_cell_length_c       8.14589
_cell_angle_alpha    90
_cell_angle_beta     90
_cell_angle_gamma    90

_space_group_name_H-M_alt    "P 1"
_space_group_IT_number       1

loop_
  _space_group_symop_operation_xyz
  'x, y, z'

loop_
  _atom_site_type_symbol
  _atom_site_label
  _atom_site_symmetry_multiplicity
  _atom_site_fract_x
  _atom_site_fract_y
  _atom_site_fract_z
  _atom_site_occupancy
  Bi  Bi1       1.0  0.21000  0.25000  0.09690  1.0000
  Bi  Bi2       1.0  0.71000  0.25000  0.40300  1.0000
  Bi  Bi3       1.0  0.29000  0.75000  0.59700  1.0000
  Bi  Bi4       1.0  0.79000  0.75000  0.90300  1.0000
  Pd  Pd1       1.0  0.65100  0.25000  0.06780  1.0000
  Pd  Pd2       1.0  0.15100  0.25000  0.43200  1.0000
  Pd  Pd3       1.0  0.84900  0.75000  0.56800  1.0000
  Pd  Pd4       1.0  0.34900  0.75000  0.93200  1.0000
  Ti  Ti1       1.0  0.96900  0.75000  0.23400  1.0000
  Ti  Ti2       1.0  0.46900  0.75000  0.26600  1.0000
  Ti  Ti3       1.0  0.53100  0.25000  0.73400  1.0000
  Ti  Ti4       1.0  0.03100  0.25000  0.76600  1.0000
