data_image0
_chemical_formula_structural       Fe2Nd2Si4
_chemical_formula_sum              "Fe2 Nd2 Si4"
_cell_length_a       4.01503
_cell_length_b       4.09867
_cell_length_c       8.683
_cell_angle_alpha    76.3484
_cell_angle_beta     90
_cell_angle_gamma    90

_space_group_name_H-M_alt    "P 1"
_space_group_IT_number       1

loop_
  _space_group_symop_operation_xyz
  'x, y, z'

loop_
  _atom_site_type_symbol
  _atom_site_label
  _atom_site_symmetry_multiplicity
  _atom_site_fract_x
  _atom_site_fract_y
  _atom_site_fract_z
  _atom_site_occupancy
  Fe  Fe1       1.0  0.25000  0.25100  0.49900  1.0000
  Fe  Fe2       1.0  0.75000  0.74900  0.50100  1.0000
  Nd  Nd1       1.0  0.25000  0.89300  0.21400  1.0000
  Nd  Nd2       1.0  0.75000  0.10700  0.78600  1.0000
  Si  Si1       1.0  0.75000  0.46200  0.07640  1.0000
  Si  Si2       1.0  0.75000  0.31100  0.37700  1.0000
  Si  Si3       1.0  0.25000  0.68900  0.62300  1.0000
  Si  Si4       1.0  0.25000  0.53800  0.92400  1.0000
