data_image0
_chemical_formula_structural       Pb4Pd4Ta4
_chemical_formula_sum              "Pb4 Pd4 Ta4"
_cell_length_a       5.91839
_cell_length_b       4.68743
_cell_length_c       8.23246
_cell_angle_alpha    90
_cell_angle_beta     90
_cell_angle_gamma    90

_space_group_name_H-M_alt    "P 1"
_space_group_IT_number       1

loop_
  _space_group_symop_operation_xyz
  'x, y, z'

loop_
  _atom_site_type_symbol
  _atom_site_label
  _atom_site_symmetry_multiplicity
  _atom_site_fract_x
  _atom_site_fract_y
  _atom_site_fract_z
  _atom_site_occupancy
  Pb  Pb1       1.0  0.22100  0.25000  0.08280  1.0000
  Pb  Pb2       1.0  0.72100  0.25000  0.41700  1.0000
  Pb  Pb3       1.0  0.27900  0.75000  0.58300  1.0000
  Pb  Pb4       1.0  0.77900  0.75000  0.91700  1.0000
  Pd  Pd1       1.0  0.70400  0.25000  0.08350  1.0000
  Pd  Pd2       1.0  0.20400  0.25000  0.41700  1.0000
  Pd  Pd3       1.0  0.79600  0.75000  0.58300  1.0000
  Pd  Pd4       1.0  0.29600  0.75000  0.91700  1.0000
  Ta  Ta1       1.0  0.48800  0.75000  0.24800  1.0000
  Ta  Ta2       1.0  0.98800  0.75000  0.25200  1.0000
  Ta  Ta3       1.0  0.01240  0.25000  0.74800  1.0000
  Ta  Ta4       1.0  0.51200  0.25000  0.75200  1.0000
