data_image0
_chemical_formula_structural       F2O2U
_chemical_formula_sum              "F2 O2 U1"
_cell_length_a       5.41287
_cell_length_b       5.41287
_cell_length_c       5.41287
_cell_angle_alpha    45.6629
_cell_angle_beta     45.6629
_cell_angle_gamma    45.6629

_space_group_name_H-M_alt    "P 1"
_space_group_IT_number       1

loop_
  _space_group_symop_operation_xyz
  'x, y, z'

loop_
  _atom_site_type_symbol
  _atom_site_label
  _atom_site_symmetry_multiplicity
  _atom_site_fract_x
  _atom_site_fract_y
  _atom_site_fract_z
  _atom_site_occupancy
  F   F1        1.0  0.33000  0.33000  0.33000  1.0000
  F   F2        1.0  0.67000  0.67000  0.67000  1.0000
  O   O1        1.0  0.12100  0.12100  0.12100  1.0000
  O   O2        1.0  0.87900  0.87900  0.87900  1.0000
  U   U1        1.0  0.00000  0.00000  0.00000  1.0000
