data_image0
_chemical_formula_structural       Li8O4S4
_chemical_formula_sum              "Li8 O4 S4"
_cell_length_a       4.24739
_cell_length_b       5.62931
_cell_length_c       9.87367
_cell_angle_alpha    90
_cell_angle_beta     111.708
_cell_angle_gamma    90

_space_group_name_H-M_alt    "P 1"
_space_group_IT_number       1

loop_
  _space_group_symop_operation_xyz
  'x, y, z'

loop_
  _atom_site_type_symbol
  _atom_site_label
  _atom_site_symmetry_multiplicity
  _atom_site_fract_x
  _atom_site_fract_y
  _atom_site_fract_z
  _atom_site_occupancy
  Li  Li1       1.0  0.47900  0.78900  0.02840  1.0000
  Li  Li2       1.0  0.15600  0.29100  0.13000  1.0000
  Li  Li3       1.0  0.07480  0.81100  0.18000  1.0000
  Li  Li4       1.0  0.16500  0.00038  0.49100  1.0000
  Li  Li5       1.0  0.83500  0.50000  0.50900  1.0000
  Li  Li6       1.0  0.92500  0.31100  0.82000  1.0000
  Li  Li7       1.0  0.84400  0.79100  0.87000  1.0000
  Li  Li8       1.0  0.52100  0.28900  0.97200  1.0000
  O   O1        1.0  0.87300  0.03810  0.01920  1.0000
  O   O2        1.0  0.85200  0.54800  0.04620  1.0000
  O   O3        1.0  0.14800  0.04800  0.95400  1.0000
  O   O4        1.0  0.12700  0.53800  0.98100  1.0000
  S   S1        1.0  0.67500  0.79300  0.30500  1.0000
  S   S2        1.0  0.52900  0.13100  0.36000  1.0000
  S   S3        1.0  0.47100  0.63100  0.64000  1.0000
  S   S4        1.0  0.32500  0.29300  0.69500  1.0000
