data_image0
_chemical_formula_structural       CdNa4P2
_chemical_formula_sum              "Cd1 Na4 P2"
_cell_length_a       4.98769
_cell_length_b       4.98769
_cell_length_c       9.03309
_cell_angle_alpha    73.9737
_cell_angle_beta     106.026
_cell_angle_gamma    120

_space_group_name_H-M_alt    "P 1"
_space_group_IT_number       1

loop_
  _space_group_symop_operation_xyz
  'x, y, z'

loop_
  _atom_site_type_symbol
  _atom_site_label
  _atom_site_symmetry_multiplicity
  _atom_site_fract_x
  _atom_site_fract_y
  _atom_site_fract_z
  _atom_site_occupancy
  Cd  Cd1       1.0  0.00000  0.00000  0.00000  1.0000
  Na  Na1       1.0  0.40500  0.59500  0.21400  1.0000
  Na  Na2       1.0  0.79300  0.20700  0.37900  1.0000
  Na  Na3       1.0  0.20700  0.79300  0.62100  1.0000
  Na  Na4       1.0  0.59500  0.40500  0.78600  1.0000
  P   P1        1.0  0.09400  0.90600  0.28200  1.0000
  P   P2        1.0  0.90600  0.09400  0.71800  1.0000
