data_image0
_chemical_formula_structural       Er2Hg2O2S2
_chemical_formula_sum              "Er2 Hg2 O2 S2"
_cell_length_a       3.90286
_cell_length_b       3.90286
_cell_length_c       9.97193
_cell_angle_alpha    90
_cell_angle_beta     90
_cell_angle_gamma    90

_space_group_name_H-M_alt    "P 1"
_space_group_IT_number       1

loop_
  _space_group_symop_operation_xyz
  'x, y, z'

loop_
  _atom_site_type_symbol
  _atom_site_label
  _atom_site_symmetry_multiplicity
  _atom_site_fract_x
  _atom_site_fract_y
  _atom_site_fract_z
  _atom_site_occupancy
  Er  Er1       1.0  0.25000  0.25000  0.10800  1.0000
  Er  Er2       1.0  0.75000  0.75000  0.89200  1.0000
  Hg  Hg1       1.0  0.75000  0.25000  0.50000  1.0000
  Hg  Hg2       1.0  0.25000  0.75000  0.50000  1.0000
  O   O1        1.0  0.75000  0.25000  0.00000  1.0000
  O   O2        1.0  0.25000  0.75000  0.00000  1.0000
  S   S1        1.0  0.75000  0.75000  0.25800  1.0000
  S   S2        1.0  0.25000  0.25000  0.74200  1.0000
