data_image0
_chemical_formula_structural       Na8O4S4
_chemical_formula_sum              "Na8 O4 S4"
_cell_length_a       4.76216
_cell_length_b       6.37849
_cell_length_c       10.0291
_cell_angle_alpha    90
_cell_angle_beta     103.298
_cell_angle_gamma    90

_space_group_name_H-M_alt    "P 1"
_space_group_IT_number       1

loop_
  _space_group_symop_operation_xyz
  'x, y, z'

loop_
  _atom_site_type_symbol
  _atom_site_label
  _atom_site_symmetry_multiplicity
  _atom_site_fract_x
  _atom_site_fract_y
  _atom_site_fract_z
  _atom_site_occupancy
  Na  Na1       1.0  0.49600  0.77200  0.00047  1.0000
  Na  Na2       1.0  0.06740  0.78100  0.16000  1.0000
  Na  Na3       1.0  0.08780  0.26300  0.16100  1.0000
  Na  Na4       1.0  0.24400  0.01510  0.47800  1.0000
  Na  Na5       1.0  0.75600  0.51500  0.52200  1.0000
  Na  Na6       1.0  0.91200  0.76300  0.83900  1.0000
  Na  Na7       1.0  0.93300  0.28100  0.84000  1.0000
  Na  Na8       1.0  0.50400  0.27200  1.00000  1.0000
  O   O1        1.0  0.84600  0.52200  0.01070  1.0000
  O   O2        1.0  0.16700  0.52200  0.01310  1.0000
  O   O3        1.0  0.83300  0.02190  0.98700  1.0000
  O   O4        1.0  0.15400  0.02210  0.98900  1.0000
  S   S1        1.0  0.63900  0.84500  0.31900  1.0000
  S   S2        1.0  0.67900  0.18000  0.32200  1.0000
  S   S3        1.0  0.32100  0.68000  0.67800  1.0000
  S   S4        1.0  0.36100  0.34500  0.68100  1.0000
