data_image0
_chemical_formula_structural       CaCs2F4
_chemical_formula_sum              "Ca1 Cs2 F4"
_cell_length_a       4.39796
_cell_length_b       4.39796
_cell_length_c       7.90039
_cell_angle_alpha    106.161
_cell_angle_beta     106.161
_cell_angle_gamma    90

_space_group_name_H-M_alt    "P 1"
_space_group_IT_number       1

loop_
  _space_group_symop_operation_xyz
  'x, y, z'

loop_
  _atom_site_type_symbol
  _atom_site_label
  _atom_site_symmetry_multiplicity
  _atom_site_fract_x
  _atom_site_fract_y
  _atom_site_fract_z
  _atom_site_occupancy
  Ca  Ca1       1.0  0.00000  0.00000  0.00000  1.0000
  Cs  Cs1       1.0  0.65100  0.65100  0.30200  1.0000
  Cs  Cs2       1.0  0.34900  0.34900  0.69800  1.0000
  F   F1        1.0  0.50000  0.00000  0.00000  1.0000
  F   F2        1.0  0.00000  0.50000  0.00000  1.0000
  F   F3        1.0  0.15400  0.15400  0.30900  1.0000
  F   F4        1.0  0.84600  0.84600  0.69100  1.0000
