data_image0
_chemical_formula_structural       Bi4Hf3Pt4
_chemical_formula_sum              "Bi4 Hf3 Pt4"
_cell_length_a       6.53476
_cell_length_b       6.53476
_cell_length_c       7.8653
_cell_angle_alpha    65.4544
_cell_angle_beta     65.4544
_cell_angle_gamma    90

_space_group_name_H-M_alt    "P 1"
_space_group_IT_number       1

loop_
  _space_group_symop_operation_xyz
  'x, y, z'

loop_
  _atom_site_type_symbol
  _atom_site_label
  _atom_site_symmetry_multiplicity
  _atom_site_fract_x
  _atom_site_fract_y
  _atom_site_fract_z
  _atom_site_occupancy
  Bi  Bi1       1.0  0.50000  0.00000  0.00000  1.0000
  Bi  Bi2       1.0  0.00000  0.50000  0.00000  1.0000
  Bi  Bi3       1.0  0.77600  0.77600  0.44800  1.0000
  Bi  Bi4       1.0  0.22400  0.22400  0.55200  1.0000
  Hf  Hf1       1.0  0.50000  0.50000  0.00000  1.0000
  Hf  Hf2       1.0  0.75000  0.25000  0.50000  1.0000
  Hf  Hf3       1.0  0.25000  0.75000  0.50000  1.0000
  Pt  Pt1       1.0  0.59500  0.14000  0.26500  1.0000
  Pt  Pt2       1.0  0.14000  0.59500  0.26500  1.0000
  Pt  Pt3       1.0  0.40500  0.40500  0.73500  1.0000
  Pt  Pt4       1.0  0.86000  0.86000  0.73500  1.0000
