data_image0
_chemical_formula_structural       K8O4S4
_chemical_formula_sum              "K8 O4 S4"
_cell_length_a       5.3899
_cell_length_b       6.97196
_cell_length_c       11.0751
_cell_angle_alpha    90
_cell_angle_beta     76.6884
_cell_angle_gamma    90

_space_group_name_H-M_alt    "P 1"
_space_group_IT_number       1

loop_
  _space_group_symop_operation_xyz
  'x, y, z'

loop_
  _atom_site_type_symbol
  _atom_site_label
  _atom_site_symmetry_multiplicity
  _atom_site_fract_x
  _atom_site_fract_y
  _atom_site_fract_z
  _atom_site_occupancy
  K   K1        1.0  0.48800  0.84500  0.02340  1.0000
  K   K2        1.0  0.91800  0.36100  0.17100  1.0000
  K   K3        1.0  0.91400  0.83600  0.17200  1.0000
  K   K4        1.0  0.75900  0.72300  0.48500  1.0000
  K   K5        1.0  0.24100  0.22300  0.51500  1.0000
  K   K6        1.0  0.08570  0.33600  0.82800  1.0000
  K   K7        1.0  0.08180  0.86100  0.82900  1.0000
  K   K8        1.0  0.51200  0.34500  0.97700  1.0000
  O   O1        1.0  0.85400  0.09840  0.01140  1.0000
  O   O2        1.0  0.13400  0.09790  0.01280  1.0000
  O   O3        1.0  0.86600  0.59800  0.98700  1.0000
  O   O4        1.0  0.14600  0.59800  0.98900  1.0000
  S   S1        1.0  0.34800  0.56700  0.31800  1.0000
  S   S2        1.0  0.33200  0.87100  0.33800  1.0000
  S   S3        1.0  0.66800  0.37100  0.66200  1.0000
  S   S4        1.0  0.65200  0.06710  0.68200  1.0000
