data_image0
_chemical_formula_structural       AuNi2Sn4
_chemical_formula_sum              "Au1 Ni2 Sn4"
_cell_length_a       4.27939
_cell_length_b       4.27939
_cell_length_c       9.3001
_cell_angle_alpha    103.301
_cell_angle_beta     90
_cell_angle_gamma    60

_space_group_name_H-M_alt    "P 1"
_space_group_IT_number       1

loop_
  _space_group_symop_operation_xyz
  'x, y, z'

loop_
  _atom_site_type_symbol
  _atom_site_label
  _atom_site_symmetry_multiplicity
  _atom_site_fract_x
  _atom_site_fract_y
  _atom_site_fract_z
  _atom_site_occupancy
  Au  Au1       1.0  0.50000  0.00000  0.50000  1.0000
  Ni  Ni1       1.0  0.59900  0.80100  0.20200  1.0000
  Ni  Ni2       1.0  0.40100  0.19900  0.79800  1.0000
  Sn  Sn1       1.0  0.30000  0.40100  0.10100  1.0000
  Sn  Sn2       1.0  0.88900  0.22200  0.33400  1.0000
  Sn  Sn3       1.0  0.11100  0.77800  0.66600  1.0000
  Sn  Sn4       1.0  0.70000  0.59900  0.89900  1.0000
