data_image0
_chemical_formula_structural       Pr2Rh2Si4
_chemical_formula_sum              "Pr2 Rh2 Si4"
_cell_length_a       4.21925
_cell_length_b       4.29557
_cell_length_c       8.67078
_cell_angle_alpha    75.6583
_cell_angle_beta     90
_cell_angle_gamma    90

_space_group_name_H-M_alt    "P 1"
_space_group_IT_number       1

loop_
  _space_group_symop_operation_xyz
  'x, y, z'

loop_
  _atom_site_type_symbol
  _atom_site_label
  _atom_site_symmetry_multiplicity
  _atom_site_fract_x
  _atom_site_fract_y
  _atom_site_fract_z
  _atom_site_occupancy
  Pr  Pr1       1.0  0.25000  0.89500  0.21000  1.0000
  Pr  Pr2       1.0  0.75000  0.10500  0.79000  1.0000
  Rh  Rh1       1.0  0.75000  0.32000  0.36100  1.0000
  Rh  Rh2       1.0  0.25000  0.68000  0.63900  1.0000
  Si  Si1       1.0  0.75000  0.46100  0.07870  1.0000
  Si  Si2       1.0  0.75000  0.75100  0.49900  1.0000
  Si  Si3       1.0  0.25000  0.24900  0.50100  1.0000
  Si  Si4       1.0  0.25000  0.53900  0.92100  1.0000
