# generated using pymatgen
data_Fe3BO6
_symmetry_space_group_name_H-M   'P 1'
_cell_length_a   4.51221600
_cell_length_b   8.68595400
_cell_length_c   10.22300200
_cell_angle_alpha   90.00000000
_cell_angle_beta   90.00000000
_cell_angle_gamma   90.00000000
_symmetry_Int_Tables_number   1
_chemical_formula_structural   Fe3BO6
_chemical_formula_sum   'Fe12 B4 O24'
_cell_volume   400.66910136
_cell_formula_units_Z   4
loop_
 _symmetry_equiv_pos_site_id
 _symmetry_equiv_pos_as_xyz
  1  'x, y, z'
loop_
 _atom_site_type_symbol
 _atom_site_label
 _atom_site_symmetry_multiplicity
 _atom_site_fract_x
 _atom_site_fract_y
 _atom_site_fract_z
 _atom_site_occupancy
  Fe  Fe0  1  0.47884100  0.75000000  0.90950500  1
  Fe  Fe1  1  0.97884100  0.25000000  0.59049500  1
  Fe  Fe2  1  0.52115900  0.25000000  0.09049500  1
  Fe  Fe3  1  0.02115900  0.75000000  0.40950500  1
  Fe  Fe4  1  0.51927000  0.43381700  0.37131700  1
  Fe  Fe5  1  0.01927000  0.56618300  0.12868300  1
  Fe  Fe6  1  0.48073000  0.93381700  0.62868300  1
  Fe  Fe7  1  0.98073000  0.06618300  0.87131700  1
  Fe  Fe8  1  0.48073000  0.56618300  0.62868300  1
  Fe  Fe9  1  0.98073000  0.43381700  0.87131700  1
  Fe  Fe10  1  0.51927000  0.06618300  0.37131700  1
  Fe  Fe11  1  0.01927000  0.93381700  0.12868300  1
  B  B12  1  0.08988800  0.25000000  0.28305500  1
  B  B13  1  0.91011200  0.75000000  0.71694500  1
  B  B14  1  0.41011200  0.25000000  0.78305500  1
  B  B15  1  0.58988800  0.75000000  0.21694500  1
  O  O16  1  0.77588300  0.75000000  0.58234800  1
  O  O17  1  0.27588300  0.25000000  0.91765200  1
  O  O18  1  0.22411700  0.25000000  0.41765200  1
  O  O19  1  0.72411700  0.75000000  0.08234800  1
  O  O20  1  0.76620900  0.41870900  0.03508200  1
  O  O21  1  0.26620900  0.58129100  0.46491800  1
  O  O22  1  0.23379100  0.91870900  0.96491800  1
  O  O23  1  0.73379100  0.08129100  0.53508200  1
  O  O24  1  0.26762000  0.75000000  0.21854700  1
  O  O25  1  0.23238000  0.75000000  0.71854700  1
  O  O26  1  0.76762000  0.25000000  0.28145300  1
  O  O27  1  0.73238000  0.25000000  0.78145300  1
  O  O28  1  0.73452900  0.88673200  0.28479700  1
  O  O29  1  0.23452900  0.11326800  0.21520300  1
  O  O30  1  0.26547100  0.38673200  0.71520300  1
  O  O31  1  0.76547100  0.61326800  0.78479700  1
  O  O32  1  0.26547100  0.11326800  0.71520300  1
  O  O33  1  0.76547100  0.88673200  0.78479700  1
  O  O34  1  0.73452900  0.61326800  0.28479700  1
  O  O35  1  0.23452900  0.38673200  0.21520300  1
  O  O36  1  0.26620900  0.91870900  0.46491800  1
  O  O37  1  0.76620900  0.08129100  0.03508200  1
  O  O38  1  0.73379100  0.41870900  0.53508200  1
  O  O39  1  0.23379100  0.58129100  0.96491800  1
