# generated using pymatgen
data_SiRh
_symmetry_space_group_name_H-M   'P 1'
_cell_length_a   4.60255100
_cell_length_b   4.62172300
_cell_length_c   5.62734713
_cell_angle_alpha   64.86418911
_cell_angle_beta   90.00000000
_cell_angle_gamma   90.00000000
_symmetry_Int_Tables_number   1
_chemical_formula_structural   SiRh
_chemical_formula_sum   'Si4 Rh4'
_cell_volume   108.36784154
_cell_formula_units_Z   4
loop_
 _symmetry_equiv_pos_site_id
 _symmetry_equiv_pos_as_xyz
  1  'x, y, z'
loop_
 _atom_site_type_symbol
 _atom_site_label
 _atom_site_symmetry_multiplicity
 _atom_site_fract_x
 _atom_site_fract_y
 _atom_site_fract_z
 _atom_site_occupancy
  Si  Si0  1  0.35292400  0.78740200  0.94200700  1
  Si  Si1  1  0.85292400  0.21259800  0.55799300  1
  Si  Si2  1  0.64707600  0.21259800  0.05799300  1
  Si  Si3  1  0.14707600  0.78740200  0.44200700  1
  Rh  Rh4  1  0.35633600  0.29976800  0.38124500  1
  Rh  Rh5  1  0.85633600  0.70023200  0.11875500  1
  Rh  Rh6  1  0.64366400  0.70023200  0.61875500  1
  Rh  Rh7  1  0.14366400  0.29976800  0.88124500  1
