# generated using pymatgen
data_RbPb2Br5
_symmetry_space_group_name_H-M   'P 1'
_cell_length_a   9.78464930
_cell_length_b   9.78464930
_cell_length_c   9.78464930
_cell_angle_alpha   128.05358577
_cell_angle_beta   128.05358577
_cell_angle_gamma   76.53823738
_symmetry_Int_Tables_number   1
_chemical_formula_structural   RbPb2Br5
_chemical_formula_sum   'Rb2 Pb4 Br10'
_cell_volume   564.25720416
_cell_formula_units_Z   2
loop_
 _symmetry_equiv_pos_site_id
 _symmetry_equiv_pos_as_xyz
  1  'x, y, z'
loop_
 _atom_site_type_symbol
 _atom_site_label
 _atom_site_symmetry_multiplicity
 _atom_site_fract_x
 _atom_site_fract_y
 _atom_site_fract_z
 _atom_site_occupancy
  Rb  Rb0  1  0.75000000  0.75000000  0.00000000  1
  Rb  Rb1  1  0.25000000  0.25000000  0.00000000  1
  Pb  Pb2  1  0.66722600  0.83277400  0.50000000  1
  Pb  Pb3  1  0.16722600  0.66722600  0.83445300  1
  Pb  Pb4  1  0.33277400  0.16722600  0.50000000  1
  Pb  Pb5  1  0.83277400  0.33277400  0.16554700  1
  Br  Br6  1  0.21506900  0.71506900  0.18967800  1
  Br  Br7  1  0.47461000  0.97461000  0.18967800  1
  Br  Br8  1  0.50000000  0.50000000  0.00000000  1
  Br  Br9  1  0.00000000  0.00000000  0.00000000  1
  Br  Br10  1  0.78493200  0.28493200  0.81032200  1
  Br  Br11  1  0.28493200  0.47461000  0.50000000  1
  Br  Br12  1  0.97461000  0.78493200  0.50000000  1
  Br  Br13  1  0.71506800  0.52539000  0.50000000  1
  Br  Br14  1  0.52539000  0.02539000  0.81032200  1
  Br  Br15  1  0.02539000  0.21506900  0.50000000  1
