# generated using pymatgen
data_VBiO4
_symmetry_space_group_name_H-M   'P 1'
_cell_length_a   6.91957675
_cell_length_b   6.91957675
_cell_length_c   6.91957675
_cell_angle_alpha   135.96604544
_cell_angle_beta   135.96604544
_cell_angle_gamma   64.03283386
_symmetry_Int_Tables_number   1
_chemical_formula_structural   VBiO4
_chemical_formula_sum   'V2 Bi2 O8'
_cell_volume   157.91699231
_cell_formula_units_Z   2
loop_
 _symmetry_equiv_pos_site_id
 _symmetry_equiv_pos_as_xyz
  1  'x, y, z'
loop_
 _atom_site_type_symbol
 _atom_site_label
 _atom_site_symmetry_multiplicity
 _atom_site_fract_x
 _atom_site_fract_y
 _atom_site_fract_z
 _atom_site_occupancy
  V  V0  1  0.50000000  0.50000000  0.00000000  1
  V  V1  1  0.25000000  0.75000000  0.50000000  1
  Bi  Bi2  1  0.00000000  0.00000000  0.00000000  1
  Bi  Bi3  1  0.75000000  0.25000000  0.50000000  1
  O  O4  1  0.17012500  0.56267500  0.89093900  1
  O  O5  1  0.31267500  0.92173600  0.89255000  1
  O  O6  1  0.02918600  0.42012500  0.10745000  1
  O  O7  1  0.67173600  0.27918600  0.10906100  1
  O  O8  1  0.07826400  0.97081400  0.39093900  1
  O  O9  1  0.72081400  0.82987500  0.39255000  1
  O  O10  1  0.57987500  0.68732500  0.60906100  1
  O  O11  1  0.43732500  0.32826400  0.60745000  1
