# generated using pymatgen
data_VCl3O
_symmetry_space_group_name_H-M   'P 1'
_cell_length_a   5.39051200
_cell_length_b   9.82371300
_cell_length_c   11.98541400
_cell_angle_alpha   90.00000000
_cell_angle_beta   90.00000000
_cell_angle_gamma   90.00000000
_symmetry_Int_Tables_number   1
_chemical_formula_structural   VCl3O
_chemical_formula_sum   'V4 Cl12 O4'
_cell_volume   634.68571440
_cell_formula_units_Z   4
loop_
 _symmetry_equiv_pos_site_id
 _symmetry_equiv_pos_as_xyz
  1  'x, y, z'
loop_
 _atom_site_type_symbol
 _atom_site_label
 _atom_site_symmetry_multiplicity
 _atom_site_fract_x
 _atom_site_fract_y
 _atom_site_fract_z
 _atom_site_occupancy
  V  V0  1  0.35991100  0.75000000  0.54569700  1
  V  V1  1  0.85991100  0.75000000  0.95430300  1
  V  V2  1  0.64008900  0.25000000  0.45430300  1
  V  V3  1  0.14008900  0.25000000  0.04569700  1
  Cl  Cl4  1  0.25172200  0.25000000  0.87246900  1
  Cl  Cl5  1  0.75172200  0.25000000  0.62753100  1
  Cl  Cl6  1  0.74827800  0.75000000  0.12753100  1
  Cl  Cl7  1  0.24827800  0.75000000  0.37246900  1
  Cl  Cl8  1  0.26919000  0.06855100  0.12939400  1
  Cl  Cl9  1  0.76919000  0.43144900  0.37060600  1
  Cl  Cl10  1  0.73081000  0.56855100  0.87060600  1
  Cl  Cl11  1  0.23081000  0.93144900  0.62939400  1
  Cl  Cl12  1  0.73081000  0.93144900  0.87060600  1
  Cl  Cl13  1  0.23081000  0.56855100  0.62939400  1
  Cl  Cl14  1  0.26919000  0.43144900  0.12939400  1
  Cl  Cl15  1  0.76919000  0.06855100  0.37060600  1
  O  O16  1  0.65705200  0.75000000  0.55003400  1
  O  O17  1  0.15705200  0.75000000  0.94996600  1
  O  O18  1  0.34294800  0.25000000  0.44996600  1
  O  O19  1  0.84294800  0.25000000  0.05003400  1
