data_image0
_chemical_formula_structural       S4V3
_chemical_formula_sum              "S4 V3"
_cell_length_a       3.23668
_cell_length_b       5.83993
_cell_length_c       6.48535
_cell_angle_alpha    114.444
_cell_angle_beta     104.45
_cell_angle_gamma    90

_space_group_name_H-M_alt    "P 1"
_space_group_IT_number       1

loop_
  _space_group_symop_operation_xyz
  'x, y, z'

loop_
  _atom_site_type_symbol
  _atom_site_label
  _atom_site_symmetry_multiplicity
  _atom_site_fract_x
  _atom_site_fract_y
  _atom_site_fract_z
  _atom_site_occupancy
  S   S1        1.0  0.10900  0.45000  0.21800  1.0000
  S   S2        1.0  0.64100  0.98100  0.28200  1.0000
  S   S3        1.0  0.35900  0.01930  0.71800  1.0000
  S   S4        1.0  0.89100  0.55000  0.78200  1.0000
  V   V1        1.0  0.00000  0.00000  0.00000  1.0000
  V   V2        1.0  0.74200  0.68100  0.48400  1.0000
  V   V3        1.0  0.25800  0.31900  0.51600  1.0000
