# generated using pymatgen
data_SrZnCl4
_symmetry_space_group_name_H-M   'P 1'
_cell_length_a   8.66220663
_cell_length_b   8.66220663
_cell_length_c   8.66220663
_cell_angle_alpha   135.47613743
_cell_angle_beta   135.47613743
_cell_angle_gamma   64.79128317
_symmetry_Int_Tables_number   1
_chemical_formula_structural   SrZnCl4
_chemical_formula_sum   'Sr2 Zn2 Cl8'
_cell_volume   315.05941556
_cell_formula_units_Z   2
loop_
 _symmetry_equiv_pos_site_id
 _symmetry_equiv_pos_as_xyz
  1  'x, y, z'
loop_
 _atom_site_type_symbol
 _atom_site_label
 _atom_site_symmetry_multiplicity
 _atom_site_fract_x
 _atom_site_fract_y
 _atom_site_fract_z
 _atom_site_occupancy
  Sr  Sr0  1  0.00000000  0.00000000  0.00000000  1
  Sr  Sr1  1  0.75000000  0.25000000  0.50000000  1
  Zn  Zn2  1  0.25000000  0.75000000  0.50000000  1
  Zn  Zn3  1  0.50000000  0.50000000  0.00000000  1
  Cl  Cl4  1  0.67865400  0.57518600  0.41569700  1
  Cl  Cl5  1  0.32518600  0.40948900  0.39653200  1
  Cl  Cl6  1  0.07134600  0.67481400  0.08430300  1
  Cl  Cl7  1  0.73704300  0.32134600  0.89653200  1
  Cl  Cl8  1  0.01295700  0.92865400  0.60346800  1
  Cl  Cl9  1  0.59051100  0.98704300  0.91569700  1
  Cl  Cl10  1  0.42481400  0.84051100  0.10346800  1
  Cl  Cl11  1  0.15948900  0.26295700  0.58430300  1
