# generated using pymatgen
data_BNCl2
_symmetry_space_group_name_H-M   'P 1'
_cell_length_a   6.45173050
_cell_length_b   6.45173050
_cell_length_c   6.45173075
_cell_angle_alpha   89.76756119
_cell_angle_beta   89.76756119
_cell_angle_gamma   89.76755447
_symmetry_Int_Tables_number   1
_chemical_formula_structural   BNCl2
_chemical_formula_sum   'B3 N3 Cl6'
_cell_volume   268.54556079
_cell_formula_units_Z   3
loop_
 _symmetry_equiv_pos_site_id
 _symmetry_equiv_pos_as_xyz
  1  'x, y, z'
loop_
 _atom_site_type_symbol
 _atom_site_label
 _atom_site_symmetry_multiplicity
 _atom_site_fract_x
 _atom_site_fract_y
 _atom_site_fract_z
 _atom_site_occupancy
  B  B0  1  0.93468800  0.18266000  0.87798000  1
  B  B1  1  0.18266000  0.87798000  0.93468800  1
  B  B2  1  0.87798000  0.93468800  0.18266000  1
  N  N3  1  0.06028800  0.82270700  0.11453600  1
  N  N4  1  0.82270700  0.11453600  0.06028800  1
  N  N5  1  0.11453600  0.06028800  0.82270700  1
  Cl  Cl6  1  0.85681400  0.39738000  0.73154800  1
  Cl  Cl7  1  0.39738000  0.73154800  0.85681400  1
  Cl  Cl8  1  0.73154800  0.85681400  0.39738000  1
  Cl  Cl9  1  0.13404400  0.61006600  0.25628800  1
  Cl  Cl10  1  0.61006600  0.25628800  0.13404400  1
  Cl  Cl11  1  0.25628800  0.13404400  0.61006600  1
