# generated using pymatgen
data_K3NaFeCl6
_symmetry_space_group_name_H-M   'P 1'
_cell_length_a   8.43311570
_cell_length_b   8.43311570
_cell_length_c   8.43311488
_cell_angle_alpha   92.79940701
_cell_angle_beta   92.79940701
_cell_angle_gamma   92.79940706
_symmetry_Int_Tables_number   1
_chemical_formula_structural   K3NaFeCl6
_chemical_formula_sum   'K6 Na2 Fe2 Cl12'
_cell_volume   597.52173258
_cell_formula_units_Z   2
loop_
 _symmetry_equiv_pos_site_id
 _symmetry_equiv_pos_as_xyz
  1  'x, y, z'
loop_
 _atom_site_type_symbol
 _atom_site_label
 _atom_site_symmetry_multiplicity
 _atom_site_fract_x
 _atom_site_fract_y
 _atom_site_fract_z
 _atom_site_occupancy
  K  K0  1  0.37372700  0.75000000  0.12627300  1
  K  K1  1  0.12627300  0.37372700  0.75000000  1
  K  K2  1  0.75000000  0.12627300  0.37372700  1
  K  K3  1  0.62627300  0.25000000  0.87372700  1
  K  K4  1  0.87372700  0.62627300  0.25000000  1
  K  K5  1  0.25000000  0.87372700  0.62627300  1
  Na  Na6  1  0.25000000  0.25000000  0.25000000  1
  Na  Na7  1  0.75000000  0.75000000  0.75000000  1
  Fe  Fe8  1  0.50000000  0.50000000  0.50000000  1
  Fe  Fe9  1  0.00000000  0.00000000  0.00000000  1
  Cl  Cl10  1  0.42071000  0.21567900  0.54463700  1
  Cl  Cl11  1  0.54463700  0.42071000  0.21567900  1
  Cl  Cl12  1  0.21567900  0.54463700  0.42071000  1
  Cl  Cl13  1  0.07929000  0.95536300  0.28432100  1
  Cl  Cl14  1  0.28432100  0.07929000  0.95536300  1
  Cl  Cl15  1  0.95536300  0.28432100  0.07929000  1
  Cl  Cl16  1  0.04463700  0.71567900  0.92071000  1
  Cl  Cl17  1  0.71567900  0.92071000  0.04463700  1
  Cl  Cl18  1  0.92071000  0.04463700  0.71567900  1
  Cl  Cl19  1  0.78432100  0.45536300  0.57929000  1
  Cl  Cl20  1  0.45536300  0.57929000  0.78432100  1
  Cl  Cl21  1  0.57929000  0.78432100  0.45536300  1
