# generated using pymatgen
data_Sr3Fe2Cl2O5
_symmetry_space_group_name_H-M   'P 1'
_cell_length_a   3.99982363
_cell_length_b   3.99982182
_cell_length_c   12.49116494
_cell_angle_alpha   99.21521719
_cell_angle_beta   99.21526089
_cell_angle_gamma   89.99845675
_symmetry_Int_Tables_number   1
_chemical_formula_structural   Sr3Fe2Cl2O5
_chemical_formula_sum   'Sr3 Fe2 Cl2 O5'
_cell_volume   194.64848173
_cell_formula_units_Z   1
loop_
 _symmetry_equiv_pos_site_id
 _symmetry_equiv_pos_as_xyz
  1  'x, y, z'
loop_
 _atom_site_type_symbol
 _atom_site_label
 _atom_site_symmetry_multiplicity
 _atom_site_fract_x
 _atom_site_fract_y
 _atom_site_fract_z
 _atom_site_occupancy
  Sr  Sr0  1  0.65536700  0.65536600  0.31067600  1
  Sr  Sr1  1  0.34463500  0.34463500  0.68932700  1
  Sr  Sr2  1  0.50000000  0.50000200  0.00000200  1
  Fe  Fe3  1  0.92101400  0.92101500  0.84201300  1
  Fe  Fe4  1  0.07898300  0.07898300  0.15798000  1
  Cl  Cl5  1  0.20284300  0.20284200  0.40562800  1
  Cl  Cl6  1  0.79716000  0.79716000  0.59437700  1
  O  O7  1  0.91001800  0.40999400  0.81989100  1
  O  O8  1  0.40999300  0.91001800  0.81989100  1
  O  O9  1  0.08998300  0.59000700  0.18011000  1
  O  O10  1  0.99999800  0.99999800  0.99999700  1
  O  O11  1  0.59000700  0.08998200  0.18011000  1
