# generated using pymatgen
data_In2Bi
_symmetry_space_group_name_H-M   'P 1'
_cell_length_a   5.58076899
_cell_length_b   5.58076899
_cell_length_c   6.68223800
_cell_angle_alpha   90.00000000
_cell_angle_beta   90.00000000
_cell_angle_gamma   120.00001170
_symmetry_Int_Tables_number   1
_chemical_formula_structural   In2Bi
_chemical_formula_sum   'In4 Bi2'
_cell_volume   180.23561435
_cell_formula_units_Z   2
loop_
 _symmetry_equiv_pos_site_id
 _symmetry_equiv_pos_as_xyz
  1  'x, y, z'
loop_
 _atom_site_type_symbol
 _atom_site_label
 _atom_site_symmetry_multiplicity
 _atom_site_fract_x
 _atom_site_fract_y
 _atom_site_fract_z
 _atom_site_occupancy
  In  In0  1  0.00000000  0.00000000  0.50000000  1
  In  In1  1  0.00000000  0.00000000  0.00000000  1
  In  In2  1  0.33333300  0.66666700  0.75000000  1
  In  In3  1  0.66666700  0.33333300  0.25000000  1
  Bi  Bi4  1  0.33333300  0.66666700  0.25000000  1
  Bi  Bi5  1  0.66666700  0.33333300  0.75000000  1
