# generated using pymatgen
data_CuCl
_symmetry_space_group_name_H-M   'P 1'
_cell_length_a   6.52372200
_cell_length_b   6.52372200
_cell_length_c   6.52372200
_cell_angle_alpha   90.00000000
_cell_angle_beta   90.00000000
_cell_angle_gamma   90.00000000
_symmetry_Int_Tables_number   1
_chemical_formula_structural   CuCl
_chemical_formula_sum   'Cu8 Cl8'
_cell_volume   277.64275015
_cell_formula_units_Z   8
loop_
 _symmetry_equiv_pos_site_id
 _symmetry_equiv_pos_as_xyz
  1  'x, y, z'
loop_
 _atom_site_type_symbol
 _atom_site_label
 _atom_site_symmetry_multiplicity
 _atom_site_fract_x
 _atom_site_fract_y
 _atom_site_fract_z
 _atom_site_occupancy
  Cu  Cu0  1  0.61918600  0.88081400  0.11918600  1
  Cu  Cu1  1  0.88081400  0.11918600  0.61918600  1
  Cu  Cu2  1  0.11918600  0.61918600  0.88081400  1
  Cu  Cu3  1  0.38081400  0.38081400  0.38081400  1
  Cu  Cu4  1  0.38081400  0.11918600  0.88081400  1
  Cu  Cu5  1  0.11918600  0.88081400  0.38081400  1
  Cu  Cu6  1  0.88081400  0.38081400  0.11918600  1
  Cu  Cu7  1  0.61918600  0.61918600  0.61918600  1
  Cl  Cl8  1  0.15717000  0.34283000  0.65717000  1
  Cl  Cl9  1  0.34283000  0.65717000  0.15717000  1
  Cl  Cl10  1  0.65717000  0.15717000  0.34283000  1
  Cl  Cl11  1  0.84283000  0.84283000  0.84283000  1
  Cl  Cl12  1  0.84283000  0.65717000  0.34283000  1
  Cl  Cl13  1  0.65717000  0.34283000  0.84283000  1
  Cl  Cl14  1  0.34283000  0.84283000  0.65717000  1
  Cl  Cl15  1  0.15717000  0.15717000  0.15717000  1
