# generated using pymatgen
data_AsS3(ClF2)3
_symmetry_space_group_name_H-M   'P 1'
_cell_length_a   7.82990400
_cell_length_b   8.45469552
_cell_length_c   10.34861712
_cell_angle_alpha   80.83597351
_cell_angle_beta   112.10423766
_cell_angle_gamma   115.88136270
_symmetry_Int_Tables_number   1
_chemical_formula_structural   AsS3(ClF2)3
_chemical_formula_sum   'As2 S6 Cl6 F12'
_cell_volume   571.04767248
_cell_formula_units_Z   2
loop_
 _symmetry_equiv_pos_site_id
 _symmetry_equiv_pos_as_xyz
  1  'x, y, z'
loop_
 _atom_site_type_symbol
 _atom_site_label
 _atom_site_symmetry_multiplicity
 _atom_site_fract_x
 _atom_site_fract_y
 _atom_site_fract_z
 _atom_site_occupancy
  As  As0  1  0.78855400  0.74563100  0.75057100  1
  As  As1  1  0.21144600  0.25436900  0.24942900  1
  S  S2  1  0.54144500  0.22196000  0.02133500  1
  S  S3  1  0.34689700  0.84311200  0.08213000  1
  S  S4  1  0.09906600  0.32564300  0.60738900  1
  S  S5  1  0.90093400  0.67435700  0.39261100  1
  S  S6  1  0.45855500  0.77804000  0.97866500  1
  S  S7  1  0.65310300  0.15688800  0.91787000  1
  Cl  Cl8  1  0.17893400  0.71784300  0.51909000  1
  Cl  Cl9  1  0.50062500  0.84315900  0.29343900  1
  Cl  Cl10  1  0.82106600  0.28215700  0.48091000  1
  Cl  Cl11  1  0.10012200  0.34392900  0.79678900  1
  Cl  Cl12  1  0.49937500  0.15684100  0.70656100  1
  Cl  Cl13  1  0.89987800  0.65607100  0.20321100  1
  F  F14  1  0.69741900  0.86660300  0.60532000  1
  F  F15  1  0.53482100  0.60986600  0.74267200  1
  F  F16  1  0.04118100  0.88105200  0.75960600  1
  F  F17  1  0.22815900  0.40057300  0.36408700  1
  F  F18  1  0.46517900  0.39013400  0.25732800  1
  F  F19  1  0.95881900  0.11894800  0.24039400  1
  F  F20  1  0.77184100  0.59942700  0.63591300  1
  F  F21  1  0.87670900  0.62277600  0.89631500  1
  F  F22  1  0.19541600  0.10873500  0.13483000  1
  F  F23  1  0.12329100  0.37722400  0.10368500  1
  F  F24  1  0.30258100  0.13339700  0.39468000  1
  F  F25  1  0.80458400  0.89126500  0.86517000  1
