data_image0
_chemical_formula_structural       Al2Se4Zn
_chemical_formula_sum              "Al2 Se4 Zn1"
_cell_length_a       5.61309
_cell_length_b       5.61309
_cell_length_c       6.77861
_cell_angle_alpha    114.458
_cell_angle_beta     114.458
_cell_angle_gamma    90

_space_group_name_H-M_alt    "P 1"
_space_group_IT_number       1

loop_
  _space_group_symop_operation_xyz
  'x, y, z'

loop_
  _atom_site_type_symbol
  _atom_site_label
  _atom_site_symmetry_multiplicity
  _atom_site_fract_x
  _atom_site_fract_y
  _atom_site_fract_z
  _atom_site_occupancy
  Al  Al1       1.0  0.50000  0.50000  0.00000  1.0000
  Al  Al2       1.0  0.25000  0.75000  0.50000  1.0000
  Se  Se1       1.0  0.39600  0.38000  0.26400  1.0000
  Se  Se2       1.0  0.86900  0.88500  0.26400  1.0000
  Se  Se3       1.0  0.62000  0.13100  0.73600  1.0000
  Se  Se4       1.0  0.11500  0.60400  0.73600  1.0000
  Zn  Zn1       1.0  0.00000  0.00000  0.00000  1.0000
