# generated using pymatgen
data_CsCu2I3
_symmetry_space_group_name_H-M   'P 1'
_cell_length_a   8.68275689
_cell_length_b   8.68275689
_cell_length_c   6.08358900
_cell_angle_alpha   90.00000000
_cell_angle_beta   90.00000000
_cell_angle_gamma   105.61393589
_symmetry_Int_Tables_number   1
_chemical_formula_structural   CsCu2I3
_chemical_formula_sum   'Cs2 Cu4 I6'
_cell_volume   441.71814193
_cell_formula_units_Z   2
loop_
 _symmetry_equiv_pos_site_id
 _symmetry_equiv_pos_as_xyz
  1  'x, y, z'
loop_
 _atom_site_type_symbol
 _atom_site_label
 _atom_site_symmetry_multiplicity
 _atom_site_fract_x
 _atom_site_fract_y
 _atom_site_fract_z
 _atom_site_occupancy
  Cs  Cs0  1  0.67224300  0.32775700  0.75000000  1
  Cs  Cs1  1  0.32775700  0.67224300  0.25000000  1
  Cu  Cu2  1  0.13750600  0.13750600  0.00000000  1
  Cu  Cu3  1  0.86249400  0.86249400  0.50000000  1
  Cu  Cu4  1  0.86249400  0.86249400  0.00000000  1
  Cu  Cu5  1  0.13750600  0.13750600  0.50000000  1
  I  I6  1  0.12049700  0.87950300  0.75000000  1
  I  I7  1  0.87950300  0.12049700  0.25000000  1
  I  I8  1  0.83917700  0.60808700  0.25000000  1
  I  I9  1  0.16082300  0.39191300  0.75000000  1
  I  I10  1  0.60808700  0.83917700  0.75000000  1
  I  I11  1  0.39191300  0.16082300  0.25000000  1
