data_image0
_chemical_formula_structural       Br2Na4O
_chemical_formula_sum              "Br2 Na4 O1"
_cell_length_a       4.50816
_cell_length_b       4.50816
_cell_length_c       8.13256
_cell_angle_alpha    106.091
_cell_angle_beta     106.091
_cell_angle_gamma    90

_space_group_name_H-M_alt    "P 1"
_space_group_IT_number       1

loop_
  _space_group_symop_operation_xyz
  'x, y, z'

loop_
  _atom_site_type_symbol
  _atom_site_label
  _atom_site_symmetry_multiplicity
  _atom_site_fract_x
  _atom_site_fract_y
  _atom_site_fract_z
  _atom_site_occupancy
  Br  Br1       1.0  0.65100  0.65100  0.30300  1.0000
  Br  Br2       1.0  0.34900  0.34900  0.69700  1.0000
  Na  Na1       1.0  0.50000  0.00000  0.00000  1.0000
  Na  Na2       1.0  0.00000  0.50000  0.00000  1.0000
  Na  Na3       1.0  0.15300  0.15300  0.30500  1.0000
  Na  Na4       1.0  0.84700  0.84700  0.69500  1.0000
  O   O1        1.0  0.00000  0.00000  0.00000  1.0000
