# generated using pymatgen
data_Bi2TeI
_symmetry_space_group_name_H-M   'P 1'
_cell_length_a   19.30346998
_cell_length_b   19.30346998
_cell_length_c   19.30346979
_cell_angle_alpha   13.19841474
_cell_angle_beta   13.19841474
_cell_angle_gamma   13.19841737
_symmetry_Int_Tables_number   1
_chemical_formula_structural   Bi2TeI
_chemical_formula_sum   'Bi4 Te2 I2'
_cell_volume   326.17886873
_cell_formula_units_Z   2
loop_
 _symmetry_equiv_pos_site_id
 _symmetry_equiv_pos_as_xyz
  1  'x, y, z'
loop_
 _atom_site_type_symbol
 _atom_site_label
 _atom_site_symmetry_multiplicity
 _atom_site_fract_x
 _atom_site_fract_y
 _atom_site_fract_z
 _atom_site_occupancy
  Bi  Bi0  1  0.44086500  0.44086500  0.44086500  1
  Bi  Bi1  1  0.55913500  0.55913500  0.55913500  1
  Bi  Bi2  1  0.68079000  0.68079000  0.68079000  1
  Bi  Bi3  1  0.31921000  0.31921000  0.31921000  1
  Te  Te4  1  0.19497900  0.19497900  0.19497900  1
  Te  Te5  1  0.80502100  0.80502100  0.80502100  1
  I  I6  1  0.92749200  0.92749200  0.92749200  1
  I  I7  1  0.07250800  0.07250800  0.07250800  1
