# generated using pymatgen
data_InSn2I5
_symmetry_space_group_name_H-M   'P 1'
_cell_length_a   10.05281508
_cell_length_b   10.05281508
_cell_length_c   10.05281508
_cell_angle_alpha   127.31239836
_cell_angle_beta   127.31239836
_cell_angle_gamma   77.74159407
_symmetry_Int_Tables_number   1
_chemical_formula_structural   InSn2I5
_chemical_formula_sum   'In2 Sn4 I10'
_cell_volume   623.02596987
_cell_formula_units_Z   2
loop_
 _symmetry_equiv_pos_site_id
 _symmetry_equiv_pos_as_xyz
  1  'x, y, z'
loop_
 _atom_site_type_symbol
 _atom_site_label
 _atom_site_symmetry_multiplicity
 _atom_site_fract_x
 _atom_site_fract_y
 _atom_site_fract_z
 _atom_site_occupancy
  In  In0  1  0.75000000  0.75000000  0.00000000  1
  In  In1  1  0.25000000  0.25000000  0.00000000  1
  Sn  Sn2  1  0.17169900  0.67169900  0.84339800  1
  Sn  Sn3  1  0.67169900  0.82830100  0.50000000  1
  Sn  Sn4  1  0.32830100  0.17169900  0.50000000  1
  Sn  Sn5  1  0.82830100  0.32830100  0.15660200  1
  I  I6  1  0.50000000  0.50000000  0.00000000  1
  I  I7  1  0.00000000  0.00000000  0.00000000  1
  I  I8  1  0.52145500  0.02145500  0.81873600  1
  I  I9  1  0.02145500  0.20271900  0.50000000  1
  I  I10  1  0.70271900  0.52145500  0.50000000  1
  I  I11  1  0.97854500  0.79728100  0.50000000  1
  I  I12  1  0.29728100  0.47854500  0.50000000  1
  I  I13  1  0.79728100  0.29728100  0.81873600  1
  I  I14  1  0.47854500  0.97854500  0.18126400  1
  I  I15  1  0.20271900  0.70271900  0.18126400  1
