# generated using pymatgen
data_AgBiO3
_symmetry_space_group_name_H-M   'P 1'
_cell_length_a   6.30321629
_cell_length_b   6.30321629
_cell_length_c   6.30321649
_cell_angle_alpha   54.56053531
_cell_angle_beta   54.56053531
_cell_angle_gamma   54.56053190
_symmetry_Int_Tables_number   1
_chemical_formula_structural   AgBiO3
_chemical_formula_sum   'Ag2 Bi2 O6'
_cell_volume   154.63007544
_cell_formula_units_Z   2
loop_
 _symmetry_equiv_pos_site_id
 _symmetry_equiv_pos_as_xyz
  1  'x, y, z'
loop_
 _atom_site_type_symbol
 _atom_site_label
 _atom_site_symmetry_multiplicity
 _atom_site_fract_x
 _atom_site_fract_y
 _atom_site_fract_z
 _atom_site_occupancy
  Ag  Ag0  1  0.13161000  0.13161000  0.13161000  1
  Ag  Ag1  1  0.86839000  0.86839000  0.86839000  1
  Bi  Bi2  1  0.34199200  0.34199200  0.34199200  1
  Bi  Bi3  1  0.65800800  0.65800800  0.65800800  1
  O  O4  1  0.45811400  0.70826500  0.06003300  1
  O  O5  1  0.54188600  0.29173500  0.93996700  1
  O  O6  1  0.29173500  0.93996700  0.54188600  1
  O  O7  1  0.93996700  0.54188600  0.29173500  1
  O  O8  1  0.06003300  0.45811400  0.70826500  1
  O  O9  1  0.70826500  0.06003300  0.45811400  1
