# generated using pymatgen
data_LiV2P4(HO8)2
_symmetry_space_group_name_H-M   'P 1'
_cell_length_a   9.31943430
_cell_length_b   9.26990852
_cell_length_c   7.74729381
_cell_angle_alpha   78.18447242
_cell_angle_beta   78.19583325
_cell_angle_gamma   116.71566018
_symmetry_Int_Tables_number   1
_chemical_formula_structural   LiV2P4(HO8)2
_chemical_formula_sum   'Li2 V4 P8 H4 O32'
_cell_volume   550.47141068
_cell_formula_units_Z   2
loop_
 _symmetry_equiv_pos_site_id
 _symmetry_equiv_pos_as_xyz
  1  'x, y, z'
loop_
 _atom_site_type_symbol
 _atom_site_label
 _atom_site_symmetry_multiplicity
 _atom_site_fract_x
 _atom_site_fract_y
 _atom_site_fract_z
 _atom_site_occupancy
  Li  Li0  1  0.46019000  0.09282900  0.34761400  1
  Li  Li1  1  0.04222500  0.41149200  0.65267800  1
  V  V2  1  0.24855700  0.24930900  0.50037700  1
  V  V3  1  0.49930700  0.99766700  0.99488500  1
  V  V4  1  0.99654500  0.50054600  0.01477500  1
  V  V5  1  0.75512100  0.75352900  0.49719400  1
  P  P6  1  0.25968600  0.60645600  0.26779100  1
  P  P7  1  0.75470200  0.10485800  0.26911200  1
  P  P8  1  0.64365600  0.49853800  0.22758800  1
  P  P9  1  0.14601200  0.00039800  0.22733700  1
  P  P10  1  0.35566200  0.50642300  0.76545500  1
  P  P11  1  0.85217800  0.00527700  0.76770200  1
  P  P12  1  0.74058500  0.39626500  0.73793600  1
  P  P13  1  0.24057100  0.89309800  0.73972800  1
  H  H14  1  0.75749400  0.26652200  0.51381800  1
  H  H15  1  0.25409700  0.76256000  0.51068200  1
  H  H16  1  0.48642200  0.49536000  0.98776400  1
  H  H17  1  0.98485000  0.99132600  0.98850700  1
  O  O18  1  0.11668700  0.06432900  0.05248500  1
  O  O19  1  0.17243500  0.11865900  0.35136200  1
  O  O20  1  0.01069300  0.18552700  0.64364200  1
  O  O21  1  0.22420700  0.05070400  0.68717500  1
  O  O22  1  0.62897900  0.07660500  0.15648900  1
  O  O23  1  0.13349400  0.57785200  0.14867500  1
  O  O24  1  0.27183000  0.44491800  0.31449700  1
  O  O25  1  0.49241500  0.31651100  0.35695300  1
  O  O26  1  0.68078900  0.13548600  0.44122300  1
  O  O27  1  0.18296700  0.62838200  0.44673100  1
  O  O28  1  0.32564000  0.38279100  0.64941700  1
  O  O29  1  0.19078700  0.51716300  0.81438600  1
  O  O30  1  0.69524700  0.02446900  0.81460600  1
  O  O31  1  0.62250900  0.56742900  0.04906700  1
  O  O32  1  0.93014800  0.26838700  0.13631300  1
  O  O33  1  0.43140900  0.76433100  0.13773900  1
  O  O34  1  0.56670200  0.23889700  0.86177000  1
  O  O35  1  0.06760700  0.72793100  0.86236100  1
  O  O36  1  0.37671900  0.43397100  0.94751200  1
  O  O37  1  0.80979200  0.48133500  0.17378600  1
  O  O38  1  0.30512200  0.98134700  0.19156700  1
  O  O39  1  0.67627900  0.61702000  0.34860600  1
  O  O40  1  0.82283300  0.37229600  0.55801300  1
  O  O41  1  0.31513200  0.87196200  0.55419000  1
  O  O42  1  0.51827100  0.68050200  0.63653400  1
  O  O43  1  0.72987300  0.55962400  0.67635500  1
  O  O44  1  0.87158100  0.42499400  0.84355800  1
  O  O45  1  0.36385400  0.91609400  0.85192100  1
  O  O46  1  0.77511900  0.94612500  0.32040500  1
  O  O47  1  0.98063600  0.82273600  0.36261100  1
  O  O48  1  0.82827400  0.88533400  0.64713000  1
  O  O49  1  0.87564900  0.92913100  0.94644500  1
