# generated using pymatgen
data_Hg6S4Br3Cl
_symmetry_space_group_name_H-M   'P 1'
_cell_length_a   10.46918746
_cell_length_b   10.46918746
_cell_length_c   10.59423764
_cell_angle_alpha   66.20308709
_cell_angle_beta   66.20308709
_cell_angle_gamma   53.74482706
_symmetry_Int_Tables_number   1
_chemical_formula_structural   Hg6S4Br3Cl
_chemical_formula_sum   'Hg12 S8 Br6 Cl2'
_cell_volume   835.08485822
_cell_formula_units_Z   2
loop_
 _symmetry_equiv_pos_site_id
 _symmetry_equiv_pos_as_xyz
  1  'x, y, z'
loop_
 _atom_site_type_symbol
 _atom_site_label
 _atom_site_symmetry_multiplicity
 _atom_site_fract_x
 _atom_site_fract_y
 _atom_site_fract_z
 _atom_site_occupancy
  Hg  Hg0  1  0.15749100  0.69442400  0.79478700  1
  Hg  Hg1  1  0.30557600  0.84250900  0.20521300  1
  Hg  Hg2  1  0.84250900  0.30557600  0.20521300  1
  Hg  Hg3  1  0.69442400  0.15749100  0.79478700  1
  Hg  Hg4  1  0.42570300  0.42570300  0.22527700  1
  Hg  Hg5  1  0.57429700  0.57429700  0.77472300  1
  Hg  Hg6  1  0.28262300  0.28262300  0.78811500  1
  Hg  Hg7  1  0.71737700  0.71737700  0.21188500  1
  Hg  Hg8  1  0.36767700  0.89412300  0.49542700  1
  Hg  Hg9  1  0.10587700  0.63232300  0.50457300  1
  Hg  Hg10  1  0.63232300  0.10587700  0.50457300  1
  Hg  Hg11  1  0.89412300  0.36767700  0.49542700  1
  S  S12  1  0.17623000  0.69110000  0.24683100  1
  S  S13  1  0.69110000  0.17623000  0.24683100  1
  S  S14  1  0.82377000  0.30890000  0.75316900  1
  S  S15  1  0.95235000  0.44030100  0.23756100  1
  S  S16  1  0.55969900  0.04765000  0.76243900  1
  S  S17  1  0.04765000  0.55969900  0.76243900  1
  S  S18  1  0.44030100  0.95235000  0.23756100  1
  S  S19  1  0.30890000  0.82377000  0.75316900  1
  Br  Br20  1  0.25122900  0.25122900  0.50203700  1
  Br  Br21  1  0.74877100  0.74877100  0.49796300  1
  Br  Br22  1  0.50000000  0.50000000  0.50000000  1
  Br  Br23  1  0.61916400  0.61916400  0.01036600  1
  Br  Br24  1  0.38083600  0.38083600  0.98963400  1
  Br  Br25  1  0.00000000  0.00000000  0.50000000  1
  Cl  Cl26  1  0.12534500  0.12534500  0.01332200  1
  Cl  Cl27  1  0.87465500  0.87465500  0.98667800  1
