# generated using pymatgen
data_RbH3(CO2)2
_symmetry_space_group_name_H-M   'P 1'
_cell_length_a   7.85319900
_cell_length_b   7.98421900
_cell_length_c   18.20060100
_cell_angle_alpha   90.00000000
_cell_angle_beta   90.00000000
_cell_angle_gamma   90.00000000
_symmetry_Int_Tables_number   1
_chemical_formula_structural   RbH3(CO2)2
_chemical_formula_sum   'Rb8 H24 C16 O32'
_cell_volume   1141.20790783
_cell_formula_units_Z   8
loop_
 _symmetry_equiv_pos_site_id
 _symmetry_equiv_pos_as_xyz
  1  'x, y, z'
loop_
 _atom_site_type_symbol
 _atom_site_label
 _atom_site_symmetry_multiplicity
 _atom_site_fract_x
 _atom_site_fract_y
 _atom_site_fract_z
 _atom_site_occupancy
  Rb  Rb0  1  0.78036600  0.55879200  0.03955000  1
  Rb  Rb1  1  0.28036600  0.44120800  0.46045000  1
  Rb  Rb2  1  0.71963400  0.05879200  0.96045000  1
  Rb  Rb3  1  0.21963400  0.94120800  0.53955000  1
  Rb  Rb4  1  0.21963400  0.44120800  0.96045000  1
  Rb  Rb5  1  0.71963400  0.55879200  0.53955000  1
  Rb  Rb6  1  0.28036600  0.94120800  0.03955000  1
  Rb  Rb7  1  0.78036600  0.05879200  0.46045000  1
  H  H8  1  0.02925700  0.07857600  0.23152300  1
  H  H9  1  0.52925700  0.92142400  0.26847700  1
  H  H10  1  0.47074300  0.57857600  0.76847700  1
  H  H11  1  0.97074300  0.42142400  0.73152300  1
  H  H12  1  0.97074300  0.92142400  0.76847700  1
  H  H13  1  0.47074300  0.07857600  0.73152300  1
  H  H14  1  0.52925700  0.42142400  0.23152300  1
  H  H15  1  0.02925700  0.57857600  0.26847700  1
  H  H16  1  0.23716100  0.68345400  0.20267500  1
  H  H17  1  0.73716100  0.31654600  0.29732500  1
  H  H18  1  0.26283900  0.18345400  0.79732500  1
  H  H19  1  0.76283900  0.81654600  0.70267500  1
  H  H20  1  0.76283900  0.31654600  0.79732500  1
  H  H21  1  0.26283900  0.68345400  0.70267500  1
  H  H22  1  0.73716100  0.81654600  0.20267500  1
  H  H23  1  0.23716100  0.18345400  0.29732500  1
  H  H24  1  0.86249400  0.24824700  0.15559200  1
  H  H25  1  0.36249400  0.75175300  0.34440800  1
  H  H26  1  0.63750600  0.74824700  0.84440800  1
  H  H27  1  0.13750600  0.25175300  0.65559200  1
  H  H28  1  0.13750600  0.75175300  0.84440800  1
  H  H29  1  0.63750600  0.24824700  0.65559200  1
  H  H30  1  0.36249400  0.25175300  0.15559200  1
  H  H31  1  0.86249400  0.74824700  0.34440800  1
  C  C32  1  0.63293800  0.37220100  0.33065800  1
  C  C33  1  0.13293800  0.62779900  0.16934200  1
  C  C34  1  0.86706200  0.87220100  0.66934200  1
  C  C35  1  0.36706200  0.12779900  0.83065800  1
  C  C36  1  0.36706200  0.62779900  0.66934200  1
  C  C37  1  0.86706200  0.37220100  0.83065800  1
  C  C38  1  0.13293800  0.12779900  0.33065800  1
  C  C39  1  0.63293800  0.87220100  0.16934200  1
  C  C40  1  0.96766700  0.18670300  0.12475000  1
  C  C41  1  0.46766700  0.81329700  0.37525000  1
  C  C42  1  0.53233300  0.68670300  0.87525000  1
  C  C43  1  0.03233300  0.31329700  0.62475000  1
  C  C44  1  0.03233300  0.81329700  0.87525000  1
  C  C45  1  0.53233300  0.18670300  0.62475000  1
  C  C46  1  0.46766700  0.31329700  0.12475000  1
  C  C47  1  0.96766700  0.68670300  0.37525000  1
  O  O48  1  0.99496300  0.43242500  0.79340000  1
  O  O49  1  0.49496300  0.56757500  0.70660000  1
  O  O50  1  0.50503700  0.93242500  0.20660000  1
  O  O51  1  0.00503700  0.06757500  0.29340000  1
  O  O52  1  0.00503700  0.56757500  0.20660000  1
  O  O53  1  0.50503700  0.43242500  0.29340000  1
  O  O54  1  0.49496300  0.06757500  0.79340000  1
  O  O55  1  0.99496300  0.93242500  0.70660000  1
  O  O56  1  0.64184500  0.37381400  0.39876300  1
  O  O57  1  0.14184500  0.62618600  0.10123700  1
  O  O58  1  0.85815500  0.87381400  0.60123700  1
  O  O59  1  0.35815500  0.12618600  0.89876300  1
  O  O60  1  0.35815500  0.62618600  0.60123700  1
  O  O61  1  0.85815500  0.37381400  0.89876300  1
  O  O62  1  0.14184500  0.12618600  0.39876300  1
  O  O63  1  0.64184500  0.87381400  0.10123700  1
  O  O64  1  0.93588300  0.41302200  0.66192000  1
  O  O65  1  0.43588300  0.58697800  0.83808000  1
  O  O66  1  0.56411700  0.91302200  0.33808000  1
  O  O67  1  0.06411700  0.08697800  0.16192000  1
  O  O68  1  0.06411700  0.58697800  0.33808000  1
  O  O69  1  0.56411700  0.41302200  0.16192000  1
  O  O70  1  0.43588300  0.08697800  0.66192000  1
  O  O71  1  0.93588300  0.91302200  0.83808000  1
  O  O72  1  0.98498500  0.21713500  0.05764200  1
  O  O73  1  0.48498500  0.78286500  0.44235800  1
  O  O74  1  0.51501500  0.71713500  0.94235800  1
  O  O75  1  0.01501500  0.28286500  0.55764200  1
  O  O76  1  0.01501500  0.78286500  0.94235800  1
  O  O77  1  0.51501500  0.21713500  0.55764200  1
  O  O78  1  0.48498500  0.28286500  0.05764200  1
  O  O79  1  0.98498500  0.71713500  0.44235800  1
