# generated using pymatgen
data_H9C4NO4
_symmetry_space_group_name_H-M   'P 1'
_cell_length_a   10.21978000
_cell_length_b   5.64454400
_cell_length_c   12.51780700
_cell_angle_alpha   71.16926423
_cell_angle_beta   90.00000000
_cell_angle_gamma   90.00000000
_symmetry_Int_Tables_number   1
_chemical_formula_structural   H9C4NO4
_chemical_formula_sum   'H36 C16 N4 O16'
_cell_volume   683.45256949
_cell_formula_units_Z   4
loop_
 _symmetry_equiv_pos_site_id
 _symmetry_equiv_pos_as_xyz
  1  'x, y, z'
loop_
 _atom_site_type_symbol
 _atom_site_label
 _atom_site_symmetry_multiplicity
 _atom_site_fract_x
 _atom_site_fract_y
 _atom_site_fract_z
 _atom_site_occupancy
  H  H0  1  0.18845300  0.53333100  0.50478100  1
  H  H1  1  0.38269200  0.78840100  0.79145200  1
  H  H2  1  0.88269200  0.21159900  0.70854800  1
  H  H3  1  0.61730800  0.21159900  0.20854800  1
  H  H4  1  0.11730800  0.78840100  0.29145200  1
  H  H5  1  0.42981700  0.73392300  0.66325600  1
  H  H6  1  0.92981700  0.26607700  0.83674400  1
  H  H7  1  0.57018300  0.26607700  0.33674400  1
  H  H8  1  0.07018300  0.73392300  0.16325600  1
  H  H9  1  0.51600300  0.58122900  0.79222400  1
  H  H10  1  0.01600300  0.41877100  0.70777600  1
  H  H11  1  0.48399700  0.41877100  0.20777600  1
  H  H12  1  0.98399700  0.58122900  0.29222400  1
  H  H13  1  0.57305800  0.35482900  0.63488800  1
  H  H14  1  0.07305800  0.64517100  0.86511200  1
  H  H15  1  0.42694200  0.64517100  0.36511200  1
  H  H16  1  0.81154700  0.46666900  0.49521900  1
  H  H17  1  0.31154700  0.53333100  0.00478100  1
  H  H18  1  0.92694200  0.35482900  0.13488800  1
  H  H19  1  0.68845300  0.46666900  0.99521900  1
  H  H20  1  0.86037400  0.92111600  0.17690500  1
  H  H21  1  0.36037400  0.07888400  0.32309500  1
  H  H22  1  0.13962600  0.07888400  0.82309500  1
  H  H23  1  0.63962600  0.92111600  0.67690500  1
  H  H24  1  0.91160100  0.99428500  0.29318500  1
  H  H25  1  0.41160100  0.00571500  0.20681500  1
  H  H26  1  0.08839900  0.00571500  0.70681500  1
  H  H27  1  0.58839900  0.99428500  0.79318500  1
  H  H28  1  0.02427400  0.19017400  0.06251700  1
  H  H29  1  0.52427400  0.80982600  0.43748300  1
  H  H30  1  0.97572600  0.80982600  0.93748300  1
  H  H31  1  0.47572600  0.19017400  0.56251700  1
  H  H32  1  0.08766300  0.24467700  0.18605300  1
  H  H33  1  0.58766300  0.75532300  0.31394700  1
  H  H34  1  0.91233700  0.75532300  0.81394700  1
  H  H35  1  0.41233700  0.24467700  0.68605300  1
  C  C36  1  0.82486500  0.08021400  0.47600100  1
  C  C37  1  0.46505600  0.75232300  0.74292700  1
  C  C38  1  0.96505600  0.24767700  0.75707300  1
  C  C39  1  0.53494400  0.24767700  0.25707300  1
  C  C40  1  0.03494400  0.75232300  0.24292700  1
  C  C41  1  0.50082600  0.20588000  0.64508000  1
  C  C42  1  0.00082600  0.79412000  0.85492000  1
  C  C43  1  0.49917400  0.79412000  0.35492000  1
  C  C44  1  0.99917400  0.20588000  0.14508000  1
  C  C45  1  0.70885700  0.79558500  0.02436300  1
  C  C46  1  0.20885700  0.20441500  0.47563700  1
  C  C47  1  0.29114300  0.20441500  0.97563700  1
  C  C48  1  0.79114300  0.79558500  0.52436300  1
  C  C49  1  0.67513500  0.08021400  0.97600100  1
  C  C50  1  0.17513500  0.91978600  0.52399900  1
  C  C51  1  0.32486500  0.91978600  0.02399900  1
  N  N52  1  0.94185700  0.96587800  0.21733300  1
  N  N53  1  0.44185700  0.03412200  0.28266700  1
  N  N54  1  0.05814300  0.03412200  0.78266700  1
  N  N55  1  0.55814300  0.96587800  0.71733300  1
  O  O56  1  0.88759400  0.15916200  0.38537500  1
  O  O57  1  0.38759400  0.84083800  0.11462500  1
  O  O58  1  0.11240600  0.84083800  0.61462500  1
  O  O59  1  0.61240600  0.15916200  0.88537500  1
  O  O60  1  0.78144600  0.21009700  0.53529500  1
  O  O61  1  0.28144600  0.78990300  0.96470500  1
  O  O62  1  0.21855400  0.78990300  0.46470500  1
  O  O63  1  0.71855400  0.21009700  0.03529500  1
  O  O64  1  0.72598900  0.71048400  0.61211600  1
  O  O65  1  0.22598900  0.28951600  0.88788400  1
  O  O66  1  0.27401100  0.28951600  0.38788400  1
  O  O67  1  0.77401100  0.71048400  0.11211600  1
  O  O68  1  0.83523300  0.66573100  0.46231600  1
  O  O69  1  0.33523300  0.33426900  0.03768400  1
  O  O70  1  0.16476700  0.33426900  0.53768400  1
  O  O71  1  0.66476700  0.66573100  0.96231600  1
