# generated using pymatgen
data_Na2CoH8(SO6)2
_symmetry_space_group_name_H-M   'P 1'
_cell_length_a   8.36713700
_cell_length_b   5.57960400
_cell_length_c   11.18358109
_cell_angle_alpha   80.24924057
_cell_angle_beta   90.00000000
_cell_angle_gamma   90.00000000
_symmetry_Int_Tables_number   1
_chemical_formula_structural   Na2CoH8(SO6)2
_chemical_formula_sum   'Na4 Co2 H16 S4 O24'
_cell_volume   514.56647905
_cell_formula_units_Z   2
loop_
 _symmetry_equiv_pos_site_id
 _symmetry_equiv_pos_as_xyz
  1  'x, y, z'
loop_
 _atom_site_type_symbol
 _atom_site_label
 _atom_site_symmetry_multiplicity
 _atom_site_fract_x
 _atom_site_fract_y
 _atom_site_fract_z
 _atom_site_occupancy
  Na  Na0  1  0.92909400  0.37931200  0.86148000  1
  Na  Na1  1  0.07090600  0.62068800  0.13852000  1
  Na  Na2  1  0.57090600  0.37931200  0.36148000  1
  Na  Na3  1  0.42909400  0.62068800  0.63852000  1
  Co  Co4  1  0.50000000  0.50000000  0.00000000  1
  Co  Co5  1  0.00000000  0.50000000  0.50000000  1
  H  H6  1  0.27426400  0.25770200  0.51373900  1
  H  H7  1  0.77426400  0.74229800  0.98626100  1
  H  H8  1  0.72573600  0.74229800  0.48626100  1
  H  H9  1  0.22573600  0.25770200  0.01373900  1
  H  H10  1  0.19770700  0.17198600  0.63981400  1
  H  H11  1  0.69770700  0.82801400  0.86018600  1
  H  H12  1  0.80229300  0.82801400  0.36018600  1
  H  H13  1  0.30229300  0.17198600  0.13981400  1
  H  H14  1  0.86477700  0.73122700  0.65443700  1
  H  H15  1  0.36477700  0.26877300  0.84556300  1
  H  H16  1  0.05462700  0.73590400  0.68132300  1
  H  H17  1  0.55462700  0.26409600  0.81867700  1
  H  H18  1  0.94537300  0.26409600  0.31867700  1
  H  H19  1  0.44537300  0.73590400  0.18132300  1
  H  H20  1  0.13522300  0.26877300  0.34556300  1
  H  H21  1  0.63522300  0.73122700  0.15443700  1
  S  S22  1  0.21376600  0.87392100  0.86413700  1
  S  S23  1  0.28623400  0.87392100  0.36413700  1
  S  S24  1  0.78623400  0.12607900  0.13586300  1
  S  S25  1  0.71376600  0.12607900  0.63586300  1
  O  O26  1  0.58647400  0.28722800  0.57734200  1
  O  O27  1  0.08647400  0.71277200  0.92265800  1
  O  O28  1  0.12819200  0.81270800  0.42329000  1
  O  O29  1  0.91352600  0.28722800  0.07734200  1
  O  O30  1  0.87180800  0.18729200  0.57671000  1
  O  O31  1  0.37180800  0.81270800  0.92329000  1
  O  O32  1  0.32169400  0.13524800  0.37302600  1
  O  O33  1  0.82169400  0.86475200  0.12697400  1
  O  O34  1  0.67830600  0.86475200  0.62697400  1
  O  O35  1  0.41352600  0.71277200  0.42265800  1
  O  O36  1  0.03581600  0.36890300  0.33768300  1
  O  O37  1  0.53581600  0.63109700  0.16231700  1
  O  O38  1  0.96418400  0.63109700  0.66231700  1
  O  O39  1  0.46418400  0.36890300  0.83768300  1
  O  O40  1  0.28444900  0.32045800  0.07885700  1
  O  O41  1  0.78444900  0.67954200  0.42114300  1
  O  O42  1  0.71555100  0.67954200  0.92114300  1
  O  O43  1  0.21555100  0.32045800  0.57885700  1
  O  O44  1  0.22430400  0.85694800  0.73119900  1
  O  O45  1  0.72430400  0.14305200  0.76880100  1
  O  O46  1  0.77569600  0.14305200  0.26880100  1
  O  O47  1  0.27569600  0.85694800  0.23119900  1
  O  O48  1  0.62819200  0.18729200  0.07671000  1
  O  O49  1  0.17830600  0.13524800  0.87302600  1
