# generated using pymatgen
data_VBiPbO5
_symmetry_space_group_name_H-M   'P 1'
_cell_length_a   7.28330629
_cell_length_b   7.28330629
_cell_length_c   7.28370913
_cell_angle_alpha   70.30083018
_cell_angle_beta   70.30083018
_cell_angle_gamma   45.69303607
_symmetry_Int_Tables_number   1
_chemical_formula_structural   VBiPbO5
_chemical_formula_sum   'V2 Bi2 Pb2 O10'
_cell_volume   257.33308740
_cell_formula_units_Z   2
loop_
 _symmetry_equiv_pos_site_id
 _symmetry_equiv_pos_as_xyz
  1  'x, y, z'
loop_
 _atom_site_type_symbol
 _atom_site_label
 _atom_site_symmetry_multiplicity
 _atom_site_fract_x
 _atom_site_fract_y
 _atom_site_fract_z
 _atom_site_occupancy
  V  V0  1  0.83430600  0.83430600  0.64797100  1
  V  V1  1  0.16569400  0.16569400  0.35202900  1
  Bi  Bi2  1  0.48708200  0.48708200  0.25030700  1
  Bi  Bi3  1  0.51291800  0.51291800  0.74969300  1
  Pb  Pb4  1  0.84232400  0.84232400  0.11247600  1
  Pb  Pb5  1  0.15767600  0.15767600  0.88752400  1
  O  O6  1  0.73687100  0.26312900  0.00000000  1
  O  O7  1  0.26312900  0.73687100  0.00000000  1
  O  O8  1  0.30442800  0.30442800  0.28586000  1
  O  O9  1  0.69557200  0.69557200  0.71414000  1
  O  O10  1  0.38377700  0.88506400  0.24062500  1
  O  O11  1  0.11493600  0.61622300  0.75937500  1
  O  O12  1  0.10017600  0.10017600  0.60675800  1
  O  O13  1  0.89982400  0.89982400  0.39324200  1
  O  O14  1  0.88506400  0.38377700  0.24062500  1
  O  O15  1  0.61622300  0.11493600  0.75937500  1
