# generated using pymatgen
data_CaH4SO6
_symmetry_space_group_name_H-M   'P 1'
_cell_length_a   8.19557334
_cell_length_b   8.19557334
_cell_length_c   5.76418668
_cell_angle_alpha   80.76294127
_cell_angle_beta   80.76294127
_cell_angle_gamma   133.95335803
_symmetry_Int_Tables_number   1
_chemical_formula_structural   CaH4SO6
_chemical_formula_sum   'Ca2 H8 S2 O12'
_cell_volume   254.16540893
_cell_formula_units_Z   2
loop_
 _symmetry_equiv_pos_site_id
 _symmetry_equiv_pos_as_xyz
  1  'x, y, z'
loop_
 _atom_site_type_symbol
 _atom_site_label
 _atom_site_symmetry_multiplicity
 _atom_site_fract_x
 _atom_site_fract_y
 _atom_site_fract_z
 _atom_site_occupancy
  Ca  Ca0  1  0.32992100  0.67007900  0.25000000  1
  Ca  Ca1  1  0.67007900  0.32992100  0.75000000  1
  H  H2  1  0.24745700  0.26080700  0.59001100  1
  H  H3  1  0.73919300  0.75254300  0.90998900  1
  H  H4  1  0.75254300  0.73919300  0.40998900  1
  H  H5  1  0.26080700  0.24745700  0.09001100  1
  H  H6  1  0.84004400  0.65994900  0.24235100  1
  H  H7  1  0.34005100  0.15995600  0.25764900  1
  H  H8  1  0.15995600  0.34005100  0.75764900  1
  H  H9  1  0.65994900  0.84004400  0.74235100  1
  S  S10  1  0.82855100  0.17144900  0.25000000  1
  S  S11  1  0.17144900  0.82855100  0.75000000  1
  O  O12  1  0.08203700  0.31292800  0.08420500  1
  O  O13  1  0.31350900  0.85829700  0.90475100  1
  O  O14  1  0.68649100  0.14170300  0.09524900  1
  O  O15  1  0.85829700  0.31350900  0.40475100  1
  O  O16  1  0.36274200  0.22278300  0.08090200  1
  O  O17  1  0.77721700  0.63725800  0.41909800  1
  O  O18  1  0.63725800  0.77721700  0.91909800  1
  O  O19  1  0.22278300  0.36274200  0.58090200  1
  O  O20  1  0.91796300  0.68707200  0.91579500  1
  O  O21  1  0.31292800  0.08203700  0.58420500  1
  O  O22  1  0.14170300  0.68649100  0.59524900  1
  O  O23  1  0.68707200  0.91796300  0.41579500  1
