# generated using pymatgen
data_Ga2NiP3H8NO14
_symmetry_space_group_name_H-M   'P 1'
_cell_length_a   8.43274117
_cell_length_b   8.43274117
_cell_length_c   9.02057660
_cell_angle_alpha   75.77794190
_cell_angle_beta   75.77794190
_cell_angle_gamma   74.39005688
_symmetry_Int_Tables_number   1
_chemical_formula_structural   Ga2NiP3H8NO14
_chemical_formula_sum   'Ga4 Ni2 P6 H16 N2 O28'
_cell_volume   587.68612210
_cell_formula_units_Z   2
loop_
 _symmetry_equiv_pos_site_id
 _symmetry_equiv_pos_as_xyz
  1  'x, y, z'
loop_
 _atom_site_type_symbol
 _atom_site_label
 _atom_site_symmetry_multiplicity
 _atom_site_fract_x
 _atom_site_fract_y
 _atom_site_fract_z
 _atom_site_occupancy
  Ga  Ga0  1  0.90188900  0.75383500  0.56837600  1
  Ga  Ga1  1  0.24616500  0.09811100  0.93162400  1
  Ga  Ga2  1  0.09811100  0.24616500  0.43162400  1
  Ga  Ga3  1  0.75383500  0.90188900  0.06837600  1
  Ni  Ni4  1  0.72451900  0.27548100  0.25000000  1
  Ni  Ni5  1  0.27548100  0.72451900  0.75000000  1
  P  P6  1  0.58239400  0.83409000  0.82271400  1
  P  P7  1  0.16591000  0.41760600  0.67728600  1
  P  P8  1  0.41760600  0.16591000  0.17728600  1
  P  P9  1  0.99918700  0.00081300  0.25000000  1
  P  P10  1  0.00081300  0.99918700  0.75000000  1
  P  P11  1  0.83409000  0.58239400  0.32271400  1
  H  H12  1  0.75139200  0.36488400  0.68335500  1
  H  H13  1  0.63511600  0.24860800  0.81664500  1
  H  H14  1  0.24860800  0.63511600  0.31664500  1
  H  H15  1  0.36488400  0.75139200  0.18335500  1
  H  H16  1  0.60304700  0.45677000  0.81875000  1
  H  H17  1  0.54323000  0.39695300  0.68125000  1
  H  H18  1  0.39695300  0.54323000  0.18125000  1
  H  H19  1  0.45677000  0.60304700  0.31875000  1
  H  H20  1  0.22408700  0.47805400  0.99343500  1
  H  H21  1  0.52194600  0.77591300  0.50656500  1
  H  H22  1  0.77591300  0.52194600  0.00656500  1
  H  H23  1  0.47805400  0.22408700  0.49343500  1
  H  H24  1  0.91977700  0.36797300  0.95641000  1
  H  H25  1  0.63202700  0.08022300  0.54359000  1
  H  H26  1  0.08022300  0.63202700  0.04359000  1
  H  H27  1  0.36797300  0.91977700  0.45641000  1
  N  N28  1  0.36674300  0.63325700  0.25000000  1
  N  N29  1  0.63325700  0.36674300  0.75000000  1
  O  O30  1  0.11720200  0.29851500  0.83749500  1
  O  O31  1  0.49567700  0.69814600  0.81848400  1
  O  O32  1  0.83024100  0.02740800  0.19620900  1
  O  O33  1  0.97259200  0.16975900  0.30379100  1
  O  O34  1  0.03269200  0.84788300  0.38287700  1
  O  O35  1  0.02740800  0.83024100  0.69620900  1
  O  O36  1  0.60155400  0.19395000  0.48028300  1
  O  O37  1  0.80605000  0.39844600  0.01971700  1
  O  O38  1  0.39844600  0.80605000  0.51971700  1
  O  O39  1  0.19395000  0.60155400  0.98028300  1
  O  O40  1  0.88279800  0.70148500  0.16250500  1
  O  O41  1  0.15211700  0.96730800  0.11712300  1
  O  O42  1  0.30185400  0.50432300  0.68151600  1
  O  O43  1  0.70148500  0.88279800  0.66250500  1
  O  O44  1  0.68403100  0.76525400  0.95617600  1
  O  O45  1  0.23474600  0.31596900  0.54382400  1
  O  O46  1  0.31596900  0.23474600  0.04382400  1
  O  O47  1  0.76525400  0.68403100  0.45617600  1
  O  O48  1  0.53487100  0.99251000  0.15669400  1
  O  O49  1  0.00749000  0.46512900  0.34330600  1
  O  O50  1  0.46512900  0.00749000  0.84330600  1
  O  O51  1  0.99251000  0.53487100  0.65669400  1
  O  O52  1  0.69814600  0.49567700  0.31848400  1
  O  O53  1  0.50432300  0.30185400  0.18151600  1
  O  O54  1  0.96730800  0.15211700  0.61712300  1
  O  O55  1  0.84788300  0.03269200  0.88287700  1
  O  O56  1  0.16975900  0.97259200  0.80379100  1
  O  O57  1  0.29851500  0.11720200  0.33749500  1
