# generated using pymatgen
data_Mn2O3F
_symmetry_space_group_name_H-M   'P 1'
_cell_length_a   5.49359258
_cell_length_b   5.49359258
_cell_length_c   7.04285340
_cell_angle_alpha   73.63906112
_cell_angle_beta   73.63906112
_cell_angle_gamma   74.15680359
_symmetry_Int_Tables_number   1
_chemical_formula_structural   Mn2O3F
_chemical_formula_sum   'Mn6 O9 F3'
_cell_volume   191.30666316
_cell_formula_units_Z   3
loop_
 _symmetry_equiv_pos_site_id
 _symmetry_equiv_pos_as_xyz
  1  'x, y, z'
loop_
 _atom_site_type_symbol
 _atom_site_label
 _atom_site_symmetry_multiplicity
 _atom_site_fract_x
 _atom_site_fract_y
 _atom_site_fract_z
 _atom_site_occupancy
  Mn  Mn0  1  0.66501900  0.66585900  0.83537700  1
  Mn  Mn1  1  0.31233800  0.35282000  0.66586500  1
  Mn  Mn2  1  0.64718000  0.68766200  0.33413500  1
  Mn  Mn3  1  0.33414100  0.33498100  0.16462300  1
  Mn  Mn4  1  0.01758500  0.98241500  0.50000000  1
  Mn  Mn5  1  0.02911900  0.97088100  0.00000000  1
  O  O6  1  0.90237500  0.89690600  0.29580700  1
  O  O7  1  0.55127400  0.57514400  0.62801400  1
  O  O8  1  0.23898300  0.22336100  0.95823900  1
  O  O9  1  0.10309400  0.09762500  0.70419300  1
  O  O10  1  0.77663900  0.76101700  0.04176100  1
  O  O11  1  0.42485600  0.44872600  0.37198600  1
  O  O12  1  0.36631000  0.98085800  0.32741300  1
  O  O13  1  0.01914200  0.63369000  0.67258700  1
  O  O14  1  0.31454000  0.68546000  0.00000000  1
  F  F15  1  0.62692200  0.05561400  0.65735000  1
  F  F16  1  0.94438600  0.37307800  0.34265000  1
  F  F17  1  0.72609900  0.27390100  0.00000000  1
