# generated using pymatgen
data_TcH4NO4
_symmetry_space_group_name_H-M   'P 1'
_cell_length_a   7.63579515
_cell_length_b   7.63579515
_cell_length_c   7.63579515
_cell_angle_alpha   131.61803707
_cell_angle_beta   131.61803707
_cell_angle_gamma   70.83296894
_symmetry_Int_Tables_number   1
_chemical_formula_structural   TcH4NO4
_chemical_formula_sum   'Tc2 H8 N2 O8'
_cell_volume   243.70253345
_cell_formula_units_Z   2
loop_
 _symmetry_equiv_pos_site_id
 _symmetry_equiv_pos_as_xyz
  1  'x, y, z'
loop_
 _atom_site_type_symbol
 _atom_site_label
 _atom_site_symmetry_multiplicity
 _atom_site_fract_x
 _atom_site_fract_y
 _atom_site_fract_z
 _atom_site_occupancy
  Tc  Tc0  1  0.50000000  0.50000000  0.00000000  1
  Tc  Tc1  1  0.25000000  0.75000000  0.50000000  1
  H  H2  1  0.07308100  0.18100000  0.15544800  1
  H  H3  1  0.93100000  0.27555200  0.60791800  1
  H  H4  1  0.67691900  0.06900000  0.34455200  1
  H  H5  1  0.81900000  0.97444800  0.89208200  1
  H  H6  1  0.02555200  0.91763300  0.84455200  1
  H  H7  1  0.72444800  0.33236700  0.65544800  1
  H  H8  1  0.66763300  0.32308100  0.39208200  1
  H  H9  1  0.08236700  0.92691900  0.10791800  1
  N  N10  1  0.75000000  0.25000000  0.50000000  1
  N  N11  1  0.00000000  0.00000000  0.00000000  1
  O  O12  1  0.26950900  0.46482600  0.39536200  1
  O  O13  1  0.62414700  0.51950900  0.30468300  1
  O  O14  1  0.48049100  0.78517400  0.10463800  1
  O  O15  1  0.53517400  0.93053600  0.80468300  1
  O  O16  1  0.12585300  0.73049100  0.19531700  1
  O  O17  1  0.06946400  0.87414700  0.60463800  1
  O  O18  1  0.21482600  0.31946400  0.69531700  1
  O  O19  1  0.68053600  0.37585300  0.89536200  1
