# generated using pymatgen
data_Ca3Al2(HO)12
_symmetry_space_group_name_H-M   'P 1'
_cell_length_a   11.01069028
_cell_length_b   11.01069028
_cell_length_c   11.01069028
_cell_angle_alpha   109.47122063
_cell_angle_beta   109.47122063
_cell_angle_gamma   109.47122063
_symmetry_Int_Tables_number   1
_chemical_formula_structural   Ca3Al2(HO)12
_chemical_formula_sum   'Ca12 Al8 H48 O48'
_cell_volume   1027.59444865
_cell_formula_units_Z   4
loop_
 _symmetry_equiv_pos_site_id
 _symmetry_equiv_pos_as_xyz
  1  'x, y, z'
loop_
 _atom_site_type_symbol
 _atom_site_label
 _atom_site_symmetry_multiplicity
 _atom_site_fract_x
 _atom_site_fract_y
 _atom_site_fract_z
 _atom_site_occupancy
  Ca  Ca0  1  0.25000000  0.37500000  0.12500000  1
  Ca  Ca1  1  0.75000000  0.12500000  0.37500000  1
  Ca  Ca2  1  0.37500000  0.12500000  0.25000000  1
  Ca  Ca3  1  0.37500000  0.75000000  0.12500000  1
  Ca  Ca4  1  0.12500000  0.37500000  0.75000000  1
  Ca  Ca5  1  0.12500000  0.25000000  0.37500000  1
  Ca  Ca6  1  0.62500000  0.25000000  0.87500000  1
  Ca  Ca7  1  0.75000000  0.62500000  0.87500000  1
  Ca  Ca8  1  0.25000000  0.87500000  0.62500000  1
  Ca  Ca9  1  0.62500000  0.87500000  0.75000000  1
  Ca  Ca10  1  0.87500000  0.62500000  0.25000000  1
  Ca  Ca11  1  0.87500000  0.75000000  0.62500000  1
  Al  Al12  1  0.50000000  0.00000000  0.00000000  1
  Al  Al13  1  0.50000000  0.50000000  0.00000000  1
  Al  Al14  1  0.00000000  0.50000000  0.50000000  1
  Al  Al15  1  0.00000000  0.00000000  0.00000000  1
  Al  Al16  1  0.00000000  0.00000000  0.50000000  1
  Al  Al17  1  0.50000000  0.50000000  0.50000000  1
  Al  Al18  1  0.00000000  0.50000000  0.00000000  1
  Al  Al19  1  0.50000000  0.00000000  0.50000000  1
  H  H20  1  0.73929900  0.78958500  0.34966300  1
  H  H21  1  0.34966300  0.73929900  0.78958500  1
  H  H22  1  0.11036400  0.05028700  0.76070100  1
  H  H23  1  0.56007800  0.71041500  0.44971300  1
  H  H24  1  0.05028700  0.78958500  0.93992200  1
  H  H25  1  0.15033700  0.93992200  0.38963600  1
  H  H26  1  0.34966300  0.11036400  0.56007800  1
  H  H27  1  0.78958500  0.34966300  0.73929900  1
  H  H28  1  0.44971300  0.38963600  0.73929900  1
  H  H29  1  0.56007800  0.34966300  0.11036400  1
  H  H30  1  0.78958500  0.93992200  0.05028700  1
  H  H31  1  0.71041500  0.76070100  0.15033700  1
  H  H32  1  0.76070100  0.15033700  0.71041500  1
  H  H33  1  0.11036400  0.56007800  0.34966300  1
  H  H34  1  0.73929900  0.44971300  0.38963600  1
  H  H35  1  0.38963600  0.73929900  0.44971300  1
  H  H36  1  0.93992200  0.05028700  0.78958500  1
  H  H37  1  0.76070100  0.11036400  0.05028700  1
  H  H38  1  0.93992200  0.38963600  0.15033700  1
  H  H39  1  0.44971300  0.56007800  0.71041500  1
  H  H40  1  0.38963600  0.15033700  0.93992200  1
  H  H41  1  0.15033700  0.71041500  0.76070100  1
  H  H42  1  0.26070100  0.21041500  0.65033700  1
  H  H43  1  0.65033700  0.26070100  0.21041500  1
  H  H44  1  0.88963600  0.94971300  0.23929900  1
  H  H45  1  0.43992200  0.28958500  0.55028700  1
  H  H46  1  0.94971300  0.21041500  0.06007800  1
  H  H47  1  0.84966300  0.06007800  0.61036400  1
  H  H48  1  0.65033700  0.88963600  0.43992200  1
  H  H49  1  0.21041500  0.65033700  0.26070100  1
  H  H50  1  0.55028700  0.61036400  0.26070100  1
  H  H51  1  0.43992200  0.65033700  0.88963600  1
  H  H52  1  0.21041500  0.06007800  0.94971300  1
  H  H53  1  0.28958500  0.23929900  0.84966300  1
  H  H54  1  0.23929900  0.84966300  0.28958500  1
  H  H55  1  0.88963600  0.43992200  0.65033700  1
  H  H56  1  0.26070100  0.55028700  0.61036400  1
  H  H57  1  0.61036400  0.26070100  0.55028700  1
  H  H58  1  0.06007800  0.94971300  0.21041500  1
  H  H59  1  0.23929900  0.88963600  0.94971300  1
  H  H60  1  0.06007800  0.61036400  0.84966300  1
  H  H61  1  0.55028700  0.43992200  0.28958500  1
  H  H62  1  0.94971300  0.23929900  0.88963600  1
  H  H63  1  0.28958500  0.55028700  0.43992200  1
  H  H64  1  0.61036400  0.84966300  0.06007800  1
  H  H65  1  0.84966300  0.28958500  0.23929900  1
  H  H66  1  0.05028700  0.76070100  0.11036400  1
  H  H67  1  0.71041500  0.44971300  0.56007800  1
  O  O68  1  0.16671300  0.47492800  0.58801600  1
  O  O69  1  0.02507200  0.19178500  0.11308800  1
  O  O70  1  0.92130300  0.30821500  0.33328700  1
  O  O71  1  0.02507200  0.33328700  0.91198400  1
  O  O72  1  0.19178500  0.57869700  0.16671300  1
  O  O73  1  0.57869700  0.16671300  0.19178500  1
  O  O74  1  0.30821500  0.47492800  0.38691200  1
  O  O75  1  0.92130300  0.11308800  0.58801600  1
  O  O76  1  0.58801600  0.92130300  0.11308800  1
  O  O77  1  0.91198400  0.02507200  0.33328700  1
  O  O78  1  0.58801600  0.16671300  0.47492800  1
  O  O79  1  0.16671300  0.19178500  0.57869700  1
  O  O80  1  0.91198400  0.38691200  0.57869700  1
  O  O81  1  0.38691200  0.30821500  0.47492800  1
  O  O82  1  0.11308800  0.02507200  0.19178500  1
  O  O83  1  0.33328700  0.91198400  0.02507200  1
  O  O84  1  0.47492800  0.58801600  0.16671300  1
  O  O85  1  0.30821500  0.33328700  0.92130300  1
  O  O86  1  0.38691200  0.57869700  0.91198400  1
  O  O87  1  0.57869700  0.91198400  0.38691200  1
  O  O88  1  0.19178500  0.11308800  0.02507200  1
  O  O89  1  0.11308800  0.58801600  0.92130300  1
  O  O90  1  0.42130300  0.08801600  0.61308800  1
  O  O91  1  0.61308800  0.42130300  0.08801600  1
  O  O92  1  0.69178500  0.66671300  0.07869700  1
  O  O93  1  0.52507200  0.41198400  0.83328700  1
  O  O94  1  0.66671300  0.08801600  0.97492800  1
  O  O95  1  0.88691200  0.97492800  0.80821500  1
  O  O96  1  0.61308800  0.69178500  0.52507200  1
  O  O97  1  0.08801600  0.61308800  0.42130300  1
  O  O98  1  0.83328700  0.80821500  0.42130300  1
  O  O99  1  0.52507200  0.61308800  0.69178500  1
  O  O100  1  0.08801600  0.97492800  0.66671300  1
  O  O101  1  0.41198400  0.07869700  0.88691200  1
  O  O102  1  0.07869700  0.88691200  0.41198400  1
  O  O103  1  0.69178500  0.52507200  0.61308800  1
  O  O104  1  0.42130300  0.83328700  0.80821500  1
  O  O105  1  0.80821500  0.42130300  0.83328700  1
  O  O106  1  0.97492800  0.66671300  0.08801600  1
  O  O107  1  0.07869700  0.69178500  0.66671300  1
  O  O108  1  0.97492800  0.80821500  0.88691200  1
  O  O109  1  0.83328700  0.52507200  0.41198400  1
  O  O110  1  0.66671300  0.07869700  0.69178500  1
  O  O111  1  0.41198400  0.83328700  0.52507200  1
  O  O112  1  0.80821500  0.88691200  0.97492800  1
  O  O113  1  0.88691200  0.41198400  0.07869700  1
  O  O114  1  0.33328700  0.92130300  0.30821500  1
  O  O115  1  0.47492800  0.38691200  0.30821500  1
