# generated using pymatgen
data_H4INO4
_symmetry_space_group_name_H-M   'P 1'
_cell_length_a   7.58224839
_cell_length_b   7.58224839
_cell_length_c   7.58224839
_cell_angle_alpha   131.24164100
_cell_angle_beta   131.24164100
_cell_angle_gamma   71.42944236
_symmetry_Int_Tables_number   1
_chemical_formula_structural   H4INO4
_chemical_formula_sum   'H8 I2 N2 O8'
_cell_volume   241.21153386
_cell_formula_units_Z   2
loop_
 _symmetry_equiv_pos_site_id
 _symmetry_equiv_pos_as_xyz
  1  'x, y, z'
loop_
 _atom_site_type_symbol
 _atom_site_label
 _atom_site_symmetry_multiplicity
 _atom_site_fract_x
 _atom_site_fract_y
 _atom_site_fract_z
 _atom_site_occupancy
  H  H0  1  0.81894000  0.92421200  0.84197800  1
  H  H1  1  0.72696200  0.06894000  0.39472800  1
  H  H2  1  0.67421200  0.33223400  0.60527200  1
  H  H3  1  0.08223400  0.97696200  0.15802200  1
  H  H4  1  0.93106000  0.32578800  0.65802200  1
  H  H5  1  0.02303800  0.18106000  0.10527200  1
  H  H6  1  0.07578800  0.91776600  0.89472800  1
  H  H7  1  0.66776600  0.27303800  0.34197800  1
  I  I8  1  0.25000000  0.75000000  0.50000000  1
  I  I9  1  0.50000000  0.50000000  0.00000000  1
  N  N10  1  0.75000000  0.25000000  0.50000000  1
  N  N11  1  0.00000000  0.00000000  0.00000000  1
  O  O12  1  0.53624600  0.71142800  0.58266600  1
  O  O13  1  0.21375400  0.53857200  0.91733400  1
  O  O14  1  0.62123700  0.29642000  0.08266600  1
  O  O15  1  0.04642000  0.46375400  0.17518300  1
  O  O16  1  0.46142800  0.37876300  0.67518300  1
  O  O17  1  0.70358000  0.78624600  0.32481700  1
  O  O18  1  0.12876300  0.95358000  0.41733400  1
  O  O19  1  0.28857200  0.87123700  0.82481700  1
