# generated using pymatgen
data_Co(HO)2
_symmetry_space_group_name_H-M   'P 1'
_cell_length_a   3.20948039
_cell_length_b   3.22533541
_cell_length_c   4.77850717
_cell_angle_alpha   90.71539817
_cell_angle_beta   89.89952374
_cell_angle_gamma   120.44917945
_symmetry_Int_Tables_number   1
_chemical_formula_structural   Co(HO)2
_chemical_formula_sum   'Co1 H2 O2'
_cell_volume   42.63919048
_cell_formula_units_Z   1
loop_
 _symmetry_equiv_pos_site_id
 _symmetry_equiv_pos_as_xyz
  1  'x, y, z'
loop_
 _atom_site_type_symbol
 _atom_site_label
 _atom_site_symmetry_multiplicity
 _atom_site_fract_x
 _atom_site_fract_y
 _atom_site_fract_z
 _atom_site_occupancy
  Co  Co0  1  0.00018600  0.93822800  0.00003600  1
  H  H1  1  0.65515200  0.26837900  0.57674800  1
  H  H2  1  0.34457700  0.60386300  0.42326500  1
  O  O3  1  0.65984400  0.27008600  0.78048100  1
  O  O4  1  0.34024100  0.60549900  0.21947000  1
