# generated using pymatgen
data_RbCrH24(SO10)2
_symmetry_space_group_name_H-M   'P 1'
_cell_length_a   12.40027200
_cell_length_b   12.40027200
_cell_length_c   12.40027200
_cell_angle_alpha   90.00000000
_cell_angle_beta   90.00000000
_cell_angle_gamma   90.00000000
_symmetry_Int_Tables_number   1
_chemical_formula_structural   RbCrH24(SO10)2
_chemical_formula_sum   'Rb4 Cr4 H96 S8 O80'
_cell_volume   1906.74947091
_cell_formula_units_Z   4
loop_
 _symmetry_equiv_pos_site_id
 _symmetry_equiv_pos_as_xyz
  1  'x, y, z'
loop_
 _atom_site_type_symbol
 _atom_site_label
 _atom_site_symmetry_multiplicity
 _atom_site_fract_x
 _atom_site_fract_y
 _atom_site_fract_z
 _atom_site_occupancy
  Rb  Rb0  1  0.00000000  0.50000000  0.50000000  1
  Rb  Rb1  1  0.50000000  0.50000000  0.00000000  1
  Rb  Rb2  1  0.50000000  0.00000000  0.50000000  1
  Rb  Rb3  1  0.00000000  0.00000000  0.00000000  1
  Cr  Cr4  1  0.50000000  0.00000000  0.00000000  1
  Cr  Cr5  1  0.00000000  0.00000000  0.50000000  1
  Cr  Cr6  1  0.00000000  0.50000000  0.00000000  1
  Cr  Cr7  1  0.50000000  0.50000000  0.50000000  1
  H  H8  1  0.78992100  0.47470700  0.05151400  1
  H  H9  1  0.28992100  0.02529300  0.94848500  1
  H  H10  1  0.21007900  0.97470700  0.44848600  1
  H  H11  1  0.02529300  0.94848500  0.28992100  1
  H  H12  1  0.44848600  0.21007900  0.97470700  1
  H  H13  1  0.94848500  0.28992100  0.02529300  1
  H  H14  1  0.47470700  0.05151400  0.78992100  1
  H  H15  1  0.05151400  0.78992100  0.47470700  1
  H  H16  1  0.97470700  0.44848600  0.21007900  1
  H  H17  1  0.52529300  0.55151500  0.71007900  1
  H  H18  1  0.55151500  0.71007900  0.52529300  1
  H  H19  1  0.71007900  0.52529300  0.55151500  1
  H  H20  1  0.21007900  0.52529300  0.94848500  1
  H  H21  1  0.71007900  0.97470700  0.05151400  1
  H  H22  1  0.78992100  0.02529300  0.55151500  1
  H  H23  1  0.97470700  0.05151400  0.71007900  1
  H  H24  1  0.55151500  0.78992100  0.02529300  1
  H  H25  1  0.05151400  0.71007900  0.97470700  1
  H  H26  1  0.52529300  0.94848500  0.21007900  1
  H  H27  1  0.94848500  0.21007900  0.52529300  1
  H  H28  1  0.02529300  0.55151500  0.78992100  1
  H  H29  1  0.47470700  0.44848600  0.28992100  1
  H  H30  1  0.44848600  0.28992100  0.47470700  1
  H  H31  1  0.28992100  0.47470700  0.44848600  1
  H  H32  1  0.80662800  0.46302300  0.92043400  1
  H  H33  1  0.30662800  0.03697700  0.07956600  1
  H  H34  1  0.19337200  0.96302300  0.57956600  1
  H  H35  1  0.03697700  0.07956600  0.30662800  1
  H  H36  1  0.57956600  0.19337200  0.96302300  1
  H  H37  1  0.07956600  0.30662800  0.03697700  1
  H  H38  1  0.46302300  0.92043400  0.80662800  1
  H  H39  1  0.92043400  0.80662800  0.46302300  1
  H  H40  1  0.96302300  0.57956600  0.19337200  1
  H  H41  1  0.53697700  0.42043400  0.69337200  1
  H  H42  1  0.42043400  0.69337200  0.53697700  1
  H  H43  1  0.69337200  0.53697700  0.42043400  1
  H  H44  1  0.19337200  0.53697700  0.07956600  1
  H  H45  1  0.69337200  0.96302300  0.92043400  1
  H  H46  1  0.80662800  0.03697700  0.42043400  1
  H  H47  1  0.96302300  0.92043400  0.69337200  1
  H  H48  1  0.42043400  0.80662800  0.03697700  1
  H  H49  1  0.92043400  0.69337200  0.96302300  1
  H  H50  1  0.53697700  0.07956600  0.19337200  1
  H  H51  1  0.07956600  0.19337200  0.53697700  1
  H  H52  1  0.03697700  0.42043400  0.80662800  1
  H  H53  1  0.46302300  0.57956600  0.30662800  1
  H  H54  1  0.57956600  0.30662800  0.46302300  1
  H  H55  1  0.82583800  0.21463700  0.11880400  1
  H  H56  1  0.29812600  0.21980100  0.50417600  1
  H  H57  1  0.79812600  0.28019900  0.49582400  1
  H  H58  1  0.70187400  0.71980100  0.99582400  1
  H  H59  1  0.28019900  0.49582400  0.79812600  1
  H  H60  1  0.99582400  0.70187400  0.71980100  1
  H  H61  1  0.49582400  0.79812600  0.28019900  1
  H  H62  1  0.21980100  0.50417600  0.29812600  1
  H  H63  1  0.50417600  0.29812600  0.21980100  1
  H  H64  1  0.71980100  0.99582400  0.70187400  1
  H  H65  1  0.78019900  0.00417600  0.20187400  1
  H  H66  1  0.00417600  0.20187400  0.78019900  1
  H  H67  1  0.20187400  0.78019900  0.00417600  1
  H  H68  1  0.70187400  0.78019900  0.49582400  1
  H  H69  1  0.20187400  0.71980100  0.50417600  1
  H  H70  1  0.29812600  0.28019900  0.00417600  1
  H  H71  1  0.71980100  0.50417600  0.20187400  1
  H  H72  1  0.00417600  0.29812600  0.28019900  1
  H  H73  1  0.50417600  0.20187400  0.71980100  1
  H  H74  1  0.78019900  0.49582400  0.70187400  1
  H  H75  1  0.49582400  0.70187400  0.78019900  1
  H  H76  1  0.28019900  0.00417600  0.29812600  1
  H  H77  1  0.21980100  0.99582400  0.79812600  1
  H  H78  1  0.99582400  0.79812600  0.21980100  1
  H  H79  1  0.79812600  0.21980100  0.99582400  1
  H  H80  1  0.32583800  0.21463700  0.38119600  1
  H  H81  1  0.82583800  0.28536300  0.61880400  1
  H  H82  1  0.67416200  0.71463700  0.11880400  1
  H  H83  1  0.28536300  0.61880400  0.82583800  1
  H  H84  1  0.11880400  0.67416200  0.71463700  1
  H  H85  1  0.61880400  0.82583800  0.28536300  1
  H  H86  1  0.21463700  0.38119600  0.32583800  1
  H  H87  1  0.38119600  0.32583800  0.21463700  1
  H  H88  1  0.71463700  0.11880400  0.67416200  1
  H  H89  1  0.78536300  0.88119600  0.17416200  1
  H  H90  1  0.88119600  0.17416200  0.78536300  1
  H  H91  1  0.17416200  0.78536300  0.88119600  1
  H  H92  1  0.67416200  0.78536300  0.61880400  1
  H  H93  1  0.17416200  0.71463700  0.38119600  1
  H  H94  1  0.32583800  0.28536300  0.88119600  1
  H  H95  1  0.71463700  0.38119600  0.17416200  1
  H  H96  1  0.88119600  0.32583800  0.28536300  1
  H  H97  1  0.38119600  0.17416200  0.71463700  1
  H  H98  1  0.78536300  0.61880400  0.67416200  1
  H  H99  1  0.61880400  0.67416200  0.78536300  1
  H  H100  1  0.28536300  0.88119600  0.32583800  1
  H  H101  1  0.21463700  0.11880400  0.82583800  1
  H  H102  1  0.11880400  0.82583800  0.21463700  1
  H  H103  1  0.30662800  0.46302300  0.57956600  1
  S  S104  1  0.19043600  0.30956400  0.69043600  1
  S  S105  1  0.30956400  0.69043600  0.19043600  1
  S  S106  1  0.69043600  0.19043600  0.30956400  1
  S  S107  1  0.80956400  0.80956400  0.80956400  1
  S  S108  1  0.80956400  0.69043600  0.30956400  1
  S  S109  1  0.69043600  0.30956400  0.80956400  1
  S  S110  1  0.30956400  0.80956400  0.69043600  1
  S  S111  1  0.19043600  0.19043600  0.19043600  1
  O  O112  1  0.84017700  0.49159200  0.98814300  1
  O  O113  1  0.34017700  0.00840800  0.01185700  1
  O  O114  1  0.15982300  0.99159200  0.51185700  1
  O  O115  1  0.00840800  0.01185700  0.34017700  1
  O  O116  1  0.51185700  0.15982300  0.99159200  1
  O  O117  1  0.01185700  0.34017700  0.00840800  1
  O  O118  1  0.49159200  0.98814300  0.84017700  1
  O  O119  1  0.98814300  0.84017700  0.49159200  1
  O  O120  1  0.99159200  0.51185700  0.15982300  1
  O  O121  1  0.50840800  0.48814300  0.65982300  1
  O  O122  1  0.48814300  0.65982300  0.50840800  1
  O  O123  1  0.65982300  0.50840800  0.48814300  1
  O  O124  1  0.15982300  0.50840800  0.01185700  1
  O  O125  1  0.65982300  0.99159200  0.98814300  1
  O  O126  1  0.84017700  0.00840800  0.48814300  1
  O  O127  1  0.99159200  0.98814300  0.65982300  1
  O  O128  1  0.48814300  0.84017700  0.00840800  1
  O  O129  1  0.98814300  0.65982300  0.99159200  1
  O  O130  1  0.50840800  0.01185700  0.15982300  1
  O  O131  1  0.01185700  0.15982300  0.50840800  1
  O  O132  1  0.00840800  0.48814300  0.84017700  1
  O  O133  1  0.49159200  0.51185700  0.34017700  1
  O  O134  1  0.51185700  0.34017700  0.49159200  1
  O  O135  1  0.34017700  0.49159200  0.51185700  1
  O  O136  1  0.35814300  0.20383200  0.45348200  1
  O  O137  1  0.85814300  0.29616800  0.54651800  1
  O  O138  1  0.64185700  0.70383200  0.04651800  1
  O  O139  1  0.29616800  0.54651800  0.85814300  1
  O  O140  1  0.04651800  0.64185700  0.70383200  1
  O  O141  1  0.54651800  0.85814300  0.29616800  1
  O  O142  1  0.20383200  0.45348200  0.35814300  1
  O  O143  1  0.45348200  0.35814300  0.20383200  1
  O  O144  1  0.70383200  0.04651800  0.64185700  1
  O  O145  1  0.79616800  0.95348200  0.14185700  1
  O  O146  1  0.95348200  0.14185700  0.79616800  1
  O  O147  1  0.14185700  0.79616800  0.95348200  1
  O  O148  1  0.64185700  0.79616800  0.54651800  1
  O  O149  1  0.14185700  0.70383200  0.45348200  1
  O  O150  1  0.35814300  0.29616800  0.95348200  1
  O  O151  1  0.70383200  0.45348200  0.14185700  1
  O  O152  1  0.95348200  0.35814300  0.29616800  1
  O  O153  1  0.45348200  0.14185700  0.70383200  1
  O  O154  1  0.79616800  0.54651800  0.64185700  1
  O  O155  1  0.54651800  0.64185700  0.79616800  1
  O  O156  1  0.29616800  0.95348200  0.35814300  1
  O  O157  1  0.20383200  0.04651800  0.85814300  1
  O  O158  1  0.04651800  0.85814300  0.20383200  1
  O  O159  1  0.85814300  0.20383200  0.04651800  1
  O  O160  1  0.57935200  0.18614500  0.26366500  1
  O  O161  1  0.07935200  0.31385500  0.73633500  1
  O  O162  1  0.42064800  0.68614500  0.23633500  1
  O  O163  1  0.31385500  0.73633500  0.07935200  1
  O  O164  1  0.23633500  0.42064800  0.68614500  1
  O  O165  1  0.73633500  0.07935200  0.31385500  1
  O  O166  1  0.18614500  0.26366500  0.57935200  1
  O  O167  1  0.26366500  0.57935200  0.18614500  1
  O  O168  1  0.68614500  0.23633500  0.42064800  1
  O  O169  1  0.81385500  0.76366500  0.92064800  1
  O  O170  1  0.76366500  0.92064800  0.81385500  1
  O  O171  1  0.92064800  0.81385500  0.76366500  1
  O  O172  1  0.42064800  0.81385500  0.73633500  1
  O  O173  1  0.92064800  0.68614500  0.26366500  1
  O  O174  1  0.57935200  0.31385500  0.76366500  1
  O  O175  1  0.68614500  0.26366500  0.92064800  1
  O  O176  1  0.76366500  0.57935200  0.31385500  1
  O  O177  1  0.26366500  0.92064800  0.68614500  1
  O  O178  1  0.81385500  0.73633500  0.42064800  1
  O  O179  1  0.73633500  0.42064800  0.81385500  1
  O  O180  1  0.31385500  0.76366500  0.57935200  1
  O  O181  1  0.18614500  0.23633500  0.07935200  1
  O  O182  1  0.23633500  0.07935200  0.18614500  1
  O  O183  1  0.07935200  0.18614500  0.23633500  1
  O  O184  1  0.26043100  0.26043100  0.26043100  1
  O  O185  1  0.23956900  0.76043100  0.26043100  1
  O  O186  1  0.76043100  0.26043100  0.23956900  1
  O  O187  1  0.73956900  0.73956900  0.73956900  1
  O  O188  1  0.73956900  0.76043100  0.23956900  1
  O  O189  1  0.76043100  0.23956900  0.73956900  1
  O  O190  1  0.23956900  0.73956900  0.76043100  1
  O  O191  1  0.26043100  0.23956900  0.76043100  1
