# generated using pymatgen
data_KVH24(SO10)2
_symmetry_space_group_name_H-M   'P 1'
_cell_length_a   12.38282583
_cell_length_b   12.38282583
_cell_length_c   12.38282583
_cell_angle_alpha   90.00000000
_cell_angle_beta   90.00000000
_cell_angle_gamma   90.00000000
_symmetry_Int_Tables_number   1
_chemical_formula_structural   KVH24(SO10)2
_chemical_formula_sum   'K4 V4 H96 S8 O80'
_cell_volume   1898.71286602
_cell_formula_units_Z   4
loop_
 _symmetry_equiv_pos_site_id
 _symmetry_equiv_pos_as_xyz
  1  'x, y, z'
loop_
 _atom_site_type_symbol
 _atom_site_label
 _atom_site_symmetry_multiplicity
 _atom_site_fract_x
 _atom_site_fract_y
 _atom_site_fract_z
 _atom_site_occupancy
  K  K0  1  0.50000000  -0.00000000  -0.00000000  1
  K  K1  1  -0.00000000  0.50000000  -0.00000000  1
  K  K2  1  -0.00000000  -0.00000000  0.50000000  1
  K  K3  1  0.50000000  0.50000000  0.50000000  1
  V  V4  1  -0.00000000  -0.00000000  -0.00000000  1
  V  V5  1  0.50000000  -0.00000000  0.50000000  1
  V  V6  1  0.50000000  0.50000000  -0.00000000  1
  V  V7  1  -0.00000000  0.50000000  0.50000000  1
  H  H8  1  0.70724575  0.06522541  0.52641107  1
  H  H9  1  0.20724575  0.43477459  0.47358893  1
  H  H10  1  0.29275425  0.56522541  0.97358893  1
  H  H11  1  0.43477459  0.47358893  0.20724575  1
  H  H12  1  0.97358893  0.29275425  0.56522541  1
  H  H13  1  0.47358893  0.20724575  0.43477459  1
  H  H14  1  0.06522541  0.52641107  0.70724575  1
  H  H15  1  0.52641107  0.70724575  0.06522541  1
  H  H16  1  0.56522541  0.97358893  0.29275425  1
  H  H17  1  0.93477459  0.02641107  0.79275425  1
  H  H18  1  0.02641107  0.79275425  0.93477459  1
  H  H19  1  0.79275425  0.93477459  0.02641107  1
  H  H20  1  0.29275425  0.93477459  0.47358893  1
  H  H21  1  0.79275425  0.56522541  0.52641107  1
  H  H22  1  0.70724575  0.43477459  0.02641107  1
  H  H23  1  0.56522541  0.52641107  0.79275425  1
  H  H24  1  0.02641107  0.70724575  0.43477459  1
  H  H25  1  0.52641107  0.79275425  0.56522541  1
  H  H26  1  0.93477459  0.47358893  0.29275425  1
  H  H27  1  0.47358893  0.29275425  0.93477459  1
  H  H28  1  0.43477459  0.02641107  0.70724575  1
  H  H29  1  0.06522541  0.97358893  0.20724575  1
  H  H30  1  0.97358893  0.20724575  0.06522541  1
  H  H31  1  0.20724575  0.06522541  0.97358893  1
  H  H32  1  0.71396907  0.94062296  0.47871358  1
  H  H33  1  0.21396907  0.55937704  0.52128642  1
  H  H34  1  0.28603093  0.44062296  0.02128642  1
  H  H35  1  0.55937704  0.52128642  0.21396907  1
  H  H36  1  0.02128642  0.28603093  0.44062296  1
  H  H37  1  0.52128642  0.21396907  0.55937704  1
  H  H38  1  0.94062296  0.47871358  0.71396907  1
  H  H39  1  0.47871358  0.71396907  0.94062296  1
  H  H40  1  0.44062296  0.02128642  0.28603093  1
  H  H41  1  0.05937704  0.97871358  0.78603093  1
  H  H42  1  0.97871358  0.78603093  0.05937704  1
  H  H43  1  0.78603093  0.05937704  0.97871358  1
  H  H44  1  0.28603093  0.05937704  0.52128642  1
  H  H45  1  0.78603093  0.44062296  0.47871358  1
  H  H46  1  0.71396907  0.55937704  0.97871358  1
  H  H47  1  0.44062296  0.47871358  0.78603093  1
  H  H48  1  0.97871358  0.71396907  0.55937704  1
  H  H49  1  0.47871358  0.78603093  0.44062296  1
  H  H50  1  0.05937704  0.52128642  0.28603093  1
  H  H51  1  0.52128642  0.28603093  0.05937704  1
  H  H52  1  0.55937704  0.97871358  0.71396907  1
  H  H53  1  0.94062296  0.02128642  0.21396907  1
  H  H54  1  0.02128642  0.21396907  0.94062296  1
  H  H55  1  0.50645168  0.22228428  0.21347879  1
  H  H56  1  0.62630143  0.21358003  0.17593097  1
  H  H57  1  0.12630143  0.28641997  0.82406903  1
  H  H58  1  0.37369857  0.71358003  0.32406903  1
  H  H59  1  0.28641997  0.82406903  0.12630143  1
  H  H60  1  0.32406903  0.37369857  0.71358003  1
  H  H61  1  0.82406903  0.12630143  0.28641997  1
  H  H62  1  0.21358003  0.17593097  0.62630143  1
  H  H63  1  0.17593097  0.62630143  0.21358003  1
  H  H64  1  0.71358003  0.32406903  0.37369857  1
  H  H65  1  0.78641997  0.67593097  0.87369857  1
  H  H66  1  0.67593097  0.87369857  0.78641997  1
  H  H67  1  0.87369857  0.78641997  0.67593097  1
  H  H68  1  0.37369857  0.78641997  0.82406903  1
  H  H69  1  0.87369857  0.71358003  0.17593097  1
  H  H70  1  0.62630143  0.28641997  0.67593097  1
  H  H71  1  0.71358003  0.17593097  0.87369857  1
  H  H72  1  0.67593097  0.62630143  0.28641997  1
  H  H73  1  0.17593097  0.87369857  0.71358003  1
  H  H74  1  0.78641997  0.82406903  0.37369857  1
  H  H75  1  0.82406903  0.37369857  0.78641997  1
  H  H76  1  0.28641997  0.67593097  0.62630143  1
  H  H77  1  0.21358003  0.32406903  0.12630143  1
  H  H78  1  0.32406903  0.12630143  0.21358003  1
  H  H79  1  0.12630143  0.21358003  0.32406903  1
  H  H80  1  0.00645168  0.22228428  0.28652121  1
  H  H81  1  0.28652121  0.00645168  0.22228428  1
  H  H82  1  0.22228428  0.28652121  0.00645168  1
  H  H83  1  0.27771572  0.71347879  0.50645168  1
  H  H84  1  0.78652121  0.49354832  0.77771572  1
  H  H85  1  0.77771572  0.78652121  0.49354832  1
  H  H86  1  0.21347879  0.99354832  0.72228428  1
  H  H87  1  0.71347879  0.50645168  0.27771572  1
  H  H88  1  0.72228428  0.21347879  0.99354832  1
  H  H89  1  0.50645168  0.27771572  0.71347879  1
  H  H90  1  0.99354832  0.72228428  0.21347879  1
  H  H91  1  0.49354832  0.77771572  0.78652121  1
  H  H92  1  0.99354832  0.77771572  0.71347879  1
  H  H93  1  0.71347879  0.99354832  0.77771572  1
  H  H94  1  0.77771572  0.71347879  0.99354832  1
  H  H95  1  0.72228428  0.28652121  0.49354832  1
  H  H96  1  0.21347879  0.50645168  0.22228428  1
  H  H97  1  0.22228428  0.21347879  0.50645168  1
  H  H98  1  0.78652121  0.00645168  0.27771572  1
  H  H99  1  0.28652121  0.49354832  0.72228428  1
  H  H100  1  0.27771572  0.78652121  0.00645168  1
  H  H101  1  0.49354832  0.72228428  0.28652121  1
  H  H102  1  0.00645168  0.27771572  0.78652121  1
  H  H103  1  0.21396907  0.94062296  0.02128642  1
  S  S104  1  0.32520104  0.17479896  0.82520104  1
  S  S105  1  0.17479896  0.82520104  0.32520104  1
  S  S106  1  0.82520104  0.32520104  0.17479896  1
  S  S107  1  0.67479896  0.67479896  0.67479896  1
  S  S108  1  0.67479896  0.82520104  0.17479896  1
  S  S109  1  0.32520104  0.32520104  0.32520104  1
  S  S110  1  0.17479896  0.67479896  0.82520104  1
  S  S111  1  0.82520104  0.17479896  0.67479896  1
  O  O112  1  0.55160269  0.20120752  0.15067151  1
  O  O113  1  0.05160269  0.29879248  0.84932849  1
  O  O114  1  0.44839731  0.70120752  0.34932849  1
  O  O115  1  0.29879248  0.84932849  0.05160269  1
  O  O116  1  0.34932849  0.44839731  0.70120752  1
  O  O117  1  0.84932849  0.05160269  0.29879248  1
  O  O118  1  0.20120752  0.15067151  0.55160269  1
  O  O119  1  0.15067151  0.55160269  0.20120752  1
  O  O120  1  0.70120752  0.34932849  0.44839731  1
  O  O121  1  0.79879248  0.65067151  0.94839731  1
  O  O122  1  0.65067151  0.94839731  0.79879248  1
  O  O123  1  0.94839731  0.79879248  0.65067151  1
  O  O124  1  0.44839731  0.79879248  0.84932849  1
  O  O125  1  0.94839731  0.70120752  0.15067151  1
  O  O126  1  0.55160269  0.29879248  0.65067151  1
  O  O127  1  0.70120752  0.15067151  0.94839731  1
  O  O128  1  0.65067151  0.55160269  0.29879248  1
  O  O129  1  0.15067151  0.94839731  0.70120752  1
  O  O130  1  0.79879248  0.84932849  0.44839731  1
  O  O131  1  0.84932849  0.44839731  0.79879248  1
  O  O132  1  0.29879248  0.65067151  0.55160269  1
  O  O133  1  0.20120752  0.34932849  0.05160269  1
  O  O134  1  0.34932849  0.05160269  0.20120752  1
  O  O135  1  0.05160269  0.20120752  0.34932849  1
  O  O136  1  0.16385715  0.00114827  0.99725912  1
  O  O137  1  0.99725912  0.16385715  0.00114827  1
  O  O138  1  0.00114827  0.99725912  0.16385715  1
  O  O139  1  0.49885173  0.00274088  0.66385715  1
  O  O140  1  0.49725912  0.33614285  0.99885173  1
  O  O141  1  0.99885173  0.49725912  0.33614285  1
  O  O142  1  0.50274088  0.83614285  0.50114827  1
  O  O143  1  0.00274088  0.66385715  0.49885173  1
  O  O144  1  0.50114827  0.50274088  0.83614285  1
  O  O145  1  0.66385715  0.49885173  0.00274088  1
  O  O146  1  0.83614285  0.50114827  0.50274088  1
  O  O147  1  0.33614285  0.99885173  0.49725912  1
  O  O148  1  0.83614285  0.99885173  0.00274088  1
  O  O149  1  0.00274088  0.83614285  0.99885173  1
  O  O150  1  0.99885173  0.00274088  0.83614285  1
  O  O151  1  0.50114827  0.99725912  0.33614285  1
  O  O152  1  0.50274088  0.66385715  0.00114827  1
  O  O153  1  0.00114827  0.50274088  0.66385715  1
  O  O154  1  0.49725912  0.16385715  0.49885173  1
  O  O155  1  0.99725912  0.33614285  0.50114827  1
  O  O156  1  0.49885173  0.49725912  0.16385715  1
  O  O157  1  0.33614285  0.50114827  0.99725912  1
  O  O158  1  0.16385715  0.49885173  0.49725912  1
  O  O159  1  0.66385715  0.00114827  0.50274088  1
  O  O160  1  0.77972814  0.32949728  0.06311263  1
  O  O161  1  0.27972814  0.17050272  0.93688737  1
  O  O162  1  0.22027186  0.82949728  0.43688737  1
  O  O163  1  0.17050272  0.93688737  0.27972814  1
  O  O164  1  0.43688737  0.22027186  0.82949728  1
  O  O165  1  0.93688737  0.27972814  0.17050272  1
  O  O166  1  0.32949728  0.06311263  0.77972814  1
  O  O167  1  0.06311263  0.77972814  0.32949728  1
  O  O168  1  0.82949728  0.43688737  0.22027186  1
  O  O169  1  0.67050272  0.56311263  0.72027186  1
  O  O170  1  0.56311263  0.72027186  0.67050272  1
  O  O171  1  0.72027186  0.67050272  0.56311263  1
  O  O172  1  0.22027186  0.67050272  0.93688737  1
  O  O173  1  0.72027186  0.82949728  0.06311263  1
  O  O174  1  0.77972814  0.17050272  0.56311263  1
  O  O175  1  0.82949728  0.06311263  0.72027186  1
  O  O176  1  0.56311263  0.77972814  0.17050272  1
  O  O177  1  0.06311263  0.72027186  0.82949728  1
  O  O178  1  0.67050272  0.93688737  0.22027186  1
  O  O179  1  0.93688737  0.22027186  0.67050272  1
  O  O180  1  0.17050272  0.56311263  0.77972814  1
  O  O181  1  0.32949728  0.43688737  0.27972814  1
  O  O182  1  0.43688737  0.27972814  0.32949728  1
  O  O183  1  0.27972814  0.32949728  0.43688737  1
  O  O184  1  0.25524036  0.25524036  0.25524036  1
  O  O185  1  0.24475964  0.75524036  0.25524036  1
  O  O186  1  0.75524036  0.25524036  0.24475964  1
  O  O187  1  0.74475964  0.74475964  0.74475964  1
  O  O188  1  0.74475964  0.75524036  0.24475964  1
  O  O189  1  0.75524036  0.24475964  0.74475964  1
  O  O190  1  0.24475964  0.74475964  0.75524036  1
  O  O191  1  0.25524036  0.24475964  0.75524036  1
