# generated using pymatgen
data_CsGaP3HO10
_symmetry_space_group_name_H-M   'P 1'
_cell_length_a   6.36808869
_cell_length_b   6.36808869
_cell_length_c   6.30166469
_cell_angle_alpha   74.44578974
_cell_angle_beta   74.44578974
_cell_angle_gamma   87.77382213
_symmetry_Int_Tables_number   1
_chemical_formula_structural   CsGaP3HO10
_chemical_formula_sum   'Cs1 Ga1 P3 H1 O10'
_cell_volume   237.02300147
_cell_formula_units_Z   1
loop_
 _symmetry_equiv_pos_site_id
 _symmetry_equiv_pos_as_xyz
  1  'x, y, z'
loop_
 _atom_site_type_symbol
 _atom_site_label
 _atom_site_symmetry_multiplicity
 _atom_site_fract_x
 _atom_site_fract_y
 _atom_site_fract_z
 _atom_site_occupancy
  Cs  Cs0  1  0.05337200  0.94662800  0.50000000  1
  Ga  Ga1  1  0.39035700  0.60964300  0.00000000  1
  P  P2  1  0.85403800  0.50913600  0.10481600  1
  P  P3  1  0.49086400  0.14596200  0.89518400  1
  P  P4  1  0.48715200  0.51284800  0.50000000  1
  H  H5  1  0.80261000  0.19739000  0.00000000  1
  O  O6  1  0.86160500  0.26109200  0.13959100  1
  O  O7  1  0.73890800  0.13839500  0.86040900  1
  O  O8  1  0.44664200  0.65851500  0.65984600  1
  O  O9  1  0.34148500  0.55335800  0.34015400  1
  O  O10  1  0.37991200  0.28876400  0.05007000  1
  O  O11  1  0.71123600  0.62008800  0.94993000  1
  O  O12  1  0.37383400  0.92593100  0.96502400  1
  O  O13  1  0.07406900  0.62616600  0.03497600  1
  O  O14  1  0.45527800  0.26065100  0.63901600  1
  O  O15  1  0.73934900  0.54472200  0.36098400  1
