# generated using pymatgen
data_Rb2CoH12(SO7)2
_symmetry_space_group_name_H-M   'P 1'
_cell_length_a   12.58146400
_cell_length_b   6.32292000
_cell_length_c   9.25641859
_cell_angle_alpha   74.82871963
_cell_angle_beta   90.00000000
_cell_angle_gamma   90.00000000
_symmetry_Int_Tables_number   1
_chemical_formula_structural   Rb2CoH12(SO7)2
_chemical_formula_sum   'Rb4 Co2 H24 S4 O28'
_cell_volume   710.69895253
_cell_formula_units_Z   2
loop_
 _symmetry_equiv_pos_site_id
 _symmetry_equiv_pos_as_xyz
  1  'x, y, z'
loop_
 _atom_site_type_symbol
 _atom_site_label
 _atom_site_symmetry_multiplicity
 _atom_site_fract_x
 _atom_site_fract_y
 _atom_site_fract_z
 _atom_site_occupancy
  Rb  Rb0  1  0.64927700  0.34361500  0.87036400  1
  Rb  Rb1  1  0.14927700  0.65638500  0.62963600  1
  Rb  Rb2  1  0.35072300  0.65638500  0.12963600  1
  Rb  Rb3  1  0.85072300  0.34361500  0.37036400  1
  Co  Co4  1  0.50000000  0.00000000  0.50000000  1
  Co  Co5  1  0.00000000  0.00000000  0.00000000  1
  H  H6  1  0.35745000  0.32104100  0.47204700  1
  H  H7  1  0.85745000  0.67895900  0.02795300  1
  H  H8  1  0.64255000  0.67895900  0.52795300  1
  H  H9  1  0.14255000  0.32104100  0.97204700  1
  H  H10  1  0.43538300  0.32934700  0.60527700  1
  H  H11  1  0.93538300  0.67065300  0.89472300  1
  H  H12  1  0.59783100  0.92309600  0.77576400  1
  H  H13  1  0.09783100  0.07690400  0.72423600  1
  H  H14  1  0.40216900  0.07690400  0.22423600  1
  H  H15  1  0.90216900  0.92309600  0.27576400  1
  H  H16  1  0.62857200  0.08653800  0.25710200  1
  H  H17  1  0.12857200  0.91346200  0.24289800  1
  H  H18  1  0.37142800  0.91346200  0.74289800  1
  H  H19  1  0.87142800  0.08653800  0.75710200  1
  H  H20  1  0.59370300  0.31903900  0.28369400  1
  H  H21  1  0.09370300  0.68096100  0.21630600  1
  H  H22  1  0.40629700  0.68096100  0.71630600  1
  H  H23  1  0.90629700  0.31903900  0.78369400  1
  H  H24  1  0.18650100  0.01346700  0.84986400  1
  H  H25  1  0.68650100  0.98653300  0.65013600  1
  H  H26  1  0.06461700  0.32934700  0.10527700  1
  H  H27  1  0.56461700  0.67065300  0.39472300  1
  H  H28  1  0.31349900  0.01346700  0.34986400  1
  H  H29  1  0.81349900  0.98653300  0.15013600  1
  S  S30  1  0.14181400  0.26896400  0.40165500  1
  S  S31  1  0.64181400  0.73103600  0.09834500  1
  S  S32  1  0.85818600  0.73103600  0.59834500  1
  S  S33  1  0.35818600  0.26896400  0.90165500  1
  O  O34  1  0.38611900  0.83448100  0.66546300  1
  O  O35  1  0.11388100  0.83448100  0.16546300  1
  O  O36  1  0.88811600  0.01865800  0.17348000  1
  O  O37  1  0.38811600  0.98134200  0.32652000  1
  O  O38  1  0.11188400  0.98134200  0.82652000  1
  O  O39  1  0.61188400  0.01865800  0.67348000  1
  O  O40  1  0.06773100  0.29141200  0.00754600  1
  O  O41  1  0.88611900  0.16551900  0.83453700  1
  O  O42  1  0.93226900  0.70858800  0.99245400  1
  O  O43  1  0.43226900  0.29141200  0.50754600  1
  O  O44  1  0.67826000  0.94294000  0.12663400  1
  O  O45  1  0.17826000  0.05706000  0.37336600  1
  O  O46  1  0.32174000  0.05706000  0.87336600  1
  O  O47  1  0.82174000  0.94294000  0.62663400  1
  O  O48  1  0.57318500  0.60876000  0.22567700  1
  O  O49  1  0.07318500  0.39124000  0.27432300  1
  O  O50  1  0.42681500  0.39124000  0.77432300  1
  O  O51  1  0.92681500  0.60876000  0.72567700  1
  O  O52  1  0.57853700  0.77391100  0.95803800  1
  O  O53  1  0.07853700  0.22608900  0.54196200  1
  O  O54  1  0.42146300  0.22608900  0.04196200  1
  O  O55  1  0.92146300  0.77391100  0.45803800  1
  O  O56  1  0.56773100  0.70858800  0.49245400  1
  O  O57  1  0.23610100  0.40849900  0.41122400  1
  O  O58  1  0.26389900  0.40849900  0.91122400  1
  O  O59  1  0.76389900  0.59150100  0.58877600  1
  O  O60  1  0.61388100  0.16551900  0.33453700  1
  O  O61  1  0.73610100  0.59150100  0.08877600  1
