# generated using pymatgen
data_Sm5Sb3H
_symmetry_space_group_name_H-M   'P 1'
_cell_length_a   9.21377147
_cell_length_b   9.21377147
_cell_length_c   6.33775000
_cell_angle_alpha   90.00000000
_cell_angle_beta   90.00000000
_cell_angle_gamma   119.99999617
_symmetry_Int_Tables_number   1
_chemical_formula_structural   Sm5Sb3H
_chemical_formula_sum   'Sm10 Sb6 H2'
_cell_volume   465.95140374
_cell_formula_units_Z   2
loop_
 _symmetry_equiv_pos_site_id
 _symmetry_equiv_pos_as_xyz
  1  'x, y, z'
loop_
 _atom_site_type_symbol
 _atom_site_label
 _atom_site_symmetry_multiplicity
 _atom_site_fract_x
 _atom_site_fract_y
 _atom_site_fract_z
 _atom_site_occupancy
  Sm  Sm0  1  0.74726500  0.74726500  0.25000000  1
  Sm  Sm1  1  0.74726500  0.00000000  0.75000000  1
  Sm  Sm2  1  0.00000000  0.25273500  0.25000000  1
  Sm  Sm3  1  0.00000000  0.74726500  0.75000000  1
  Sm  Sm4  1  0.25273500  0.25273500  0.75000000  1
  Sm  Sm5  1  0.25273500  0.00000000  0.25000000  1
  Sm  Sm6  1  0.33333300  0.66666700  0.50000000  1
  Sm  Sm7  1  0.66666700  0.33333300  0.00000000  1
  Sm  Sm8  1  0.66666700  0.33333300  0.50000000  1
  Sm  Sm9  1  0.33333300  0.66666700  0.00000000  1
  Sb  Sb10  1  0.38576500  0.00000000  0.75000000  1
  Sb  Sb11  1  0.38576500  0.38576500  0.25000000  1
  Sb  Sb12  1  0.00000000  0.61423500  0.25000000  1
  Sb  Sb13  1  0.00000000  0.38576500  0.75000000  1
  Sb  Sb14  1  0.61423500  0.61423500  0.75000000  1
  Sb  Sb15  1  0.61423500  0.00000000  0.25000000  1
  H  H16  1  0.00000000  0.00000000  0.50000000  1
  H  H17  1  0.00000000  0.00000000  0.00000000  1
