# generated using pymatgen
data_RbH6C2S2NO4
_symmetry_space_group_name_H-M   'P 1'
_cell_length_a   8.73856100
_cell_length_b   7.97608400
_cell_length_c   12.54172080
_cell_angle_alpha   72.83504989
_cell_angle_beta   90.00000000
_cell_angle_gamma   90.00000000
_symmetry_Int_Tables_number   1
_chemical_formula_structural   RbH6C2S2NO4
_chemical_formula_sum   'Rb4 H24 C8 S8 N4 O16'
_cell_volume   835.21610711
_cell_formula_units_Z   4
loop_
 _symmetry_equiv_pos_site_id
 _symmetry_equiv_pos_as_xyz
  1  'x, y, z'
loop_
 _atom_site_type_symbol
 _atom_site_label
 _atom_site_symmetry_multiplicity
 _atom_site_fract_x
 _atom_site_fract_y
 _atom_site_fract_z
 _atom_site_occupancy
  Rb  Rb0  1  0.02927400  0.57449300  0.20893300  1
  Rb  Rb1  1  0.52927400  0.42550700  0.29106700  1
  Rb  Rb2  1  0.97072600  0.42550700  0.79106700  1
  Rb  Rb3  1  0.47072600  0.57449300  0.70893300  1
  H  H4  1  0.20598100  0.76786900  0.91090500  1
  H  H5  1  0.70598100  0.23213100  0.58909500  1
  H  H6  1  0.79401900  0.23213100  0.08909500  1
  H  H7  1  0.29401900  0.76786900  0.41090500  1
  H  H8  1  0.20666600  0.99212200  0.82522100  1
  H  H9  1  0.70666600  0.00787800  0.67477900  1
  H  H10  1  0.79333400  0.00787800  0.17477900  1
  H  H11  1  0.29333400  0.99212200  0.32522100  1
  H  H12  1  0.15139400  0.94080800  0.97039400  1
  H  H13  1  0.65139400  0.05919200  0.52960600  1
  H  H14  1  0.84860600  0.05919200  0.02960600  1
  H  H15  1  0.34860600  0.94080800  0.47039400  1
  H  H16  1  0.89814100  0.85174800  0.54659700  1
  H  H17  1  0.39814100  0.14825200  0.95340300  1
  H  H18  1  0.10185900  0.14825200  0.45340300  1
  H  H19  1  0.60185900  0.85174800  0.04659700  1
  H  H20  1  0.59535000  0.91114600  0.89603200  1
  H  H21  1  0.09535000  0.08885400  0.60396800  1
  H  H22  1  0.40465000  0.08885400  0.10396800  1
  H  H23  1  0.90465000  0.91114600  0.39603200  1
  H  H24  1  0.47668700  0.73538700  0.97925700  1
  H  H25  1  0.97668700  0.26461300  0.52074300  1
  H  H26  1  0.52331300  0.26461300  0.02074300  1
  H  H27  1  0.02331300  0.73538700  0.47925700  1
  C  C28  1  0.91325900  0.80359900  0.47397500  1
  C  C29  1  0.84901800  0.10373700  0.10433000  1
  C  C30  1  0.65098200  0.10373700  0.60433000  1
  C  C31  1  0.15098200  0.89626300  0.89567000  1
  C  C32  1  0.58674100  0.80359900  0.97397500  1
  C  C33  1  0.08674100  0.19640100  0.52602500  1
  C  C34  1  0.41325900  0.19640100  0.02602500  1
  C  C35  1  0.34901800  0.89626300  0.39567000  1
  S  S36  1  0.73204100  0.64489600  0.97811400  1
  S  S37  1  0.23204100  0.35510400  0.52188600  1
  S  S38  1  0.26795900  0.35510400  0.02188600  1
  S  S39  1  0.76795900  0.64489600  0.47811400  1
  S  S40  1  0.54128800  0.87758400  0.35549200  1
  S  S41  1  0.04128800  0.12241600  0.14450800  1
  S  S42  1  0.45871200  0.12241600  0.64450800  1
  S  S43  1  0.95871200  0.87758400  0.85549200  1
  N  N44  1  0.10487900  0.26230200  0.03231100  1
  N  N45  1  0.39512100  0.26230200  0.53231100  1
  N  N46  1  0.89512100  0.73769800  0.96768900  1
  N  N47  1  0.60487900  0.73769800  0.46768900  1
  O  O48  1  0.22809100  0.47913000  0.40926900  1
  O  O49  1  0.38596700  0.94986200  0.66467700  1
  O  O50  1  0.11403300  0.94986200  0.16467700  1
  O  O51  1  0.61403300  0.05013800  0.33532300  1
  O  O52  1  0.69837600  0.56821500  0.88771900  1
  O  O53  1  0.19837600  0.43178500  0.61228100  1
  O  O54  1  0.30162400  0.43178500  0.11228100  1
  O  O55  1  0.80162400  0.56821500  0.38771900  1
  O  O56  1  0.72809100  0.52087000  0.09073100  1
  O  O57  1  0.88596700  0.05013800  0.83532300  1
  O  O58  1  0.27190900  0.47913000  0.90926900  1
  O  O59  1  0.77190900  0.52087000  0.59073100  1
  O  O60  1  0.04043400  0.18906600  0.24164200  1
  O  O61  1  0.95956600  0.81093400  0.75835800  1
  O  O62  1  0.45956600  0.18906600  0.74164200  1
  O  O63  1  0.54043400  0.81093400  0.25835800  1
