# generated using pymatgen
data_GdH3
_symmetry_space_group_name_H-M   'P 1'
_cell_length_a   3.72541832
_cell_length_b   3.72541832
_cell_length_c   6.70348500
_cell_angle_alpha   90.00000000
_cell_angle_beta   90.00000000
_cell_angle_gamma   120.00000573
_symmetry_Int_Tables_number   1
_chemical_formula_structural   GdH3
_chemical_formula_sum   'Gd2 H6'
_cell_volume   80.57147996
_cell_formula_units_Z   2
loop_
 _symmetry_equiv_pos_site_id
 _symmetry_equiv_pos_as_xyz
  1  'x, y, z'
loop_
 _atom_site_type_symbol
 _atom_site_label
 _atom_site_symmetry_multiplicity
 _atom_site_fract_x
 _atom_site_fract_y
 _atom_site_fract_z
 _atom_site_occupancy
  Gd  Gd0  1  0.66666700  0.33333300  0.75000000  1
  Gd  Gd1  1  0.33333300  0.66666700  0.25000000  1
  H  H2  1  0.33333300  0.66666700  0.90585000  1
  H  H3  1  0.66666700  0.33333300  0.40585000  1
  H  H4  1  0.00000000  0.00000000  0.25000000  1
  H  H5  1  0.00000000  0.00000000  0.75000000  1
  H  H6  1  0.33333300  0.66666700  0.59415000  1
  H  H7  1  0.66666700  0.33333300  0.09415000  1
