# generated using pymatgen
data_CdP2(HO)4
_symmetry_space_group_name_H-M   'P 1'
_cell_length_a   8.41353847
_cell_length_b   8.41353847
_cell_length_c   6.64482872
_cell_angle_alpha   79.25011936
_cell_angle_beta   79.25011936
_cell_angle_gamma   38.53647326
_symmetry_Int_Tables_number   1
_chemical_formula_structural   CdP2(HO)4
_chemical_formula_sum   'Cd2 P4 H8 O8'
_cell_volume   287.27001100
_cell_formula_units_Z   2
loop_
 _symmetry_equiv_pos_site_id
 _symmetry_equiv_pos_as_xyz
  1  'x, y, z'
loop_
 _atom_site_type_symbol
 _atom_site_label
 _atom_site_symmetry_multiplicity
 _atom_site_fract_x
 _atom_site_fract_y
 _atom_site_fract_z
 _atom_site_occupancy
  Cd  Cd0  1  0.17163800  0.82836200  0.25000000  1
  Cd  Cd1  1  0.82836200  0.17163800  0.75000000  1
  P  P2  1  0.81953400  0.45334500  0.29046100  1
  P  P3  1  0.54665500  0.18046600  0.20953900  1
  P  P4  1  0.18046600  0.54665500  0.70953900  1
  P  P5  1  0.45334500  0.81953400  0.79046100  1
  H  H6  1  0.89686800  0.51702200  0.39195400  1
  H  H7  1  0.48297800  0.10313200  0.10804600  1
  H  H8  1  0.10313200  0.48297800  0.60804600  1
  H  H9  1  0.51702200  0.89686800  0.89195400  1
  H  H10  1  0.95018200  0.38937900  0.09340400  1
  H  H11  1  0.61062100  0.04981800  0.40659600  1
  H  H12  1  0.04981800  0.61062100  0.90659600  1
  H  H13  1  0.38937900  0.95018200  0.59340400  1
  O  O14  1  0.31135600  0.46672200  0.22917100  1
  O  O15  1  0.53327800  0.68864400  0.27082900  1
  O  O16  1  0.20693200  0.92957600  0.89926700  1
  O  O17  1  0.07042400  0.79306800  0.60073300  1
  O  O18  1  0.79306800  0.07042400  0.10073300  1
  O  O19  1  0.92957600  0.20693200  0.39926700  1
  O  O20  1  0.46672200  0.31135600  0.72917100  1
  O  O21  1  0.68864400  0.53327800  0.77082900  1
