data_image0
_chemical_formula_structural       Bi2Ca4O
_chemical_formula_sum              "Bi2 Ca4 O1"
_cell_length_a       4.73965
_cell_length_b       4.73965
_cell_length_c       8.9397
_cell_angle_alpha    105.372
_cell_angle_beta     105.372
_cell_angle_gamma    90

_space_group_name_H-M_alt    "P 1"
_space_group_IT_number       1

loop_
  _space_group_symop_operation_xyz
  'x, y, z'

loop_
  _atom_site_type_symbol
  _atom_site_label
  _atom_site_symmetry_multiplicity
  _atom_site_fract_x
  _atom_site_fract_y
  _atom_site_fract_z
  _atom_site_occupancy
  Bi  Bi1       1.0  0.14000  0.14000  0.28100  1.0000
  Bi  Bi2       1.0  0.86000  0.86000  0.71900  1.0000
  Ca  Ca1       1.0  0.50000  0.00000  0.00000  1.0000
  Ca  Ca2       1.0  0.00000  0.50000  0.00000  1.0000
  Ca  Ca3       1.0  0.66500  0.66500  0.32900  1.0000
  Ca  Ca4       1.0  0.33500  0.33500  0.67100  1.0000
  O   O1        1.0  0.50000  0.50000  0.00000  1.0000
