data_image0
_chemical_formula_structural       F4K2Mn
_chemical_formula_sum              "F4 K2 Mn1"
_cell_length_a       4.11055
_cell_length_b       4.11055
_cell_length_c       7.13116
_cell_angle_alpha    106.751
_cell_angle_beta     106.751
_cell_angle_gamma    90

_space_group_name_H-M_alt    "P 1"
_space_group_IT_number       1

loop_
  _space_group_symop_operation_xyz
  'x, y, z'

loop_
  _atom_site_type_symbol
  _atom_site_label
  _atom_site_symmetry_multiplicity
  _atom_site_fract_x
  _atom_site_fract_y
  _atom_site_fract_z
  _atom_site_occupancy
  F   F1        1.0  0.50000  0.00000  0.00000  1.0000
  F   F2        1.0  0.00000  0.50000  0.00000  1.0000
  F   F3        1.0  0.16200  0.16200  0.32400  1.0000
  F   F4        1.0  0.83800  0.83800  0.67600  1.0000
  K   K1        1.0  0.64600  0.64600  0.29200  1.0000
  K   K2        1.0  0.35400  0.35400  0.70800  1.0000
  Mn  Mn1       1.0  0.00000  0.00000  0.00000  1.0000
