# generated using pymatgen
data_RbAl(H2N)4
_symmetry_space_group_name_H-M   'P 1'
_cell_length_a   9.12305400
_cell_length_b   9.12305400
_cell_length_c   4.54847400
_cell_angle_alpha   90.00000000
_cell_angle_beta   90.00000000
_cell_angle_gamma   90.00000000
_symmetry_Int_Tables_number   1
_chemical_formula_structural   RbAl(H2N)4
_chemical_formula_sum   'Rb2 Al2 H16 N8'
_cell_volume   378.57001085
_cell_formula_units_Z   2
loop_
 _symmetry_equiv_pos_site_id
 _symmetry_equiv_pos_as_xyz
  1  'x, y, z'
loop_
 _atom_site_type_symbol
 _atom_site_label
 _atom_site_symmetry_multiplicity
 _atom_site_fract_x
 _atom_site_fract_y
 _atom_site_fract_z
 _atom_site_occupancy
  Rb  Rb0  1  0.50000000  0.00000000  0.86177100  1
  Rb  Rb1  1  0.00000000  0.50000000  0.13822900  1
  Al  Al2  1  0.00000000  0.00000000  0.00000000  1
  Al  Al3  1  0.50000000  0.50000000  0.00000000  1
  H  H4  1  0.22682200  0.21746400  0.97711300  1
  H  H5  1  0.71746400  0.27317800  0.97711300  1
  H  H6  1  0.28253600  0.72682200  0.97711300  1
  H  H7  1  0.77317800  0.78253600  0.97711300  1
  H  H8  1  0.27317800  0.28253600  0.02288700  1
  H  H9  1  0.78253600  0.22682200  0.02288700  1
  H  H10  1  0.21746400  0.77317800  0.02288700  1
  H  H11  1  0.72682200  0.71746400  0.02288700  1
  H  H12  1  0.64556100  0.40184300  0.42065900  1
  H  H13  1  0.90184300  0.85443900  0.42065900  1
  H  H14  1  0.09815700  0.14556100  0.42065900  1
  H  H15  1  0.35443900  0.59815700  0.42065900  1
  H  H16  1  0.14556100  0.90184300  0.57934100  1
  H  H17  1  0.40184300  0.35443900  0.57934100  1
  H  H18  1  0.59815700  0.64556100  0.57934100  1
  H  H19  1  0.85443900  0.09815700  0.57934100  1
  N  N20  1  0.33755200  0.52040200  0.25682100  1
  N  N21  1  0.02040200  0.16244800  0.25682100  1
  N  N22  1  0.97959800  0.83755200  0.25682100  1
  N  N23  1  0.66244800  0.47959800  0.25682100  1
  N  N24  1  0.16244800  0.97959800  0.74317800  1
  N  N25  1  0.47959800  0.33755200  0.74317800  1
  N  N26  1  0.52040200  0.66244800  0.74317800  1
  N  N27  1  0.83755200  0.02040200  0.74317800  1
