# generated using pymatgen
data_Cd3P2
_symmetry_space_group_name_H-M   'P 1'
_cell_length_a   8.87946200
_cell_length_b   8.87946200
_cell_length_c   12.48326000
_cell_angle_alpha   90.00000000
_cell_angle_beta   90.00000000
_cell_angle_gamma   90.00000000
_symmetry_Int_Tables_number   1
_chemical_formula_structural   Cd3P2
_chemical_formula_sum   'Cd24 P16'
_cell_volume   984.24070491
_cell_formula_units_Z   8
loop_
 _symmetry_equiv_pos_site_id
 _symmetry_equiv_pos_as_xyz
  1  'x, y, z'
loop_
 _atom_site_type_symbol
 _atom_site_label
 _atom_site_symmetry_multiplicity
 _atom_site_fract_x
 _atom_site_fract_y
 _atom_site_fract_z
 _atom_site_occupancy
  Cd  Cd0  1  0.71051400  0.00000000  0.88307800  1
  Cd  Cd1  1  0.50000000  0.21051400  0.38307800  1
  Cd  Cd2  1  0.50000000  0.78948600  0.38307800  1
  Cd  Cd3  1  0.21051400  0.50000000  0.61692200  1
  Cd  Cd4  1  0.78948600  0.50000000  0.61692200  1
  Cd  Cd5  1  0.28948600  0.00000000  0.88307800  1
  Cd  Cd6  1  0.00000000  0.71051400  0.11692200  1
  Cd  Cd7  1  0.00000000  0.28948600  0.11692200  1
  Cd  Cd8  1  0.75640200  0.00000000  0.15050500  1
  Cd  Cd9  1  0.24359800  0.00000000  0.15050500  1
  Cd  Cd10  1  0.00000000  0.75640200  0.84949500  1
  Cd  Cd11  1  0.50000000  0.74359800  0.65050500  1
  Cd  Cd12  1  0.50000000  0.25640200  0.65050500  1
  Cd  Cd13  1  0.74359800  0.50000000  0.34949500  1
  Cd  Cd14  1  0.25640200  0.50000000  0.34949500  1
  Cd  Cd15  1  0.00000000  0.24359800  0.84949500  1
  Cd  Cd16  1  0.50000000  0.28557700  0.10131400  1
  Cd  Cd17  1  0.50000000  0.71442300  0.10131400  1
  Cd  Cd18  1  0.28557700  0.50000000  0.89868600  1
  Cd  Cd19  1  0.78557700  0.00000000  0.60131400  1
  Cd  Cd20  1  0.21442300  0.00000000  0.60131400  1
  Cd  Cd21  1  0.00000000  0.78557700  0.39868600  1
  Cd  Cd22  1  0.00000000  0.21442300  0.39868600  1
  Cd  Cd23  1  0.71442300  0.50000000  0.89868600  1
  P  P24  1  0.00000000  0.50000000  0.25846900  1
  P  P25  1  0.00000000  0.50000000  0.75846900  1
  P  P26  1  0.50000000  0.00000000  0.24153100  1
  P  P27  1  0.50000000  0.00000000  0.74153100  1
  P  P28  1  0.00000000  0.00000000  0.25729200  1
  P  P29  1  0.50000000  0.50000000  0.75729200  1
  P  P30  1  0.50000000  0.50000000  0.24270800  1
  P  P31  1  0.00000000  0.00000000  0.74270800  1
  P  P32  1  0.25754600  0.74245400  0.50000000  1
  P  P33  1  0.75754600  0.75754600  0.00000000  1
  P  P34  1  0.24245400  0.24245400  0.00000000  1
  P  P35  1  0.74245400  0.25754600  0.50000000  1
  P  P36  1  0.24245400  0.75754600  0.00000000  1
  P  P37  1  0.74245400  0.74245400  0.50000000  1
  P  P38  1  0.25754600  0.25754600  0.50000000  1
  P  P39  1  0.75754600  0.24245400  0.00000000  1
