# generated using pymatgen
data_MgH10(SeO5)2
_symmetry_space_group_name_H-M   'P 1'
_cell_length_a   8.33060268
_cell_length_b   8.33060268
_cell_length_c   11.19873227
_cell_angle_alpha   57.02995575
_cell_angle_beta   57.02995575
_cell_angle_gamma   54.64413369
_symmetry_Int_Tables_number   1
_chemical_formula_structural   MgH10(SeO5)2
_chemical_formula_sum   'Mg2 H20 Se4 O20'
_cell_volume   501.02105023
_cell_formula_units_Z   2
loop_
 _symmetry_equiv_pos_site_id
 _symmetry_equiv_pos_as_xyz
  1  'x, y, z'
loop_
 _atom_site_type_symbol
 _atom_site_label
 _atom_site_symmetry_multiplicity
 _atom_site_fract_x
 _atom_site_fract_y
 _atom_site_fract_z
 _atom_site_occupancy
  Mg  Mg0  1  0.96462700  0.03537300  0.25000000  1
  Mg  Mg1  1  0.03537300  0.96462700  0.75000000  1
  H  H2  1  0.39752100  0.25613700  0.05620500  1
  H  H3  1  0.74386300  0.60247900  0.44379500  1
  H  H4  1  0.60247900  0.74386300  0.94379500  1
  H  H5  1  0.25613700  0.39752100  0.55620500  1
  H  H6  1  0.28632000  0.25784900  0.97589600  1
  H  H7  1  0.74215100  0.71368000  0.52410400  1
  H  H8  1  0.32007300  0.56149400  0.83331500  1
  H  H9  1  0.43850600  0.67992700  0.66668500  1
  H  H10  1  0.67992700  0.43850600  0.16668500  1
  H  H11  1  0.56149400  0.32007300  0.33331500  1
  H  H12  1  0.62664800  0.24877900  0.83080400  1
  H  H13  1  0.75122100  0.37335200  0.66919600  1
  H  H14  1  0.37335200  0.75122100  0.16919600  1
  H  H15  1  0.24877900  0.62664800  0.33080400  1
  H  H16  1  0.94766800  0.41190800  0.27841200  1
  H  H17  1  0.58809200  0.05233200  0.22158800  1
  H  H18  1  0.05233200  0.58809200  0.72158800  1
  H  H19  1  0.41190800  0.94766800  0.77841200  1
  H  H20  1  0.71368000  0.74215100  0.02410400  1
  H  H21  1  0.25784900  0.28632000  0.47589600  1
  Se  Se22  1  0.00942700  0.26521200  0.88520200  1
  Se  Se23  1  0.73478800  0.99057300  0.61479800  1
  Se  Se24  1  0.26521200  0.00942700  0.38520200  1
  Se  Se25  1  0.99057300  0.73478800  0.11479800  1
  O  O26  1  0.69818000  0.30182000  0.25000000  1
  O  O27  1  0.30182000  0.69818000  0.75000000  1
  O  O28  1  0.31077100  0.38208800  0.45743500  1
  O  O29  1  0.61791200  0.68922900  0.04256500  1
  O  O30  1  0.68922900  0.61791200  0.54256500  1
  O  O31  1  0.38208800  0.31077100  0.95743500  1
  O  O32  1  0.85591800  0.56529600  0.26998000  1
  O  O33  1  0.43470400  0.14408200  0.23002000  1
  O  O34  1  0.14408200  0.43470400  0.73002000  1
  O  O35  1  0.56529600  0.85591800  0.76998000  1
  O  O36  1  0.89145800  0.82101900  0.98217800  1
  O  O37  1  0.17898100  0.10854200  0.51782200  1
  O  O38  1  0.10854200  0.17898100  0.01782200  1
  O  O39  1  0.82101900  0.89145800  0.48217800  1
  O  O40  1  0.93278000  0.84260800  0.68754400  1
  O  O41  1  0.15739200  0.06722000  0.81245600  1
  O  O42  1  0.06722000  0.15739200  0.31245600  1
  O  O43  1  0.84260800  0.93278000  0.18754400  1
  O  O44  1  0.76667700  0.23332300  0.75000000  1
  O  O45  1  0.23332300  0.76667700  0.25000000  1
