# generated using pymatgen
data_Rb2CuH4(Cl2O)2
_symmetry_space_group_name_H-M   'P 1'
_cell_length_a   7.79352500
_cell_length_b   7.79352500
_cell_length_c   8.08543600
_cell_angle_alpha   90.00000000
_cell_angle_beta   90.00000000
_cell_angle_gamma   90.00000000
_symmetry_Int_Tables_number   1
_chemical_formula_structural   Rb2CuH4(Cl2O)2
_chemical_formula_sum   'Rb4 Cu2 H8 Cl8 O4'
_cell_volume   491.10155534
_cell_formula_units_Z   2
loop_
 _symmetry_equiv_pos_site_id
 _symmetry_equiv_pos_as_xyz
  1  'x, y, z'
loop_
 _atom_site_type_symbol
 _atom_site_label
 _atom_site_symmetry_multiplicity
 _atom_site_fract_x
 _atom_site_fract_y
 _atom_site_fract_z
 _atom_site_occupancy
  Rb  Rb0  1  0.50000000  0.00000000  0.75000000  1
  Rb  Rb1  1  0.50000000  0.00000000  0.25000000  1
  Rb  Rb2  1  0.00000000  0.50000000  0.75000000  1
  Rb  Rb3  1  0.00000000  0.50000000  0.25000000  1
  Cu  Cu4  1  0.50000000  0.50000000  0.50000000  1
  Cu  Cu5  1  0.00000000  0.00000000  0.00000000  1
  H  H6  1  0.92678800  0.92678800  0.68294900  1
  H  H7  1  0.07321200  0.07321200  0.68294900  1
  H  H8  1  0.92678800  0.92678800  0.31705100  1
  H  H9  1  0.42678800  0.57321200  0.18294900  1
  H  H10  1  0.57321200  0.42678800  0.18294900  1
  H  H11  1  0.07321200  0.07321200  0.31705100  1
  H  H12  1  0.42678800  0.57321200  0.81705100  1
  H  H13  1  0.57321200  0.42678800  0.81705100  1
  Cl  Cl14  1  0.70803300  0.29196700  0.00000000  1
  Cl  Cl15  1  0.79381900  0.79381900  0.00000000  1
  Cl  Cl16  1  0.79196700  0.79196700  0.50000000  1
  Cl  Cl17  1  0.29381900  0.70618100  0.50000000  1
  Cl  Cl18  1  0.20618100  0.20618100  0.00000000  1
  Cl  Cl19  1  0.20803300  0.20803300  0.50000000  1
  Cl  Cl20  1  0.29196700  0.70803300  0.00000000  1
  Cl  Cl21  1  0.70618100  0.29381900  0.50000000  1
  O  O22  1  0.00000000  0.00000000  0.24437400  1
  O  O23  1  0.50000000  0.50000000  0.74437400  1
  O  O24  1  0.50000000  0.50000000  0.25562600  1
  O  O25  1  0.00000000  0.00000000  0.75562600  1
