# generated using pymatgen
data_MnH8(ClO2)2
_symmetry_space_group_name_H-M   'P 1'
_cell_length_a   9.60522800
_cell_length_b   6.20306300
_cell_length_c   11.89835729
_cell_angle_alpha   68.26011355
_cell_angle_beta   90.00000000
_cell_angle_gamma   90.00000000
_symmetry_Int_Tables_number   1
_chemical_formula_structural   MnH8(ClO2)2
_chemical_formula_sum   'Mn4 H32 Cl8 O16'
_cell_volume   658.50355797
_cell_formula_units_Z   4
loop_
 _symmetry_equiv_pos_site_id
 _symmetry_equiv_pos_as_xyz
  1  'x, y, z'
loop_
 _atom_site_type_symbol
 _atom_site_label
 _atom_site_symmetry_multiplicity
 _atom_site_fract_x
 _atom_site_fract_y
 _atom_site_fract_z
 _atom_site_occupancy
  Mn  Mn0  1  0.67242800  0.25203000  0.73364000  1
  Mn  Mn1  1  0.17242800  0.74797000  0.76636000  1
  Mn  Mn2  1  0.32757200  0.74797000  0.26636000  1
  Mn  Mn3  1  0.82757200  0.25203000  0.23364000  1
  H  H4  1  0.43524200  0.99639600  0.86236900  1
  H  H5  1  0.93524200  0.00360400  0.63763100  1
  H  H6  1  0.56475800  0.00360400  0.13763100  1
  H  H7  1  0.06475800  0.99639600  0.36236900  1
  H  H8  1  0.56840600  0.86424700  0.93800900  1
  H  H9  1  0.06840600  0.13575300  0.56199100  1
  H  H10  1  0.43159400  0.13575300  0.06199100  1
  H  H11  1  0.93159400  0.86424700  0.43800900  1
  H  H12  1  0.42736300  0.47361000  0.59520800  1
  H  H13  1  0.92736300  0.52639000  0.90479200  1
  H  H14  1  0.57263700  0.52639000  0.40479200  1
  H  H15  1  0.07263700  0.47361000  0.09520800  1
  H  H16  1  0.42579400  0.20630100  0.61049700  1
  H  H17  1  0.92579400  0.79369900  0.88950300  1
  H  H18  1  0.64513000  0.51038100  0.88421100  1
  H  H19  1  0.07420600  0.20630100  0.11049700  1
  H  H20  1  0.69567800  0.82632400  0.70111800  1
  H  H21  1  0.19567800  0.17367600  0.79888200  1
  H  H22  1  0.30432200  0.17367600  0.29888200  1
  H  H23  1  0.80432200  0.82632400  0.20111800  1
  H  H24  1  0.70215200  0.02664100  0.57139000  1
  H  H25  1  0.20215200  0.97335900  0.92861000  1
  H  H26  1  0.29784800  0.97335900  0.42861000  1
  H  H27  1  0.79784800  0.02664100  0.07139000  1
  H  H28  1  0.51461900  0.56842500  0.80053300  1
  H  H29  1  0.01461900  0.43157500  0.69946700  1
  H  H30  1  0.48538100  0.43157500  0.19946700  1
  H  H31  1  0.98538100  0.56842500  0.30053300  1
  H  H32  1  0.85487000  0.51038100  0.38421100  1
  H  H33  1  0.35487000  0.48961900  0.11578900  1
  H  H34  1  0.14513000  0.48961900  0.61578900  1
  H  H35  1  0.57420600  0.79369900  0.38950300  1
  Cl  Cl36  1  0.86582100  0.15046800  0.88589200  1
  Cl  Cl37  1  0.36582100  0.84953200  0.61410800  1
  Cl  Cl38  1  0.13417900  0.84953200  0.11410800  1
  Cl  Cl39  1  0.63417900  0.15046800  0.38589200  1
  Cl  Cl40  1  0.81312000  0.53005100  0.55930300  1
  Cl  Cl41  1  0.31312000  0.46994900  0.94069700  1
  Cl  Cl42  1  0.68688000  0.53005100  0.05930300  1
  Cl  Cl43  1  0.18688000  0.46994900  0.44069700  1
  O  O44  1  0.53752400  0.00089400  0.86917600  1
  O  O45  1  0.03752400  0.99910600  0.63082400  1
  O  O46  1  0.46247600  0.99910600  0.13082400  1
  O  O47  1  0.96247600  0.00089400  0.36917600  1
  O  O48  1  0.47428600  0.32403300  0.63345000  1
  O  O49  1  0.97428600  0.67596700  0.86655000  1
  O  O50  1  0.52571400  0.67596700  0.36655000  1
  O  O51  1  0.02571400  0.32403300  0.13345000  1
  O  O52  1  0.73353500  0.98402200  0.65655700  1
  O  O53  1  0.23353500  0.01597800  0.84344300  1
  O  O54  1  0.26646500  0.01597800  0.34344300  1
  O  O55  1  0.76646500  0.98402200  0.15655700  1
  O  O56  1  0.61576600  0.54205400  0.79933000  1
  O  O57  1  0.11576600  0.45794600  0.70067000  1
  O  O58  1  0.88423400  0.54205400  0.29933000  1
  O  O59  1  0.38423400  0.45794600  0.20067000  1
