# generated using pymatgen
data_CaGa4
_symmetry_space_group_name_H-M   'P 1'
_cell_length_a   4.38333824
_cell_length_b   4.38333824
_cell_length_c   6.17800171
_cell_angle_alpha   69.83220479
_cell_angle_beta   69.83220479
_cell_angle_gamma   89.72086775
_symmetry_Int_Tables_number   1
_chemical_formula_structural   CaGa4
_chemical_formula_sum   'Ca1 Ga4'
_cell_volume   103.71326733
_cell_formula_units_Z   1
loop_
 _symmetry_equiv_pos_site_id
 _symmetry_equiv_pos_as_xyz
  1  'x, y, z'
loop_
 _atom_site_type_symbol
 _atom_site_label
 _atom_site_symmetry_multiplicity
 _atom_site_fract_x
 _atom_site_fract_y
 _atom_site_fract_z
 _atom_site_occupancy
  Ca  Ca0  1  0.00000000  0.00000000  0.00000000  1
  Ga  Ga1  1  0.59795400  0.59795400  0.77005600  1
  Ga  Ga2  1  0.40204600  0.40204600  0.22994400  1
  Ga  Ga3  1  0.76497400  0.23502600  0.50000000  1
  Ga  Ga4  1  0.23502600  0.76497400  0.50000000  1
