# generated using pymatgen
data_Na2Si(H4O3)3
_symmetry_space_group_name_H-M   'P 1'
_cell_length_a   5.94910300
_cell_length_b   6.35528000
_cell_length_c   11.44933883
_cell_angle_alpha   78.12093971
_cell_angle_beta   90.00000000
_cell_angle_gamma   90.00000000
_symmetry_Int_Tables_number   1
_chemical_formula_structural   Na2Si(H4O3)3
_chemical_formula_sum   'Na4 Si2 H24 O18'
_cell_volume   423.60865095
_cell_formula_units_Z   2
loop_
 _symmetry_equiv_pos_site_id
 _symmetry_equiv_pos_as_xyz
  1  'x, y, z'
loop_
 _atom_site_type_symbol
 _atom_site_label
 _atom_site_symmetry_multiplicity
 _atom_site_fract_x
 _atom_site_fract_y
 _atom_site_fract_z
 _atom_site_occupancy
  Na  Na0  1  0.99728200  0.56889900  0.86362700  1
  Na  Na1  1  0.49728200  0.43110100  0.13637300  1
  Na  Na2  1  0.96895300  0.93115600  0.61512900  1
  Na  Na3  1  0.46895300  0.06884400  0.38487100  1
  Si  Si4  1  0.51438300  0.20786500  0.87329300  1
  Si  Si5  1  0.01438300  0.79213500  0.12670700  1
  H  H6  1  0.21651300  0.95501500  0.84008800  1
  H  H7  1  0.71651300  0.04498500  0.15991200  1
  H  H8  1  0.97351100  0.05735700  0.84524400  1
  H  H9  1  0.47351100  0.94264300  0.15475600  1
  H  H10  1  0.38470000  0.16193300  0.63200500  1
  H  H11  1  0.88470000  0.83806700  0.36799500  1
  H  H12  1  0.45288800  0.92943100  0.62759600  1
  H  H13  1  0.95288800  0.07056900  0.37240400  1
  H  H14  1  0.26212900  0.46998900  0.68477400  1
  H  H15  1  0.76212900  0.53001100  0.31522600  1
  H  H16  1  0.01718500  0.46201100  0.62520500  1
  H  H17  1  0.51718500  0.53798900  0.37479500  1
  H  H18  1  0.75896100  0.34939200  0.50295700  1
  H  H19  1  0.25896100  0.65060800  0.49704300  1
  H  H20  1  0.69501800  0.31577500  0.64093900  1
  H  H21  1  0.19501800  0.68422500  0.35906100  1
  H  H22  1  0.57721600  0.60077800  0.73029100  1
  H  H23  1  0.07721600  0.39922200  0.26970900  1
  H  H24  1  0.57752600  0.80859600  0.79325800  1
  H  H25  1  0.07752600  0.19140400  0.20674200  1
  H  H26  1  0.72233000  0.79369400  0.99312800  1
  H  H27  1  0.34045700  0.82308600  0.00674400  1
  H  H28  1  0.22233000  0.20630600  0.00687200  1
  H  H29  1  0.84045700  0.17691400  0.99325600  1
  O  O30  1  0.32047400  0.31195600  0.95450200  1
  O  O31  1  0.55563900  0.05470800  0.18452400  1
  O  O32  1  0.35808100  0.05014400  0.58484400  1
  O  O33  1  0.85808100  0.94985600  0.41515600  1
  O  O34  1  0.12825500  0.56166600  0.65195900  1
  O  O35  1  0.62825500  0.43833400  0.34804100  1
  O  O36  1  0.82195800  0.30193100  0.58414200  1
  O  O37  1  0.32195800  0.69806900  0.41585800  1
  O  O38  1  0.63843200  0.74937300  0.72474900  1
  O  O39  1  0.13843200  0.25062700  0.27525100  1
  O  O40  1  0.77276700  0.26386900  0.91604900  1
  O  O41  1  0.27276700  0.73613100  0.08395100  1
  O  O42  1  0.98996400  0.66236100  0.26415600  1
  O  O43  1  0.82047400  0.68804400  0.04549800  1
  O  O44  1  0.48097900  0.94705400  0.89702200  1
  O  O45  1  0.98097900  0.05294600  0.10297800  1
  O  O46  1  0.48996400  0.33763900  0.73584400  1
  O  O47  1  0.05563900  0.94529200  0.81547600  1
