# generated using pymatgen
data_Cs3B12H12Cl
_symmetry_space_group_name_H-M   'P 1'
_cell_length_a   7.27033249
_cell_length_b   7.27033249
_cell_length_c   7.27033316
_cell_angle_alpha   92.65222166
_cell_angle_beta   92.65222166
_cell_angle_gamma   92.65222074
_symmetry_Int_Tables_number   1
_chemical_formula_structural   Cs3B12H12Cl
_chemical_formula_sum   'Cs3 B12 H12 Cl1'
_cell_volume   383.01885734
_cell_formula_units_Z   1
loop_
 _symmetry_equiv_pos_site_id
 _symmetry_equiv_pos_as_xyz
  1  'x, y, z'
loop_
 _atom_site_type_symbol
 _atom_site_label
 _atom_site_symmetry_multiplicity
 _atom_site_fract_x
 _atom_site_fract_y
 _atom_site_fract_z
 _atom_site_occupancy
  Cs  Cs0  1  0.00000000  0.50000000  0.50000000  1
  Cs  Cs1  1  0.50000000  0.00000000  0.50000000  1
  Cs  Cs2  1  0.50000000  0.50000000  0.00000000  1
  B  B3  1  0.11783200  0.84410700  0.11783200  1
  B  B4  1  0.88216800  0.15589300  0.88216800  1
  B  B5  1  0.15589300  0.88216800  0.88216800  1
  B  B6  1  0.88216800  0.88216800  0.15589300  1
  B  B7  1  0.05581600  0.05581600  0.22485700  1
  B  B8  1  0.22485700  0.05581600  0.05581600  1
  B  B9  1  0.05581600  0.22485700  0.05581600  1
  B  B10  1  0.94418400  0.77514300  0.94418400  1
  B  B11  1  0.94418400  0.94418400  0.77514300  1
  B  B12  1  0.77514300  0.94418400  0.94418400  1
  B  B13  1  0.11783200  0.11783200  0.84410700  1
  B  B14  1  0.84410700  0.11783200  0.11783200  1
  H  H15  1  0.79749800  0.79749800  0.26587000  1
  H  H16  1  0.26587000  0.79749800  0.79749800  1
  H  H17  1  0.79749800  0.26587000  0.79749800  1
  H  H18  1  0.20250200  0.73413000  0.20250200  1
  H  H19  1  0.90530700  0.90530700  0.61509300  1
  H  H20  1  0.61509300  0.90530700  0.90530700  1
  H  H21  1  0.90530700  0.61509300  0.90530700  1
  H  H22  1  0.09469300  0.38490700  0.09469300  1
  H  H23  1  0.09469300  0.09469300  0.38490700  1
  H  H24  1  0.38490700  0.09469300  0.09469300  1
  H  H25  1  0.20250200  0.20250200  0.73413000  1
  H  H26  1  0.73413000  0.20250200  0.20250200  1
  Cl  Cl27  1  0.50000000  0.50000000  0.50000000  1
