# generated using pymatgen
data_KBH4
_symmetry_space_group_name_H-M   'P 1'
_cell_length_a   3.41186500
_cell_length_b   8.16051600
_cell_length_c   8.81751300
_cell_angle_alpha   90.00000000
_cell_angle_beta   90.00000000
_cell_angle_gamma   90.00000000
_symmetry_Int_Tables_number   1
_chemical_formula_structural   KBH4
_chemical_formula_sum   'K4 B4 H16'
_cell_volume   245.50230160
_cell_formula_units_Z   4
loop_
 _symmetry_equiv_pos_site_id
 _symmetry_equiv_pos_as_xyz
  1  'x, y, z'
loop_
 _atom_site_type_symbol
 _atom_site_label
 _atom_site_symmetry_multiplicity
 _atom_site_fract_x
 _atom_site_fract_y
 _atom_site_fract_z
 _atom_site_occupancy
  K  K0  1  0.75000000  0.24648000  0.25994000  1
  K  K1  1  0.25000000  0.75352000  0.74006000  1
  K  K2  1  0.25000000  0.25352000  0.75994000  1
  K  K3  1  0.75000000  0.74648000  0.24006000  1
  B  B4  1  0.75000000  0.97083400  0.96096100  1
  B  B5  1  0.25000000  0.02916600  0.03903900  1
  B  B6  1  0.25000000  0.52916600  0.46096100  1
  B  B7  1  0.75000000  0.47083400  0.53903900  1
  H  H8  1  0.35991900  0.60690700  0.00736500  1
  H  H9  1  0.85991900  0.39309300  0.99263500  1
  H  H10  1  0.64008100  0.89309300  0.50736500  1
  H  H11  1  0.14008100  0.10690700  0.49263500  1
  H  H12  1  0.64008100  0.39309300  0.99263500  1
  H  H13  1  0.14008100  0.60690700  0.00736500  1
  H  H14  1  0.35991900  0.10690700  0.49263500  1
  H  H15  1  0.85991900  0.89309300  0.50736500  1
  H  H16  1  0.75000000  0.50612200  0.68200100  1
  H  H17  1  0.25000000  0.49387800  0.31799900  1
  H  H18  1  0.25000000  0.99387800  0.18200100  1
  H  H19  1  0.75000000  0.00612200  0.81799900  1
  H  H20  1  0.75000000  0.81409700  0.95133000  1
  H  H21  1  0.25000000  0.18590300  0.04867000  1
  H  H22  1  0.25000000  0.68590300  0.45133000  1
  H  H23  1  0.75000000  0.31409700  0.54867000  1
