# generated using pymatgen
data_NaBH4
_symmetry_space_group_name_H-M   'P 1'
_cell_length_a   4.27299600
_cell_length_b   7.02144500
_cell_length_c   7.54004000
_cell_angle_alpha   90.00000000
_cell_angle_beta   90.00000000
_cell_angle_gamma   90.00000000
_symmetry_Int_Tables_number   1
_chemical_formula_structural   NaBH4
_chemical_formula_sum   'Na4 B4 H16'
_cell_volume   226.22085235
_cell_formula_units_Z   4
loop_
 _symmetry_equiv_pos_site_id
 _symmetry_equiv_pos_as_xyz
  1  'x, y, z'
loop_
 _atom_site_type_symbol
 _atom_site_label
 _atom_site_symmetry_multiplicity
 _atom_site_fract_x
 _atom_site_fract_y
 _atom_site_fract_z
 _atom_site_occupancy
  Na  Na0  1  0.25000000  0.25156800  0.51077200  1
  Na  Na1  1  0.75000000  0.74843200  0.48922800  1
  Na  Na2  1  0.75000000  0.75156800  0.98922800  1
  Na  Na3  1  0.25000000  0.24843200  0.01077200  1
  B  B4  1  0.25000000  0.92327300  0.77338500  1
  B  B5  1  0.75000000  0.07672700  0.22661500  1
  B  B6  1  0.75000000  0.42327300  0.72661500  1
  B  B7  1  0.25000000  0.57672700  0.27338500  1
  H  H8  1  0.51509000  0.50949500  0.68053500  1
  H  H9  1  0.01509000  0.49050500  0.31946500  1
  H  H10  1  0.48491000  0.00949500  0.81946500  1
  H  H11  1  0.98491000  0.99050500  0.18053500  1
  H  H12  1  0.48491000  0.49050500  0.31946500  1
  H  H13  1  0.98491000  0.50949500  0.68053500  1
  H  H14  1  0.51509000  0.99050500  0.18053500  1
  H  H15  1  0.01509000  0.00949500  0.81946500  1
  H  H16  1  0.25000000  0.73740500  0.33602800  1
  H  H17  1  0.75000000  0.26259500  0.66397200  1
  H  H18  1  0.75000000  0.23740500  0.16397200  1
  H  H19  1  0.25000000  0.76259500  0.83602800  1
  H  H20  1  0.75000000  0.09009600  0.38999500  1
  H  H21  1  0.25000000  0.90990400  0.61000500  1
  H  H22  1  0.25000000  0.59009600  0.11000500  1
  H  H23  1  0.75000000  0.40990400  0.88999500  1
