# generated using pymatgen
data_RbH18RuN6(ClO2)4
_symmetry_space_group_name_H-M   'P 1'
_cell_length_a   10.17538818
_cell_length_b   10.17538818
_cell_length_c   10.17538821
_cell_angle_alpha   41.95369771
_cell_angle_beta   41.95369771
_cell_angle_gamma   41.95369434
_symmetry_Int_Tables_number   1
_chemical_formula_structural   RbH18RuN6(ClO2)4
_chemical_formula_sum   'Rb1 H18 Ru1 N6 Cl4 O8'
_cell_volume   425.88923546
_cell_formula_units_Z   1
loop_
 _symmetry_equiv_pos_site_id
 _symmetry_equiv_pos_as_xyz
  1  'x, y, z'
loop_
 _atom_site_type_symbol
 _atom_site_label
 _atom_site_symmetry_multiplicity
 _atom_site_fract_x
 _atom_site_fract_y
 _atom_site_fract_z
 _atom_site_occupancy
  Rb  Rb0  1  0.50000000  0.50000000  0.50000000  1
  H  H1  1  0.64716000  0.01662400  0.11532300  1
  H  H2  1  0.88467700  0.35284000  0.98337600  1
  H  H3  1  0.98337600  0.88467700  0.35284000  1
  H  H4  1  0.35284000  0.98337600  0.88467700  1
  H  H5  1  0.11532300  0.64716000  0.01662400  1
  H  H6  1  0.01662400  0.11532300  0.64716000  1
  H  H7  1  0.73866100  0.06110200  0.35887600  1
  H  H8  1  0.56786400  0.17079400  0.19314000  1
  H  H9  1  0.17079400  0.19314000  0.56786400  1
  H  H10  1  0.19314000  0.56786400  0.17079400  1
  H  H11  1  0.43213600  0.82920600  0.80686000  1
  H  H12  1  0.06110200  0.35887600  0.73866100  1
  H  H13  1  0.80686000  0.43213600  0.82920600  1
  H  H14  1  0.64112400  0.26133900  0.93889800  1
  H  H15  1  0.26133900  0.93889800  0.64112400  1
  H  H16  1  0.93889800  0.64112400  0.26133900  1
  H  H17  1  0.35887600  0.73866100  0.06110200  1
  H  H18  1  0.82920600  0.80686000  0.43213600  1
  Ru  Ru19  1  0.00000000  0.00000000  0.00000000  1
  N  N20  1  0.93069000  0.32118900  0.87602500  1
  N  N21  1  0.67881100  0.12397500  0.06931000  1
  N  N22  1  0.87602500  0.93069000  0.32118900  1
  N  N23  1  0.32118900  0.87602500  0.93069000  1
  N  N24  1  0.06931000  0.67881100  0.12397500  1
  N  N25  1  0.12397500  0.06931000  0.67881100  1
  Cl  Cl26  1  0.81393400  0.81393400  0.81393400  1
  Cl  Cl27  1  0.18606600  0.18606600  0.18606600  1
  Cl  Cl28  1  0.62684900  0.62684900  0.62684900  1
  Cl  Cl29  1  0.37315100  0.37315100  0.37315100  1
  O  O30  1  0.66310700  0.01266800  0.71248600  1
  O  O31  1  0.71248600  0.66310700  0.01266800  1
  O  O32  1  0.01266800  0.71248600  0.66310700  1
  O  O33  1  0.33689300  0.98733200  0.28751400  1
  O  O34  1  0.86646100  0.86646100  0.86646100  1
  O  O35  1  0.98733200  0.28751400  0.33689300  1
  O  O36  1  0.28751400  0.33689300  0.98733200  1
  O  O37  1  0.13353900  0.13353900  0.13353900  1
