# generated using pymatgen
data_Rb3B12H12Cl
_symmetry_space_group_name_H-M   'P 1'
_cell_length_a   7.05809931
_cell_length_b   7.05809931
_cell_length_c   7.05809983
_cell_angle_alpha   92.84620366
_cell_angle_beta   92.84620366
_cell_angle_gamma   92.84620247
_symmetry_Int_Tables_number   1
_chemical_formula_structural   Rb3B12H12Cl
_chemical_formula_sum   'Rb3 B12 H12 Cl1'
_cell_volume   350.26566074
_cell_formula_units_Z   1
loop_
 _symmetry_equiv_pos_site_id
 _symmetry_equiv_pos_as_xyz
  1  'x, y, z'
loop_
 _atom_site_type_symbol
 _atom_site_label
 _atom_site_symmetry_multiplicity
 _atom_site_fract_x
 _atom_site_fract_y
 _atom_site_fract_z
 _atom_site_occupancy
  Rb  Rb0  1  0.00000000  0.50000000  0.50000000  1
  Rb  Rb1  1  0.50000000  0.00000000  0.50000000  1
  Rb  Rb2  1  0.50000000  0.50000000  0.00000000  1
  B  B3  1  0.12132700  0.83992600  0.12132700  1
  B  B4  1  0.87867300  0.16007400  0.87867300  1
  B  B5  1  0.16007400  0.87867300  0.87867300  1
  B  B6  1  0.87867300  0.87867300  0.16007400  1
  B  B7  1  0.05797300  0.05797300  0.23155100  1
  B  B8  1  0.23155100  0.05797300  0.05797300  1
  B  B9  1  0.05797300  0.23155100  0.05797300  1
  B  B10  1  0.94202700  0.76844900  0.94202700  1
  B  B11  1  0.94202700  0.94202700  0.76844900  1
  B  B12  1  0.76844900  0.94202700  0.94202700  1
  B  B13  1  0.12132700  0.12132700  0.83992600  1
  B  B14  1  0.83992600  0.12132700  0.12132700  1
  H  H15  1  0.79095400  0.79095400  0.27227300  1
  H  H16  1  0.27227300  0.79095400  0.79095400  1
  H  H17  1  0.79095400  0.27227300  0.79095400  1
  H  H18  1  0.20904600  0.72772700  0.20904600  1
  H  H19  1  0.90067600  0.90067600  0.60413800  1
  H  H20  1  0.60413800  0.90067600  0.90067600  1
  H  H21  1  0.90067600  0.60413800  0.90067600  1
  H  H22  1  0.09932400  0.39586200  0.09932400  1
  H  H23  1  0.09932400  0.09932400  0.39586200  1
  H  H24  1  0.39586200  0.09932400  0.09932400  1
  H  H25  1  0.20904600  0.20904600  0.72772700  1
  H  H26  1  0.72772700  0.20904600  0.20904600  1
  Cl  Cl27  1  0.50000000  0.50000000  0.50000000  1
