# generated using pymatgen
data_NiBiO3
_symmetry_space_group_name_H-M   'P 1'
_cell_length_a   7.84876000
_cell_length_b   5.36842200
_cell_length_c   5.68220154
_cell_angle_alpha   89.66086381
_cell_angle_beta   90.00000000
_cell_angle_gamma   90.00000000
_symmetry_Int_Tables_number   1
_chemical_formula_structural   NiBiO3
_chemical_formula_sum   'Ni4 Bi4 O12'
_cell_volume   239.41795799
_cell_formula_units_Z   4
loop_
 _symmetry_equiv_pos_site_id
 _symmetry_equiv_pos_as_xyz
  1  'x, y, z'
loop_
 _atom_site_type_symbol
 _atom_site_label
 _atom_site_symmetry_multiplicity
 _atom_site_fract_x
 _atom_site_fract_y
 _atom_site_fract_z
 _atom_site_occupancy
  Ni  Ni0  1  0.50000000  0.00000000  0.00000000  1
  Ni  Ni1  1  0.50000000  0.50000000  0.50000000  1
  Ni  Ni2  1  0.00000000  0.00000000  0.00000000  1
  Ni  Ni3  1  0.00000000  0.50000000  0.50000000  1
  Bi  Bi4  1  0.75000000  0.53090800  0.93050500  1
  Bi  Bi5  1  0.25000000  0.46909200  0.06949500  1
  Bi  Bi6  1  0.25000000  0.02029600  0.55804600  1
  Bi  Bi7  1  0.75000000  0.97970400  0.44195400  1
  O  O8  1  0.56433600  0.67985300  0.18240600  1
  O  O9  1  0.43566400  0.32014700  0.81759400  1
  O  O10  1  0.42780600  0.20108700  0.29293400  1
  O  O11  1  0.57219400  0.79891300  0.70706600  1
  O  O12  1  0.06433600  0.32014700  0.81759400  1
  O  O13  1  0.93566400  0.67985300  0.18240600  1
  O  O14  1  0.92780600  0.79891300  0.70706600  1
  O  O15  1  0.07219400  0.20108700  0.29293400  1
  O  O16  1  0.75000000  0.15048300  0.03794000  1
  O  O17  1  0.25000000  0.84951700  0.96206000  1
  O  O18  1  0.75000000  0.38293000  0.57125000  1
  O  O19  1  0.25000000  0.61707000  0.42875000  1
