# generated using pymatgen
data_NbO2
_symmetry_space_group_name_H-M   'P 1'
_cell_length_a   2.99825972
_cell_length_b   2.99825972
_cell_length_c   10.19794000
_cell_angle_alpha   90.00000000
_cell_angle_beta   90.00000000
_cell_angle_gamma   119.99999375
_symmetry_Int_Tables_number   1
_chemical_formula_structural   NbO2
_chemical_formula_sum   'Nb2 O4'
_cell_volume   79.39289000
_cell_formula_units_Z   2
loop_
 _symmetry_equiv_pos_site_id
 _symmetry_equiv_pos_as_xyz
  1  'x, y, z'
loop_
 _atom_site_type_symbol
 _atom_site_label
 _atom_site_symmetry_multiplicity
 _atom_site_fract_x
 _atom_site_fract_y
 _atom_site_fract_z
 _atom_site_occupancy
  Nb  Nb0  1  0.66666700  0.33333300  0.25000000  1
  Nb  Nb1  1  0.33333300  0.66666700  0.75000000  1
  O  O2  1  0.66666700  0.33333300  0.86674000  1
  O  O3  1  0.66666700  0.33333300  0.63326000  1
  O  O4  1  0.33333300  0.66666700  0.36674000  1
  O  O5  1  0.33333300  0.66666700  0.13326000  1
