# generated using pymatgen
data_V2O5
_symmetry_space_group_name_H-M   'P 1'
_cell_length_a   5.70962807
_cell_length_b   5.70962807
_cell_length_c   11.53549500
_cell_angle_alpha   90.00000000
_cell_angle_beta   90.00000000
_cell_angle_gamma   143.15093842
_symmetry_Int_Tables_number   1
_chemical_formula_structural   V2O5
_chemical_formula_sum   'V4 O10'
_cell_volume   225.52384345
_cell_formula_units_Z   2
loop_
 _symmetry_equiv_pos_site_id
 _symmetry_equiv_pos_as_xyz
  1  'x, y, z'
loop_
 _atom_site_type_symbol
 _atom_site_label
 _atom_site_symmetry_multiplicity
 _atom_site_fract_x
 _atom_site_fract_y
 _atom_site_fract_z
 _atom_site_occupancy
  V  V0  1  0.70496800  0.29503200  0.60281400  1
  V  V1  1  0.29503200  0.70496800  0.39718600  1
  V  V2  1  0.29503200  0.70496800  0.10281400  1
  V  V3  1  0.70496800  0.29503200  0.89718600  1
  O  O4  1  0.76337100  0.23662900  0.75000000  1
  O  O5  1  0.55747000  0.44253000  0.61485100  1
  O  O6  1  0.24938000  0.75062000  0.56846500  1
  O  O7  1  0.75062000  0.24938000  0.43153500  1
  O  O8  1  0.44253000  0.55747000  0.38514900  1
  O  O9  1  0.23662900  0.76337100  0.25000000  1
  O  O10  1  0.44253000  0.55747000  0.11485100  1
  O  O11  1  0.55747000  0.44253000  0.88514900  1
  O  O12  1  0.75062000  0.24938000  0.06846500  1
  O  O13  1  0.24938000  0.75062000  0.93153500  1
