data_image0
_chemical_formula_structural       B8H31Mg4
_chemical_formula_sum              "B8 H31 Mg4"
_cell_length_a       7.87042
_cell_length_b       8.0401
_cell_length_c       9.72869
_cell_angle_alpha    89.9278
_cell_angle_beta     90.1702
_cell_angle_gamma    89.9896

_space_group_name_H-M_alt    "P 1"
_space_group_IT_number       1

loop_
  _space_group_symop_operation_xyz
  'x, y, z'

loop_
  _atom_site_type_symbol
  _atom_site_label
  _atom_site_symmetry_multiplicity
  _atom_site_fract_x
  _atom_site_fract_y
  _atom_site_fract_z
  _atom_site_occupancy
  B   B1        1.0  0.88300  0.24300  0.15000  1.0000
  B   B2        1.0  0.88500  0.78500  0.16600  1.0000
  B   B3        1.0  0.61200  0.50600  0.34900  1.0000
  B   B4        1.0  0.15500  0.50400  0.35000  1.0000
  B   B5        1.0  0.38600  0.25700  0.64700  1.0000
  B   B6        1.0  0.38600  0.71500  0.66100  1.0000
  B   B7        1.0  0.10500  0.99400  0.84400  1.0000
  B   B8        1.0  0.65700  0.99400  0.85300  1.0000
  H   H1        1.0  0.88100  0.37200  0.08190  1.0000
  H   H2        1.0  0.88300  0.66200  0.09080  1.0000
  H   H3        1.0  0.75200  0.16900  0.12200  1.0000
  H   H4        1.0  0.01690  0.17200  0.12300  1.0000
  H   H5        1.0  0.75300  0.86200  0.14100  1.0000
  H   H6        1.0  0.01790  0.85900  0.14100  1.0000
  H   H7        1.0  0.62900  0.51300  0.22400  1.0000
  H   H8        1.0  0.13800  0.51200  0.22500  1.0000
  H   H9        1.0  0.88300  0.25900  0.27500  1.0000
  H   H10       1.0  0.88500  0.76000  0.28900  1.0000
  H   H11       1.0  0.53900  0.37400  0.37100  1.0000
  H   H12       1.0  0.22900  0.37300  0.37200  1.0000
  H   H13       1.0  0.53600  0.63300  0.38100  1.0000
  H   H14       1.0  0.23000  0.63200  0.38300  1.0000
  H   H15       1.0  0.74200  0.50400  0.41900  1.0000
  H   H16       1.0  0.02510  0.50000  0.42000  1.0000
  H   H17       1.0  0.38400  0.12700  0.58000  1.0000
  H   H18       1.0  0.38400  0.84100  0.58800  1.0000
  H   H19       1.0  0.51900  0.32800  0.61800  1.0000
  H   H20       1.0  0.25300  0.32900  0.62000  1.0000
  H   H21       1.0  0.51800  0.64200  0.63500  1.0000
  H   H22       1.0  0.25400  0.64000  0.63700  1.0000
  H   H23       1.0  0.10800  0.98900  0.71900  1.0000
  H   H24       1.0  0.64200  0.98700  0.72800  1.0000
  H   H25       1.0  0.38800  0.24200  0.77300  1.0000
  H   H26       1.0  0.38700  0.73800  0.78500  1.0000
  H   H27       1.0  0.72800  0.12700  0.87800  1.0000
  H   H28       1.0  0.73100  0.86700  0.88800  1.0000
  H   H29       1.0  0.09270  0.12800  0.89900  1.0000
  H   H30       1.0  0.08910  0.86500  0.90700  1.0000
  H   H31       1.0  0.52300  0.99700  0.92100  1.0000
  Mg  Mg1       1.0  0.88900  0.00604  0.00825  1.0000
  Mg  Mg2       1.0  0.88300  0.51000  0.25100  1.0000
  Mg  Mg3       1.0  0.38500  0.49400  0.50400  1.0000
  Mg  Mg4       1.0  0.38400  0.99000  0.75100  1.0000
