# generated using pymatgen
data_ScMo3O8
_symmetry_space_group_name_H-M   'P 1'
_cell_length_a   5.75917981
_cell_length_b   5.81532511
_cell_length_c   4.90585183
_cell_angle_alpha   89.96126756
_cell_angle_beta   89.85877059
_cell_angle_gamma   120.28729871
_symmetry_Int_Tables_number   1
_chemical_formula_structural   ScMo3O8
_chemical_formula_sum   'Sc1 Mo3 O8'
_cell_volume   141.87723714
_cell_formula_units_Z   1
loop_
 _symmetry_equiv_pos_site_id
 _symmetry_equiv_pos_as_xyz
  1  'x, y, z'
loop_
 _atom_site_type_symbol
 _atom_site_label
 _atom_site_symmetry_multiplicity
 _atom_site_fract_x
 _atom_site_fract_y
 _atom_site_fract_z
 _atom_site_occupancy
  Sc  Sc0  1  0.34503900  0.67290800  0.73384700  1
  Mo  Mo1  1  0.85294600  0.69437900  0.25740700  1
  Mo  Mo2  1  0.85331200  0.15880800  0.25747200  1
  Mo  Mo3  1  0.29712600  0.14871500  0.25270000  1
  O  O4  1  0.49988200  0.00501800  0.46960400  1
  O  O5  1  0.66814200  0.33440900  0.05463200  1
  O  O6  1  0.66976500  0.83525100  0.02118300  1
  O  O7  1  0.16881500  0.83388200  0.00700400  1
  O  O8  1  0.00007400  0.49987600  0.47042400  1
  O  O9  1  0.97872000  0.98878900  0.53917200  1
  O  O10  1  0.16869500  0.33506300  0.00648400  1
  O  O11  1  0.49956400  0.49498200  0.46918100  1
