# generated using pymatgen
data_V2O5
_symmetry_space_group_name_H-M   'P 1'
_cell_length_a   3.61667700
_cell_length_b   9.68871800
_cell_length_c   11.57819200
_cell_angle_alpha   90.00000000
_cell_angle_beta   90.00000000
_cell_angle_gamma   90.00000000
_symmetry_Int_Tables_number   1
_chemical_formula_structural   V2O5
_chemical_formula_sum   'V8 O20'
_cell_volume   405.71100385
_cell_formula_units_Z   4
loop_
 _symmetry_equiv_pos_site_id
 _symmetry_equiv_pos_as_xyz
  1  'x, y, z'
loop_
 _atom_site_type_symbol
 _atom_site_label
 _atom_site_symmetry_multiplicity
 _atom_site_fract_x
 _atom_site_fract_y
 _atom_site_fract_z
 _atom_site_occupancy
  V  V0  1  0.34465400  0.29925100  0.60290100  1
  V  V1  1  0.15534600  0.79925100  0.60290100  1
  V  V2  1  0.65534600  0.70074900  0.39709900  1
  V  V3  1  0.84465400  0.20074900  0.39709900  1
  V  V4  1  0.65534600  0.70074900  0.10290100  1
  V  V5  1  0.84465400  0.20074900  0.10290100  1
  V  V6  1  0.34465400  0.29925100  0.89709900  1
  V  V7  1  0.15534600  0.79925100  0.89709900  1
  O  O8  1  0.14886000  0.73509000  0.75000000  1
  O  O9  1  0.35114000  0.23509000  0.75000000  1
  O  O10  1  0.85114000  0.26491000  0.25000000  1
  O  O11  1  0.64886000  0.76491000  0.25000000  1
  O  O12  1  0.34045900  0.46413500  0.61552200  1
  O  O13  1  0.15954100  0.96413500  0.61552200  1
  O  O14  1  0.84045900  0.03586500  0.38447800  1
  O  O15  1  0.65954100  0.53586500  0.38447800  1
  O  O16  1  0.65954100  0.53586500  0.11552200  1
  O  O17  1  0.84045900  0.03586500  0.11552200  1
  O  O18  1  0.34045900  0.46413500  0.88447800  1
  O  O19  1  0.15954100  0.96413500  0.88447800  1
  O  O20  1  0.65489300  0.75148600  0.56816600  1
  O  O21  1  0.84510700  0.25148600  0.56816600  1
  O  O22  1  0.15489300  0.74851400  0.43183400  1
  O  O23  1  0.34510700  0.24851400  0.43183400  1
  O  O24  1  0.34510700  0.24851400  0.06816600  1
  O  O25  1  0.15489300  0.74851400  0.06816600  1
  O  O26  1  0.65489300  0.75148600  0.93183400  1
  O  O27  1  0.84510700  0.25148600  0.93183400  1
