# generated using pymatgen
data_V2O5
_symmetry_space_group_name_H-M   'P 1'
_cell_length_a   3.61929800
_cell_length_b   10.17714900
_cell_length_c   10.33393100
_cell_angle_alpha   90.00000000
_cell_angle_beta   90.00000000
_cell_angle_gamma   90.00000000
_symmetry_Int_Tables_number   1
_chemical_formula_structural   V2O5
_chemical_formula_sum   'V8 O20'
_cell_volume   380.64140976
_cell_formula_units_Z   4
loop_
 _symmetry_equiv_pos_site_id
 _symmetry_equiv_pos_as_xyz
  1  'x, y, z'
loop_
 _atom_site_type_symbol
 _atom_site_label
 _atom_site_symmetry_multiplicity
 _atom_site_fract_x
 _atom_site_fract_y
 _atom_site_fract_z
 _atom_site_occupancy
  V  V0  1  0.75000000  0.87525100  0.98490200  1
  V  V1  1  0.25000000  0.62474900  0.48490200  1
  V  V2  1  0.75000000  0.37525100  0.51509800  1
  V  V3  1  0.25000000  0.12474900  0.01509800  1
  V  V4  1  0.25000000  0.92808800  0.39802400  1
  V  V5  1  0.75000000  0.57191200  0.89802400  1
  V  V6  1  0.25000000  0.42808800  0.10197600  1
  V  V7  1  0.75000000  0.07191200  0.60197600  1
  O  O8  1  0.25000000  0.56431100  0.95928100  1
  O  O9  1  0.75000000  0.93568900  0.45928100  1
  O  O10  1  0.75000000  0.43568900  0.04071900  1
  O  O11  1  0.25000000  0.06431100  0.54071900  1
  O  O12  1  0.75000000  0.29174300  0.38336800  1
  O  O13  1  0.75000000  0.79174300  0.11663200  1
  O  O14  1  0.25000000  0.20825700  0.88336800  1
  O  O15  1  0.25000000  0.70825700  0.61663200  1
  O  O16  1  0.25000000  0.93037000  0.96336800  1
  O  O17  1  0.75000000  0.06963000  0.03663200  1
  O  O18  1  0.75000000  0.56963000  0.46336800  1
  O  O19  1  0.25000000  0.43037000  0.53663200  1
  O  O20  1  0.75000000  0.74537900  0.86344200  1
  O  O21  1  0.75000000  0.24537900  0.63655800  1
  O  O22  1  0.25000000  0.75462100  0.36344200  1
  O  O23  1  0.25000000  0.25462100  0.13655800  1
  O  O24  1  0.75000000  0.00024400  0.74052100  1
  O  O25  1  0.25000000  0.99975600  0.25947900  1
  O  O26  1  0.25000000  0.49975600  0.24052100  1
  O  O27  1  0.75000000  0.50024400  0.75947900  1
