# generated using pymatgen
data_Co2P3O10
_symmetry_space_group_name_H-M   'P 1'
_cell_length_a   8.48263300
_cell_length_b   4.69791300
_cell_length_c   8.94256550
_cell_angle_alpha   81.60554423
_cell_angle_beta   90.00000000
_cell_angle_gamma   90.00000000
_symmetry_Int_Tables_number   1
_chemical_formula_structural   Co2P3O10
_chemical_formula_sum   'Co4 P6 O20'
_cell_volume   352.54928980
_cell_formula_units_Z   2
loop_
 _symmetry_equiv_pos_site_id
 _symmetry_equiv_pos_as_xyz
  1  'x, y, z'
loop_
 _atom_site_type_symbol
 _atom_site_label
 _atom_site_symmetry_multiplicity
 _atom_site_fract_x
 _atom_site_fract_y
 _atom_site_fract_z
 _atom_site_occupancy
  Co  Co0  1  0.93133600  0.94792000  0.32795400  1
  Co  Co1  1  0.06866400  0.05208000  0.67204600  1
  Co  Co2  1  0.56866400  0.94792000  0.32795400  1
  Co  Co3  1  0.43133600  0.05208000  0.67204600  1
  P  P4  1  0.25000000  0.33141100  0.18725200  1
  P  P5  1  0.75000000  0.52424000  0.14741000  1
  P  P6  1  0.75000000  0.66858900  0.81274800  1
  P  P7  1  0.75000000  0.38874100  0.53738900  1
  P  P8  1  0.25000000  0.61125900  0.46261100  1
  P  P9  1  0.25000000  0.47576000  0.85259000  1
  O  O10  1  0.75000000  0.41037000  0.71379800  1
  O  O11  1  0.59775200  0.22363800  0.51154300  1
  O  O12  1  0.40224800  0.77636200  0.48845700  1
  O  O13  1  0.39923400  0.31001600  0.82347600  1
  O  O14  1  0.25000000  0.30220300  0.55049700  1
  O  O15  1  0.75000000  0.47047500  0.97465800  1
  O  O16  1  0.75000000  0.21373200  0.23447100  1
  O  O17  1  0.60076600  0.68998400  0.17652400  1
  O  O18  1  0.90219700  0.82863000  0.79058200  1
  O  O19  1  0.75000000  0.69779700  0.44950300  1
  O  O20  1  0.40219700  0.17137000  0.20941800  1
  O  O21  1  0.25000000  0.52952500  0.02534200  1
  O  O22  1  0.09775200  0.77636200  0.48845700  1
  O  O23  1  0.25000000  0.58963000  0.28620200  1
  O  O24  1  0.90224800  0.22363800  0.51154300  1
  O  O25  1  0.59780300  0.82863000  0.79058200  1
  O  O26  1  0.25000000  0.78626800  0.76552900  1
  O  O27  1  0.10076600  0.31001600  0.82347600  1
  O  O28  1  0.89923400  0.68998400  0.17652400  1
  O  O29  1  0.09780300  0.17137000  0.20941800  1
