# generated using pymatgen
data_Cr2P3O11
_symmetry_space_group_name_H-M   'P 1'
_cell_length_a   7.22284965
_cell_length_b   7.22285001
_cell_length_c   8.79584000
_cell_angle_alpha   70.87712266
_cell_angle_beta   109.12287982
_cell_angle_gamma   107.05408808
_symmetry_Int_Tables_number   1
_chemical_formula_structural   Cr2P3O11
_chemical_formula_sum   'Cr4 P6 O22'
_cell_volume   400.64303897
_cell_formula_units_Z   2
loop_
 _symmetry_equiv_pos_site_id
 _symmetry_equiv_pos_as_xyz
  1  'x, y, z'
loop_
 _atom_site_type_symbol
 _atom_site_label
 _atom_site_symmetry_multiplicity
 _atom_site_fract_x
 _atom_site_fract_y
 _atom_site_fract_z
 _atom_site_occupancy
  Cr  Cr0  1  0.88422100  0.63262500  0.04303400  1
  Cr  Cr1  1  0.36701600  0.11567300  0.54305700  1
  Cr  Cr2  1  0.11567300  0.36701600  0.95694300  1
  Cr  Cr3  1  0.63262500  0.88422100  0.45696600  1
  P  P4  1  0.95952900  0.95952900  0.25000000  1
  P  P5  1  0.32553600  0.54460100  0.28954600  1
  P  P6  1  0.45522800  0.67431400  0.78949100  1
  P  P7  1  0.54460100  0.32553600  0.21045400  1
  P  P8  1  0.04021000  0.04021000  0.75000000  1
  P  P9  1  0.67431400  0.45522800  0.71050900  1
  O  O10  1  0.05296300  0.24738000  0.77550700  1
  O  O11  1  0.37321800  0.28262900  0.06141100  1
  O  O12  1  0.94701800  0.75238100  0.22456300  1
  O  O13  1  0.24793800  0.62081000  0.81761200  1
  O  O14  1  0.14980000  0.52799100  0.12890200  1
  O  O15  1  0.87495300  0.01532400  0.59266400  1
  O  O16  1  0.28262900  0.37321800  0.43858900  1
  O  O17  1  0.48431800  0.48431800  0.75000000  1
  O  O18  1  0.84999900  0.47148200  0.87125600  1
  O  O19  1  0.52799100  0.14980000  0.37109800  1
  O  O20  1  0.75208500  0.37903300  0.18264300  1
  O  O21  1  0.75238100  0.94701800  0.27543700  1
  O  O22  1  0.24738000  0.05296300  0.72449300  1
  O  O23  1  0.47148200  0.84999900  0.62874400  1
  O  O24  1  0.98466700  0.12466200  0.09263500  1
  O  O25  1  0.12466200  0.98466700  0.40736500  1
  O  O26  1  0.51552100  0.51552100  0.25000000  1
  O  O27  1  0.37903300  0.75208500  0.31735700  1
  O  O28  1  0.62692600  0.71737100  0.93830500  1
  O  O29  1  0.62081000  0.24793800  0.68238800  1
  O  O30  1  0.71737100  0.62692600  0.56169500  1
  O  O31  1  0.01532400  0.87495300  0.90733600  1
