# generated using pymatgen
data_Na5Mn2P2(CO7)2
_symmetry_space_group_name_H-M   'P 1'
_cell_length_a   6.70268600
_cell_length_b   10.38959000
_cell_length_c   10.51821450
_cell_angle_alpha   60.51486101
_cell_angle_beta   90.00000000
_cell_angle_gamma   90.00000000
_symmetry_Int_Tables_number   1
_chemical_formula_structural   Na5Mn2P2(CO7)2
_chemical_formula_sum   'Na10 Mn4 P4 C4 O28'
_cell_volume   637.60218279
_cell_formula_units_Z   2
loop_
 _symmetry_equiv_pos_site_id
 _symmetry_equiv_pos_as_xyz
  1  'x, y, z'
loop_
 _atom_site_type_symbol
 _atom_site_label
 _atom_site_symmetry_multiplicity
 _atom_site_fract_x
 _atom_site_fract_y
 _atom_site_fract_z
 _atom_site_occupancy
  Na  Na0  1  0.25000000  0.90501400  0.17536600  1
  Na  Na1  1  0.00998600  0.26226100  0.99096100  1
  Na  Na2  1  0.49001400  0.26226100  0.99096100  1
  Na  Na3  1  0.99917100  0.73759800  0.50434100  1
  Na  Na4  1  0.50082900  0.73759800  0.50434100  1
  Na  Na5  1  0.50998600  0.73773900  0.00903900  1
  Na  Na6  1  0.99001400  0.73773900  0.00903900  1
  Na  Na7  1  0.49917100  0.26240200  0.49565900  1
  Na  Na8  1  0.00082900  0.26240200  0.49565900  1
  Na  Na9  1  0.75000000  0.09498600  0.82463400  1
  Mn  Mn10  1  0.75000000  0.53803100  0.82035500  1
  Mn  Mn11  1  0.75000000  0.03953000  0.31716900  1
  Mn  Mn12  1  0.25000000  0.46196900  0.17964500  1
  Mn  Mn13  1  0.25000000  0.96047000  0.68283100  1
  P  P14  1  0.25000000  0.60923500  0.81065200  1
  P  P15  1  0.25000000  0.10890900  0.31045400  1
  P  P16  1  0.75000000  0.39076500  0.18934800  1
  P  P17  1  0.75000000  0.89109100  0.68954600  1
  C  C18  1  0.75000000  0.41459100  0.65456400  1
  C  C19  1  0.75000000  0.92468700  0.14162300  1
  C  C20  1  0.25000000  0.58540900  0.34543600  1
  C  C21  1  0.25000000  0.07531300  0.85837700  1
  O  O22  1  0.25000000  0.66301000  0.40905800  1
  O  O23  1  0.25000000  0.13784200  0.93762700  1
  O  O24  1  0.75000000  0.34510500  0.79965200  1
  O  O25  1  0.75000000  0.84979600  0.28423400  1
  O  O26  1  0.75000000  0.55674900  0.59045500  1
  O  O27  1  0.75000000  0.06884400  0.08070100  1
  O  O28  1  0.06141100  0.52438600  0.80636800  1
  O  O29  1  0.43858900  0.52438600  0.80636800  1
  O  O30  1  0.06528900  0.02348300  0.30037400  1
  O  O31  1  0.43471100  0.02348300  0.30037400  1
  O  O32  1  0.25000000  0.26915400  0.17296100  1
  O  O33  1  0.75000000  0.37430500  0.05062700  1
  O  O34  1  0.25000000  0.76741500  0.67145000  1
  O  O35  1  0.75000000  0.87678300  0.55011800  1
  O  O36  1  0.25000000  0.62569500  0.94937300  1
  O  O37  1  0.75000000  0.73084600  0.82703900  1
  O  O38  1  0.25000000  0.12321700  0.44988200  1
  O  O39  1  0.75000000  0.23258500  0.32855000  1
  O  O40  1  0.56141100  0.47561400  0.19363200  1
  O  O41  1  0.93858900  0.47561400  0.19363200  1
  O  O42  1  0.56528900  0.97651700  0.69962600  1
  O  O43  1  0.93471100  0.97651700  0.69962600  1
  O  O44  1  0.25000000  0.44325100  0.40954500  1
  O  O45  1  0.25000000  0.93115600  0.91929900  1
  O  O46  1  0.25000000  0.65489500  0.20034800  1
  O  O47  1  0.25000000  0.15020400  0.71576600  1
  O  O48  1  0.75000000  0.33699000  0.59094200  1
  O  O49  1  0.75000000  0.86215800  0.06237300  1
