# generated using pymatgen
data_Ni3(P2O7)2
_symmetry_space_group_name_H-M   'P 1'
_cell_length_a   7.92580600
_cell_length_b   7.26615500
_cell_length_c   9.42149242
_cell_angle_alpha   69.29513427
_cell_angle_beta   90.00000000
_cell_angle_gamma   90.00000000
_symmetry_Int_Tables_number   1
_chemical_formula_structural   Ni3(P2O7)2
_chemical_formula_sum   'Ni6 P8 O28'
_cell_volume   507.54162848
_cell_formula_units_Z   2
loop_
 _symmetry_equiv_pos_site_id
 _symmetry_equiv_pos_as_xyz
  1  'x, y, z'
loop_
 _atom_site_type_symbol
 _atom_site_label
 _atom_site_symmetry_multiplicity
 _atom_site_fract_x
 _atom_site_fract_y
 _atom_site_fract_z
 _atom_site_occupancy
  Ni  Ni0  1  0.62759000  0.18599200  0.47398000  1
  Ni  Ni1  1  0.87241000  0.18599200  0.97398000  1
  Ni  Ni2  1  0.12759000  0.81400800  0.02602000  1
  Ni  Ni3  1  0.50000000  0.00000000  0.00000000  1
  Ni  Ni4  1  0.37241000  0.81400800  0.52602000  1
  Ni  Ni5  1  0.00000000  0.00000000  0.50000000  1
  P  P6  1  0.70988400  0.88578900  0.30226100  1
  P  P7  1  0.04773900  0.59786400  0.79203600  1
  P  P8  1  0.45226100  0.59786400  0.29203600  1
  P  P9  1  0.54773900  0.40213600  0.70796400  1
  P  P10  1  0.95226100  0.40213600  0.20796400  1
  P  P11  1  0.29011600  0.11421100  0.69773900  1
  P  P12  1  0.79011600  0.88578900  0.80226100  1
  P  P13  1  0.20988400  0.11421100  0.19773900  1
  O  O14  1  0.61492200  0.27191900  0.86487000  1
  O  O15  1  0.70962900  0.99894500  0.12994500  1
  O  O16  1  0.07986700  0.03205300  0.11154000  1
  O  O17  1  0.38027200  0.13858600  0.12351500  1
  O  O18  1  0.79037100  0.99894500  0.62994500  1
  O  O19  1  0.42013300  0.03205300  0.61154000  1
  O  O20  1  0.29037100  0.00105500  0.87005500  1
  O  O21  1  0.92013300  0.96794700  0.88846000  1
  O  O22  1  0.61972800  0.86141400  0.87648500  1
  O  O23  1  0.20962900  0.00105500  0.37005500  1
  O  O24  1  0.57986700  0.96794700  0.38846000  1
  O  O25  1  0.86002600  0.67227300  0.81381000  1
  O  O26  1  0.16398600  0.62985900  0.91216600  1
  O  O27  1  0.88027200  0.86141400  0.37648500  1
  O  O28  1  0.11492200  0.72808100  0.63513000  1
  O  O29  1  0.52521500  0.61924400  0.68149100  1
  O  O30  1  0.63997400  0.67227300  0.31381000  1
  O  O31  1  0.83601400  0.37014100  0.08783400  1
  O  O32  1  0.38507800  0.72808100  0.13513000  1
  O  O33  1  0.02521500  0.38075600  0.81850900  1
  O  O34  1  0.97478500  0.61924400  0.18149100  1
  O  O35  1  0.13997400  0.32772700  0.18619000  1
  O  O36  1  0.66398600  0.37014100  0.58783400  1
  O  O37  1  0.36002600  0.32772700  0.68619000  1
  O  O38  1  0.47478500  0.38075600  0.31850900  1
  O  O39  1  0.88507800  0.27191900  0.36487000  1
  O  O40  1  0.11972800  0.13858600  0.62351500  1
  O  O41  1  0.33601400  0.62985900  0.41216600  1
