data_image0
_chemical_formula_structural       CdGa2S4
_chemical_formula_sum              "Cd1 Ga2 S4"
_cell_length_a       5.59441
_cell_length_b       5.59441
_cell_length_c       6.48771
_cell_angle_alpha    115.541
_cell_angle_beta     115.541
_cell_angle_gamma    90

_space_group_name_H-M_alt    "P 1"
_space_group_IT_number       1

loop_
  _space_group_symop_operation_xyz
  'x, y, z'

loop_
  _atom_site_type_symbol
  _atom_site_label
  _atom_site_symmetry_multiplicity
  _atom_site_fract_x
  _atom_site_fract_y
  _atom_site_fract_z
  _atom_site_occupancy
  Cd  Cd1       1.0  0.00000  0.00000  0.00000  1.0000
  Ga  Ga1       1.0  0.50000  0.50000  0.00000  1.0000
  Ga  Ga2       1.0  0.25000  0.75000  0.50000  1.0000
  S   S1        1.0  0.86600  0.40500  0.27400  1.0000
  S   S2        1.0  0.40800  0.86800  0.27400  1.0000
  S   S3        1.0  0.13200  0.13400  0.72600  1.0000
  S   S4        1.0  0.59500  0.59200  0.72600  1.0000
