# generated using pymatgen
data_Mo2(PO4)3
_symmetry_space_group_name_H-M   'P 1'
_cell_length_a   8.92735600
_cell_length_b   9.13906500
_cell_length_c   12.49915500
_cell_angle_alpha   90.00000000
_cell_angle_beta   90.00000000
_cell_angle_gamma   90.00000000
_symmetry_Int_Tables_number   1
_chemical_formula_structural   Mo2(PO4)3
_chemical_formula_sum   'Mo8 P12 O48'
_cell_volume   1019.77714293
_cell_formula_units_Z   4
loop_
 _symmetry_equiv_pos_site_id
 _symmetry_equiv_pos_as_xyz
  1  'x, y, z'
loop_
 _atom_site_type_symbol
 _atom_site_label
 _atom_site_symmetry_multiplicity
 _atom_site_fract_x
 _atom_site_fract_y
 _atom_site_fract_z
 _atom_site_occupancy
  Mo  Mo0  1  0.24484300  0.02731700  0.39846300  1
  Mo  Mo1  1  0.75515700  0.52731700  0.39846300  1
  Mo  Mo2  1  0.75515700  0.97268300  0.60153700  1
  Mo  Mo3  1  0.24484300  0.47268300  0.60153700  1
  Mo  Mo4  1  0.75515700  0.52731700  0.10153700  1
  Mo  Mo5  1  0.24484300  0.47268300  0.89846300  1
  Mo  Mo6  1  0.75515700  0.97268300  0.89846300  1
  Mo  Mo7  1  0.24484300  0.02731700  0.10153700  1
  P  P8  1  0.60070200  0.87738900  0.13296400  1
  P  P9  1  0.03556700  0.75000000  0.50000000  1
  P  P10  1  0.39929800  0.37738900  0.36703600  1
  P  P11  1  0.03556700  0.75000000  0.00000000  1
  P  P12  1  0.60070200  0.87738900  0.36703600  1
  P  P13  1  0.96443300  0.25000000  0.50000000  1
  P  P14  1  0.60070200  0.62261100  0.86703600  1
  P  P15  1  0.39929800  0.37738900  0.13296400  1
  P  P16  1  0.60070200  0.62261100  0.63296400  1
  P  P17  1  0.39929800  0.12261100  0.63296400  1
  P  P18  1  0.39929800  0.12261100  0.86703600  1
  P  P19  1  0.96443300  0.25000000  0.00000000  1
  O  O20  1  0.86790600  0.33487600  0.08002700  1
  O  O21  1  0.34092300  0.42649700  0.25000000  1
  O  O22  1  0.93726900  0.85773300  0.56510400  1
  O  O23  1  0.30625300  0.47302000  0.05680700  1
  O  O24  1  0.43296400  0.90700300  0.37154500  1
  O  O25  1  0.43296400  0.59299700  0.62845500  1
  O  O26  1  0.34092300  0.07350300  0.75000000  1
  O  O27  1  0.43296400  0.59299700  0.87154500  1
  O  O28  1  0.65907700  0.57350300  0.75000000  1
  O  O29  1  0.37187200  0.28511800  0.61934900  1
  O  O30  1  0.62812800  0.71488200  0.38065100  1
  O  O31  1  0.06273100  0.35773300  0.56510400  1
  O  O32  1  0.20375300  0.47169300  0.75000000  1
  O  O33  1  0.43296400  0.90700300  0.12845500  1
  O  O34  1  0.37187200  0.21488200  0.11934900  1
  O  O35  1  0.86790600  0.33487600  0.41997300  1
  O  O36  1  0.62812800  0.78511800  0.61934900  1
  O  O37  1  0.30625300  0.02698000  0.94319300  1
  O  O38  1  0.56703600  0.40700300  0.12845500  1
  O  O39  1  0.86790600  0.16512400  0.58002700  1
  O  O40  1  0.06273100  0.14226700  0.06510400  1
  O  O41  1  0.65907700  0.92649700  0.25000000  1
  O  O42  1  0.93726900  0.64226700  0.43489600  1
  O  O43  1  0.79624700  0.52830700  0.25000000  1
  O  O44  1  0.69374700  0.52698000  0.94319300  1
  O  O45  1  0.93726900  0.85773300  0.93489600  1
  O  O46  1  0.69374700  0.52698000  0.55680700  1
  O  O47  1  0.56703600  0.40700300  0.37154500  1
  O  O48  1  0.06273100  0.14226700  0.43489600  1
  O  O49  1  0.93726900  0.64226700  0.06510400  1
  O  O50  1  0.30625300  0.02698000  0.55680700  1
  O  O51  1  0.62812800  0.78511800  0.88065100  1
  O  O52  1  0.86790600  0.16512400  0.91997300  1
  O  O53  1  0.20375300  0.02830700  0.25000000  1
  O  O54  1  0.13209400  0.83487600  0.41997300  1
  O  O55  1  0.13209400  0.66512400  0.58002700  1
  O  O56  1  0.06273100  0.35773300  0.93489600  1
  O  O57  1  0.56703600  0.09299700  0.62845500  1
  O  O58  1  0.37187200  0.28511800  0.88065100  1
  O  O59  1  0.62812800  0.71488200  0.11934900  1
  O  O60  1  0.69374700  0.97302000  0.44319300  1
  O  O61  1  0.13209400  0.66512400  0.91997300  1
  O  O62  1  0.30625300  0.47302000  0.44319300  1
  O  O63  1  0.37187200  0.21488200  0.38065100  1
  O  O64  1  0.79624700  0.97169300  0.75000000  1
  O  O65  1  0.69374700  0.97302000  0.05680700  1
  O  O66  1  0.56703600  0.09299700  0.87154500  1
  O  O67  1  0.13209400  0.83487600  0.08002700  1
