# generated using pymatgen
data_CrB
_symmetry_space_group_name_H-M   'P 1'
_cell_length_a   4.18931092
_cell_length_b   4.18931092
_cell_length_c   2.91639700
_cell_angle_alpha   90.00000000
_cell_angle_beta   90.00000000
_cell_angle_gamma   139.11152235
_symmetry_Int_Tables_number   1
_chemical_formula_structural   CrB
_chemical_formula_sum   'Cr2 B2'
_cell_volume   33.50428830
_cell_formula_units_Z   2
loop_
 _symmetry_equiv_pos_site_id
 _symmetry_equiv_pos_as_xyz
  1  'x, y, z'
loop_
 _atom_site_type_symbol
 _atom_site_label
 _atom_site_symmetry_multiplicity
 _atom_site_fract_x
 _atom_site_fract_y
 _atom_site_fract_z
 _atom_site_occupancy
  Cr  Cr0  1  0.85453300  0.14546700  0.75000000  1
  Cr  Cr1  1  0.14546700  0.85453300  0.25000000  1
  B  B2  1  0.56442600  0.43557400  0.75000000  1
  B  B3  1  0.43557400  0.56442600  0.25000000  1
