# generated using pymatgen
data_Sb2P5O16
_symmetry_space_group_name_H-M   'P 1'
_cell_length_a   10.44398600
_cell_length_b   7.56457200
_cell_length_c   10.70179358
_cell_angle_alpha   69.23910770
_cell_angle_beta   90.00000000
_cell_angle_gamma   90.00000000
_symmetry_Int_Tables_number   1
_chemical_formula_structural   Sb2P5O16
_chemical_formula_sum   'Sb4 P10 O32'
_cell_volume   790.58820721
_cell_formula_units_Z   2
loop_
 _symmetry_equiv_pos_site_id
 _symmetry_equiv_pos_as_xyz
  1  'x, y, z'
loop_
 _atom_site_type_symbol
 _atom_site_label
 _atom_site_symmetry_multiplicity
 _atom_site_fract_x
 _atom_site_fract_y
 _atom_site_fract_z
 _atom_site_occupancy
  Sb  Sb0  1  0.37101900  0.92220200  0.87197700  1
  Sb  Sb1  1  0.62898100  0.92220200  0.37197700  1
  Sb  Sb2  1  0.85881800  0.37759500  0.98199000  1
  Sb  Sb3  1  0.14118200  0.37759500  0.48199000  1
  P  P4  1  0.14799200  0.60668700  0.88165100  1
  P  P5  1  0.70510100  0.55183600  0.62824600  1
  P  P6  1  0.85200800  0.60668700  0.38165100  1
  P  P7  1  0.46718500  0.50169600  0.50927500  1
  P  P8  1  0.11729300  0.25761900  0.82431700  1
  P  P9  1  0.29489900  0.55183600  0.12824600  1
  P  P10  1  0.53281500  0.50169600  0.00927500  1
  P  P11  1  0.88270700  0.25761900  0.32431700  1
  P  P12  1  0.41200000  0.11366400  0.53288700  1
  P  P13  1  0.58800000  0.11366400  0.03288700  1
  O  O14  1  0.21883900  0.78998100  0.80570400  1
  O  O15  1  0.47793400  0.66564700  0.89227900  1
  O  O16  1  0.01107700  0.62806400  0.91496400  1
  O  O17  1  0.69258700  0.76802900  0.57176100  1
  O  O18  1  0.78116100  0.78998100  0.30570400  1
  O  O19  1  0.16544900  0.47549200  0.79563800  1
  O  O20  1  0.52206600  0.66564700  0.39227900  1
  O  O21  1  0.98892300  0.62806400  0.41496400  1
  O  O22  1  0.76758900  0.46709200  0.76012900  1
  O  O23  1  0.30741300  0.76802900  0.07176100  1
  O  O24  1  0.33380200  0.51082600  0.55624500  1
  O  O25  1  0.51575100  0.31747100  0.96810700  1
  O  O26  1  0.56494200  0.46001600  0.63463700  1
  O  O27  1  0.77485000  0.48771600  0.51683800  1
  O  O28  1  0.00702400  0.21877700  0.92537800  1
  O  O29  1  0.83455100  0.47549200  0.29563800  1
  O  O30  1  0.23241100  0.46709200  0.26012900  1
  O  O31  1  0.07620300  0.25709700  0.68741400  1
  O  O32  1  0.66619800  0.51082600  0.05624500  1
  O  O33  1  0.23527100  0.13523700  0.88416500  1
  O  O34  1  0.48424900  0.31747100  0.46810700  1
  O  O35  1  0.43505800  0.46001600  0.13463700  1
  O  O36  1  0.22515000  0.48771600  0.01683800  1
  O  O37  1  0.54076000  0.00163200  0.94740100  1
  O  O38  1  0.99297600  0.21877700  0.42537800  1
  O  O39  1  0.26722600  0.13750000  0.52135800  1
  O  O40  1  0.92379700  0.25709700  0.18741400  1
  O  O41  1  0.45919900  0.02938600  0.67868000  1
  O  O42  1  0.76472900  0.13523700  0.38416500  1
  O  O43  1  0.45924000  0.00163200  0.44740100  1
  O  O44  1  0.73277400  0.13750000  0.02135800  1
  O  O45  1  0.54080100  0.02938600  0.17868000  1
