# generated using pymatgen
data_MnP2O7
_symmetry_space_group_name_H-M   'P 1'
_cell_length_a   6.20509751
_cell_length_b   6.20509751
_cell_length_c   13.15520930
_cell_angle_alpha   74.92676874
_cell_angle_beta   74.92676874
_cell_angle_gamma   80.66251951
_symmetry_Int_Tables_number   1
_chemical_formula_structural   MnP2O7
_chemical_formula_sum   'Mn4 P8 O28'
_cell_volume   469.82517152
_cell_formula_units_Z   4
loop_
 _symmetry_equiv_pos_site_id
 _symmetry_equiv_pos_as_xyz
  1  'x, y, z'
loop_
 _atom_site_type_symbol
 _atom_site_label
 _atom_site_symmetry_multiplicity
 _atom_site_fract_x
 _atom_site_fract_y
 _atom_site_fract_z
 _atom_site_occupancy
  Mn  Mn0  1  0.59001000  0.12136900  0.14278800  1
  Mn  Mn1  1  0.12136900  0.59001000  0.64278800  1
  Mn  Mn2  1  0.87863100  0.40999000  0.35721200  1
  Mn  Mn3  1  0.40999000  0.87863100  0.85721200  1
  P  P4  1  0.58606900  0.66605700  0.06995500  1
  P  P5  1  0.33394300  0.41393100  0.43004500  1
  P  P6  1  0.25029600  0.08257600  0.63629100  1
  P  P7  1  0.91742400  0.74970400  0.86370900  1
  P  P8  1  0.08257600  0.25029600  0.13629100  1
  P  P9  1  0.74970400  0.91742400  0.36370900  1
  P  P10  1  0.66605700  0.58606900  0.56995500  1
  P  P11  1  0.41393100  0.33394300  0.93004500  1
  O  O12  1  0.64542400  0.80931600  0.13542500  1
  O  O13  1  0.56126200  0.47249300  0.35468100  1
  O  O14  1  0.57381400  0.02568900  0.29776000  1
  O  O15  1  0.08737700  0.88251400  0.88148700  1
  O  O16  1  0.39310000  0.19473900  0.51860800  1
  O  O17  1  0.52750700  0.43873800  0.14531900  1
  O  O18  1  0.11748600  0.91262300  0.61851300  1
  O  O19  1  0.21181200  0.59854200  0.49007600  1
  O  O20  1  0.02568900  0.57381400  0.79776000  1
  O  O21  1  0.40145800  0.78818800  0.00992400  1
  O  O22  1  0.08733700  0.27395100  0.67634100  1
  O  O23  1  0.80526100  0.60690000  0.98139200  1
  O  O24  1  0.19068400  0.35457600  0.36457500  1
  O  O25  1  0.27395100  0.08733700  0.17634100  1
  O  O26  1  0.72604900  0.91266300  0.82365900  1
  O  O27  1  0.80931600  0.64542400  0.63542500  1
  O  O28  1  0.19473900  0.39310000  0.01860800  1
  O  O29  1  0.91266300  0.72604900  0.32365900  1
  O  O30  1  0.59854200  0.21181200  0.99007600  1
  O  O31  1  0.97431100  0.42618600  0.20224000  1
  O  O32  1  0.78818800  0.40145800  0.50992400  1
  O  O33  1  0.88251400  0.08737700  0.38148700  1
  O  O34  1  0.47249300  0.56126200  0.85468100  1
  O  O35  1  0.60690000  0.80526100  0.48139200  1
  O  O36  1  0.91262300  0.11748600  0.11851300  1
  O  O37  1  0.42618600  0.97431100  0.70224000  1
  O  O38  1  0.43873800  0.52750700  0.64531900  1
  O  O39  1  0.35457600  0.19068400  0.86457500  1
