# generated using pymatgen
data_MnPO4
_symmetry_space_group_name_H-M   'P 1'
_cell_length_a   4.72858699
_cell_length_b   4.72858125
_cell_length_c   6.57144900
_cell_angle_alpha   89.99848461
_cell_angle_beta   90.00121093
_cell_angle_gamma   68.34928989
_symmetry_Int_Tables_number   1
_chemical_formula_structural   MnPO4
_chemical_formula_sum   'Mn2 P2 O8'
_cell_volume   136.56819108
_cell_formula_units_Z   2
loop_
 _symmetry_equiv_pos_site_id
 _symmetry_equiv_pos_as_xyz
  1  'x, y, z'
loop_
 _atom_site_type_symbol
 _atom_site_label
 _atom_site_symmetry_multiplicity
 _atom_site_fract_x
 _atom_site_fract_y
 _atom_site_fract_z
 _atom_site_occupancy
  Mn  Mn0  1  0.00051500  0.99953400  0.00014700  1
  Mn  Mn1  1  0.99968500  0.00051400  0.49988400  1
  P  P2  1  0.65459900  0.65456200  0.74999900  1
  P  P3  1  0.34540900  0.34537400  0.24999400  1
  O  O4  1  0.77961100  0.29799200  0.75000500  1
  O  O5  1  0.23744000  0.23750100  0.44561600  1
  O  O6  1  0.76253400  0.76259700  0.94559600  1
  O  O7  1  0.29800300  0.77962500  0.75000300  1
  O  O8  1  0.22022100  0.70197900  0.24999100  1
  O  O9  1  0.76251400  0.76256800  0.55438700  1
  O  O10  1  0.23746900  0.23753500  0.05436200  1
  O  O11  1  0.70200100  0.22021900  0.25001500  1
