# generated using pymatgen
data_Mo2P3O13
_symmetry_space_group_name_H-M   'P 1'
_cell_length_a   22.68688200
_cell_length_b   6.46686700
_cell_length_c   8.76865493
_cell_angle_alpha   53.40033523
_cell_angle_beta   90.00000000
_cell_angle_gamma   90.00000000
_symmetry_Int_Tables_number   1
_chemical_formula_structural   Mo2P3O13
_chemical_formula_sum   'Mo8 P12 O52'
_cell_volume   1032.80997928
_cell_formula_units_Z   4
loop_
 _symmetry_equiv_pos_site_id
 _symmetry_equiv_pos_as_xyz
  1  'x, y, z'
loop_
 _atom_site_type_symbol
 _atom_site_label
 _atom_site_symmetry_multiplicity
 _atom_site_fract_x
 _atom_site_fract_y
 _atom_site_fract_z
 _atom_site_occupancy
  Mo  Mo0  1  0.70630700  0.25925700  0.45474100  1
  Mo  Mo1  1  0.43924900  0.45253600  0.27411300  1
  Mo  Mo2  1  0.93924900  0.54746400  0.22588700  1
  Mo  Mo3  1  0.20630700  0.74074300  0.04525900  1
  Mo  Mo4  1  0.79369300  0.25925700  0.95474100  1
  Mo  Mo5  1  0.06075100  0.45253600  0.77411300  1
  Mo  Mo6  1  0.56075100  0.54746400  0.72588700  1
  Mo  Mo7  1  0.29369300  0.74074300  0.54525900  1
  P  P8  1  0.40204600  0.01875200  0.20631000  1
  P  P9  1  0.91581400  0.47276200  0.64415200  1
  P  P10  1  0.90204600  0.98124800  0.29369000  1
  P  P11  1  0.08418600  0.52723800  0.35584800  1
  P  P12  1  0.59795400  0.98124800  0.79369000  1
  P  P13  1  0.09795400  0.01875200  0.70631000  1
  P  P14  1  0.79744500  0.64160400  0.08714700  1
  P  P15  1  0.29744500  0.35839600  0.41285300  1
  P  P16  1  0.41581400  0.52723800  0.85584800  1
  P  P17  1  0.70255500  0.64160400  0.58714700  1
  P  P18  1  0.20255500  0.35839600  0.91285300  1
  P  P19  1  0.58418600  0.47276200  0.14415200  1
  O  O20  1  0.55831400  0.87707300  0.71427200  1
  O  O21  1  0.80800300  0.57224800  0.94721300  1
  O  O22  1  0.06686400  0.81235100  0.70664500  1
  O  O23  1  0.62756400  0.32352100  0.30976700  1
  O  O24  1  0.42329200  0.62742100  0.97289800  1
  O  O25  1  0.11533100  0.24320100  0.49224300  1
  O  O26  1  0.73896200  0.50118700  0.19581400  1
  O  O27  1  0.34708200  0.44750100  0.27032300  1
  O  O28  1  0.19199700  0.42775200  0.05278700  1
  O  O29  1  0.93313600  0.18764900  0.29335500  1
  O  O30  1  0.37243600  0.67647900  0.69023300  1
  O  O31  1  0.57670800  0.37257900  0.02710200  1
  O  O32  1  0.88466900  0.75679900  0.50775700  1
  O  O33  1  0.44168600  0.12292700  0.28572800  1
  O  O34  1  0.26103800  0.49881300  0.80418600  1
  O  O35  1  0.65291800  0.55249900  0.72967700  1
  O  O36  1  0.47354300  0.48249100  0.78984600  1
  O  O37  1  0.71092800  0.93685400  0.46820600  1
  O  O38  1  0.05631700  0.28066000  0.01399900  1
  O  O39  1  0.97354300  0.51750900  0.71015400  1
  O  O40  1  0.15291800  0.44750100  0.77032300  1
  O  O41  1  0.76103800  0.50118700  0.69581400  1
  O  O42  1  0.38466900  0.24320100  0.99224300  1
  O  O43  1  0.72679400  0.19413100  0.06141800  1
  O  O44  1  0.84079400  0.07027500  0.19170700  1
  O  O45  1  0.34079400  0.92972500  0.30829300  1
  O  O46  1  0.22679400  0.80586900  0.43858200  1
  O  O47  1  0.87243600  0.32352100  0.80976700  1
  O  O48  1  0.55631700  0.71934000  0.48600100  1
  O  O49  1  0.21092800  0.06314600  0.03179400  1
  O  O50  1  0.30800300  0.42775200  0.55278700  1
  O  O51  1  0.94168600  0.87707300  0.21427200  1
  O  O52  1  0.56686400  0.18764900  0.79335500  1
  O  O53  1  0.07670800  0.62742100  0.47289800  1
  O  O54  1  0.92329200  0.37257900  0.52710200  1
  O  O55  1  0.43313600  0.81235100  0.20664500  1
  O  O56  1  0.05831400  0.12292700  0.78572800  1
  O  O57  1  0.69199700  0.57224800  0.44721300  1
  O  O58  1  0.78907200  0.93685400  0.96820600  1
  O  O59  1  0.44368300  0.28066000  0.51399900  1
  O  O60  1  0.12756400  0.67647900  0.19023300  1
  O  O61  1  0.77320600  0.19413100  0.56141800  1
  O  O62  1  0.65920600  0.07027500  0.69170700  1
  O  O63  1  0.15920600  0.92972500  0.80829300  1
  O  O64  1  0.27320600  0.80586900  0.93858200  1
  O  O65  1  0.61533100  0.75679900  0.00775700  1
  O  O66  1  0.52645700  0.51750900  0.21015400  1
  O  O67  1  0.84708200  0.55249900  0.22967700  1
  O  O68  1  0.02645700  0.48249100  0.28984600  1
  O  O69  1  0.94368300  0.71934000  0.98600100  1
  O  O70  1  0.28907200  0.06314600  0.53179400  1
  O  O71  1  0.23896200  0.49881300  0.30418600  1
