# generated using pymatgen
data_Sn(PO3)3
_symmetry_space_group_name_H-M   'P 1'
_cell_length_a   6.64490300
_cell_length_b   7.07458736
_cell_length_c   7.84682469
_cell_angle_alpha   83.52090443
_cell_angle_beta   80.44338684
_cell_angle_gamma   82.81946805
_symmetry_Int_Tables_number   1
_chemical_formula_structural   Sn(PO3)3
_chemical_formula_sum   'Sn2 P6 O18'
_cell_volume   359.30443358
_cell_formula_units_Z   2
loop_
 _symmetry_equiv_pos_site_id
 _symmetry_equiv_pos_as_xyz
  1  'x, y, z'
loop_
 _atom_site_type_symbol
 _atom_site_label
 _atom_site_symmetry_multiplicity
 _atom_site_fract_x
 _atom_site_fract_y
 _atom_site_fract_z
 _atom_site_occupancy
  Sn  Sn0  1  0.00542800  0.21717600  0.15497800  1
  Sn  Sn1  1  0.99457200  0.78282400  0.84502200  1
  P  P2  1  0.35700800  0.37614100  0.78632400  1
  P  P3  1  0.17639900  0.16269200  0.55132400  1
  P  P4  1  0.82360100  0.83730800  0.44867600  1
  P  P5  1  0.17441500  0.69312900  0.20984600  1
  P  P6  1  0.82558500  0.30687100  0.79015400  1
  P  P7  1  0.64299200  0.62385900  0.21367600  1
  O  O8  1  0.39744900  0.65457000  0.25650900  1
  O  O9  1  0.70215700  0.41153100  0.21156100  1
  O  O10  1  0.79527900  0.02995000  0.34733000  1
  O  O11  1  0.20472100  0.97005000  0.65267000  1
  O  O12  1  0.29784300  0.58846900  0.78843900  1
  O  O13  1  0.89854300  0.47933000  0.84351300  1
  O  O14  1  0.94363100  0.26201800  0.60087900  1
  O  O15  1  0.14423200  0.87067700  0.08102300  1
  O  O16  1  0.05636900  0.73798200  0.39912100  1
  O  O17  1  0.71523900  0.76314700  0.06352600  1
  O  O18  1  0.21322500  0.16737300  0.35620900  1
  O  O19  1  0.85576800  0.12932300  0.91897700  1
  O  O20  1  0.31205500  0.31248300  0.60471900  1
  O  O21  1  0.28476100  0.23685300  0.93647400  1
  O  O22  1  0.10145700  0.52067000  0.15648700  1
  O  O23  1  0.60255100  0.34543000  0.74349100  1
  O  O24  1  0.68794500  0.68751700  0.39528100  1
  O  O25  1  0.78677500  0.83262700  0.64379100  1
