# generated using pymatgen
data_MoP2O7
_symmetry_space_group_name_H-M   'P 1'
_cell_length_a   6.51685458
_cell_length_b   6.51685458
_cell_length_c   13.54037319
_cell_angle_alpha   73.84529129
_cell_angle_beta   73.84529129
_cell_angle_gamma   79.77238415
_symmetry_Int_Tables_number   1
_chemical_formula_structural   MoP2O7
_chemical_formula_sum   'Mo4 P8 O28'
_cell_volume   527.40008976
_cell_formula_units_Z   4
loop_
 _symmetry_equiv_pos_site_id
 _symmetry_equiv_pos_as_xyz
  1  'x, y, z'
loop_
 _atom_site_type_symbol
 _atom_site_label
 _atom_site_symmetry_multiplicity
 _atom_site_fract_x
 _atom_site_fract_y
 _atom_site_fract_z
 _atom_site_occupancy
  Mo  Mo0  1  0.40654600  0.87942200  0.35575400  1
  Mo  Mo1  1  0.87942200  0.40654600  0.85575400  1
  Mo  Mo2  1  0.12057800  0.59345400  0.14424600  1
  Mo  Mo3  1  0.59345400  0.12057800  0.64424600  1
  P  P4  1  0.91162400  0.75307300  0.36644200  1
  P  P5  1  0.08837600  0.24692700  0.63355800  1
  P  P6  1  0.75307300  0.91162400  0.86644200  1
  P  P7  1  0.66515300  0.59000800  0.06985200  1
  P  P8  1  0.59000800  0.66515300  0.56985200  1
  P  P9  1  0.33484700  0.40999200  0.93014800  1
  P  P10  1  0.24692700  0.08837600  0.13355800  1
  P  P11  1  0.40999200  0.33484700  0.43014800  1
  O  O12  1  0.81010100  0.64562700  0.12760100  1
  O  O13  1  0.35437300  0.18989900  0.37239900  1
  O  O14  1  0.44554200  0.53741300  0.14234200  1
  O  O15  1  0.41549300  0.98254200  0.19933000  1
  O  O16  1  0.64562700  0.81010100  0.62760100  1
  O  O17  1  0.55445800  0.46258700  0.85765800  1
  O  O18  1  0.58450700  0.01745800  0.80067000  1
  O  O19  1  0.38973400  0.19854700  0.01870000  1
  O  O20  1  0.07681500  0.86981300  0.38256800  1
  O  O21  1  0.53741300  0.44554200  0.64234200  1
  O  O22  1  0.13018700  0.92318500  0.11743200  1
  O  O23  1  0.22126500  0.58896100  0.98721700  1
  O  O24  1  0.01745800  0.58450700  0.30067000  1
  O  O25  1  0.41103900  0.77873500  0.51278300  1
  O  O26  1  0.09395800  0.26709500  0.17595000  1
  O  O27  1  0.18989900  0.35437300  0.87239900  1
  O  O28  1  0.80145300  0.61026600  0.48130000  1
  O  O29  1  0.92318500  0.13018700  0.61743200  1
  O  O30  1  0.73290500  0.90604200  0.32405000  1
  O  O31  1  0.19854700  0.38973400  0.51870000  1
  O  O32  1  0.61026600  0.80145300  0.98130000  1
  O  O33  1  0.90604200  0.73290500  0.82405000  1
  O  O34  1  0.58896100  0.22126500  0.48721700  1
  O  O35  1  0.98254200  0.41549300  0.69933000  1
  O  O36  1  0.77873500  0.41103900  0.01278300  1
  O  O37  1  0.86981300  0.07681500  0.88256800  1
  O  O38  1  0.46258700  0.55445800  0.35765800  1
  O  O39  1  0.26709500  0.09395800  0.67595000  1
