# generated using pymatgen
data_Cr2P3O10
_symmetry_space_group_name_H-M   'P 1'
_cell_length_a   8.57069500
_cell_length_b   4.72121900
_cell_length_c   9.09829148
_cell_angle_alpha   80.13725447
_cell_angle_beta   90.00000000
_cell_angle_gamma   90.00000000
_symmetry_Int_Tables_number   1
_chemical_formula_structural   Cr2P3O10
_chemical_formula_sum   'Cr4 P6 O20'
_cell_volume   362.71344379
_cell_formula_units_Z   2
loop_
 _symmetry_equiv_pos_site_id
 _symmetry_equiv_pos_as_xyz
  1  'x, y, z'
loop_
 _atom_site_type_symbol
 _atom_site_label
 _atom_site_symmetry_multiplicity
 _atom_site_fract_x
 _atom_site_fract_y
 _atom_site_fract_z
 _atom_site_occupancy
  Cr  Cr0  1  0.56672200  0.94905100  0.32410600  1
  Cr  Cr1  1  0.93327800  0.94905100  0.32410600  1
  Cr  Cr2  1  0.43327800  0.05094900  0.67589400  1
  Cr  Cr3  1  0.06672200  0.05094900  0.67589400  1
  P  P4  1  0.75000000  0.52968000  0.14372000  1
  P  P5  1  0.75000000  0.39989700  0.54091400  1
  P  P6  1  0.25000000  0.47032000  0.85628000  1
  P  P7  1  0.25000000  0.32647300  0.18266100  1
  P  P8  1  0.25000000  0.60010300  0.45908600  1
  P  P9  1  0.75000000  0.67352700  0.81733900  1
  O  O10  1  0.09956100  0.76609900  0.48207000  1
  O  O11  1  0.60049800  0.83837600  0.79708300  1
  O  O12  1  0.10049800  0.16162400  0.20291700  1
  O  O13  1  0.75000000  0.21455300  0.23396900  1
  O  O14  1  0.75000000  0.46662400  0.97390500  1
  O  O15  1  0.90043900  0.23390100  0.51793000  1
  O  O16  1  0.89950200  0.83837600  0.79708300  1
  O  O17  1  0.25000000  0.78544700  0.76603100  1
  O  O18  1  0.25000000  0.56753100  0.28807100  1
  O  O19  1  0.39950200  0.16162400  0.20291700  1
  O  O20  1  0.09993400  0.31520400  0.83129300  1
  O  O21  1  0.59956100  0.23390100  0.51793000  1
  O  O22  1  0.90006600  0.68479600  0.16870700  1
  O  O23  1  0.40006600  0.31520400  0.83129300  1
  O  O24  1  0.75000000  0.70617000  0.44447300  1
  O  O25  1  0.25000000  0.53337600  0.02609500  1
  O  O26  1  0.40043900  0.76609900  0.48207000  1
  O  O27  1  0.75000000  0.43246900  0.71192900  1
  O  O28  1  0.25000000  0.29383000  0.55552700  1
  O  O29  1  0.59993400  0.68479600  0.16870700  1
