# generated using pymatgen
data_VP2O7
_symmetry_space_group_name_H-M   'P 1'
_cell_length_a   6.29171824
_cell_length_b   6.29171824
_cell_length_c   13.38142306
_cell_angle_alpha   74.37262828
_cell_angle_beta   74.37262828
_cell_angle_gamma   79.38309639
_symmetry_Int_Tables_number   1
_chemical_formula_structural   VP2O7
_chemical_formula_sum   'V4 P8 O28'
_cell_volume   487.69970736
_cell_formula_units_Z   4
loop_
 _symmetry_equiv_pos_site_id
 _symmetry_equiv_pos_as_xyz
  1  'x, y, z'
loop_
 _atom_site_type_symbol
 _atom_site_label
 _atom_site_symmetry_multiplicity
 _atom_site_fract_x
 _atom_site_fract_y
 _atom_site_fract_z
 _atom_site_occupancy
  V  V0  1  0.59833900  0.11303300  0.64294300  1
  V  V1  1  0.11303300  0.59833900  0.14294300  1
  V  V2  1  0.40166100  0.88696700  0.35705700  1
  V  V3  1  0.88696700  0.40166100  0.85705700  1
  P  P4  1  0.58435700  0.66400900  0.56887700  1
  P  P5  1  0.75193300  0.91106800  0.86439200  1
  P  P6  1  0.24806700  0.08893200  0.13560800  1
  P  P7  1  0.66400900  0.58435700  0.06887700  1
  P  P8  1  0.33599100  0.41564300  0.93112300  1
  P  P9  1  0.08893200  0.24806700  0.63560800  1
  P  P10  1  0.41564300  0.33599100  0.43112300  1
  P  P11  1  0.91106800  0.75193300  0.36439200  1
  O  O12  1  0.60871500  0.80177200  0.98006500  1
  O  O13  1  0.80177200  0.60871500  0.48006500  1
  O  O14  1  0.21413900  0.60096700  0.98741700  1
  O  O15  1  0.12610700  0.91778900  0.11826900  1
  O  O16  1  0.02250000  0.58242700  0.29649600  1
  O  O17  1  0.41757300  0.97750000  0.20350400  1
  O  O18  1  0.78586100  0.39903300  0.01258300  1
  O  O19  1  0.46059000  0.56384800  0.35791100  1
  O  O20  1  0.43615200  0.53941000  0.14208900  1
  O  O21  1  0.19822800  0.39128500  0.51993500  1
  O  O22  1  0.60096700  0.21413900  0.48741700  1
  O  O23  1  0.39903300  0.78586100  0.51258300  1
  O  O24  1  0.72002800  0.90683100  0.32277800  1
  O  O25  1  0.35548500  0.18640300  0.37069700  1
  O  O26  1  0.64451500  0.81359700  0.62930300  1
  O  O27  1  0.90683100  0.72002800  0.82277800  1
  O  O28  1  0.27997200  0.09316900  0.67722200  1
  O  O29  1  0.81359700  0.64451500  0.12930300  1
  O  O30  1  0.91778900  0.12610700  0.61826900  1
  O  O31  1  0.58242700  0.02250000  0.79649600  1
  O  O32  1  0.39128500  0.19822800  0.01993500  1
  O  O33  1  0.87389300  0.08221100  0.88173100  1
  O  O34  1  0.53941000  0.43615200  0.64208900  1
  O  O35  1  0.09316900  0.27997200  0.17722200  1
  O  O36  1  0.97750000  0.41757300  0.70350400  1
  O  O37  1  0.18640300  0.35548500  0.87069700  1
  O  O38  1  0.56384800  0.46059000  0.85791100  1
  O  O39  1  0.08221100  0.87389300  0.38173100  1
