# generated using pymatgen
data_Mo2(PO4)3
_symmetry_space_group_name_H-M   'P 1'
_cell_length_a   8.75377212
_cell_length_b   8.95090337
_cell_length_c   8.75377204
_cell_angle_alpha   89.99595027
_cell_angle_beta   60.01116262
_cell_angle_gamma   119.28029401
_symmetry_Int_Tables_number   1
_chemical_formula_structural   Mo2(PO4)3
_chemical_formula_sum   'Mo4 P6 O24'
_cell_volume   490.27425285
_cell_formula_units_Z   2
loop_
 _symmetry_equiv_pos_site_id
 _symmetry_equiv_pos_as_xyz
  1  'x, y, z'
loop_
 _atom_site_type_symbol
 _atom_site_label
 _atom_site_symmetry_multiplicity
 _atom_site_fract_x
 _atom_site_fract_y
 _atom_site_fract_z
 _atom_site_occupancy
  Mo  Mo0  1  0.28372400  0.92539600  0.35815600  1
  Mo  Mo1  1  0.28367400  0.42539900  0.85819100  1
  Mo  Mo2  1  0.71644800  0.57460400  0.14167300  1
  Mo  Mo3  1  0.71641000  0.07460100  0.64172500  1
  P  P4  1  0.78422400  0.74995700  0.74992500  1
  P  P5  1  0.49998800  0.24992100  0.53416100  1
  P  P6  1  0.50011800  0.75004300  0.46573300  1
  P  P7  1  0.21591700  0.25007900  0.24993300  1
  P  P8  1  0.78419700  0.25000000  0.96580300  1
  P  P9  1  0.21593000  0.75000000  0.03407000  1
  O  O10  1  0.64061800  0.91962100  0.49491600  1
  O  O11  1  0.01761600  0.72860100  0.06118000  1
  O  O12  1  0.21642200  0.58062300  0.00500000  1
  O  O13  1  0.21021800  0.77139900  0.21098600  1
  O  O14  1  0.98250400  0.27139900  0.93870000  1
  O  O15  1  0.78367700  0.41936700  0.99487300  1
  O  O16  1  0.78990100  0.22860100  0.78889500  1
  O  O17  1  0.79010400  0.72900100  0.92109000  1
  O  O18  1  0.98225100  0.77118200  0.57873600  1
  O  O19  1  0.65024600  0.22900100  0.56092800  1
  O  O20  1  0.78345100  0.91916700  0.72104900  1
  O  O21  1  0.58546400  0.58037900  0.77900200  1
  O  O22  1  0.58576000  0.08063300  0.13569000  1
  O  O23  1  0.64025000  0.41908400  0.36413700  1
  O  O24  1  0.21007100  0.27099900  0.07875500  1
  O  O25  1  0.35009000  0.27119200  0.71095200  1
  O  O26  1  0.65008200  0.72881800  0.28893100  1
  O  O27  1  0.35942500  0.08029000  0.50506200  1
  O  O28  1  0.41437700  0.91937700  0.86420200  1
  O  O29  1  0.35978400  0.58083300  0.63571600  1
  O  O30  1  0.21677900  0.08091600  0.27883400  1
  O  O31  1  0.41464900  0.41971000  0.22086500  1
  O  O32  1  0.34990900  0.77099900  0.43889700  1
  O  O33  1  0.01785500  0.22880800  0.42110300  1
