# generated using pymatgen
data_Co(PO3)3
_symmetry_space_group_name_H-M   'P 1'
_cell_length_a   6.62034100
_cell_length_b   6.86429528
_cell_length_c   7.32982183
_cell_angle_alpha   101.56034716
_cell_angle_beta   93.51985348
_cell_angle_gamma   93.91255759
_symmetry_Int_Tables_number   1
_chemical_formula_structural   Co(PO3)3
_chemical_formula_sum   'Co2 P6 O18'
_cell_volume   324.61689265
_cell_formula_units_Z   2
loop_
 _symmetry_equiv_pos_site_id
 _symmetry_equiv_pos_as_xyz
  1  'x, y, z'
loop_
 _atom_site_type_symbol
 _atom_site_label
 _atom_site_symmetry_multiplicity
 _atom_site_fract_x
 _atom_site_fract_y
 _atom_site_fract_z
 _atom_site_occupancy
  Co  Co0  1  0.15728600  0.08937400  0.85884300  1
  Co  Co1  1  0.84271400  0.91062600  0.14115700  1
  P  P2  1  0.65076800  0.56697300  0.80357200  1
  P  P3  1  0.33547300  0.87676700  0.20431600  1
  P  P4  1  0.66452700  0.12323300  0.79568400  1
  P  P5  1  0.34923200  0.43302700  0.19642800  1
  P  P6  1  0.85051500  0.80440600  0.55626800  1
  P  P7  1  0.14948500  0.19559400  0.44373200  1
  O  O8  1  0.29142200  0.01147900  0.40311600  1
  O  O9  1  0.87391800  0.75693500  0.35076900  1
  O  O10  1  0.16645700  0.91088700  0.06519300  1
  O  O11  1  0.27966800  0.37691200  0.39130900  1
  O  O12  1  0.56543000  0.40660300  0.17302200  1
  O  O13  1  0.70857800  0.98852100  0.59688400  1
  O  O14  1  0.70462600  0.33784700  0.75164800  1
  O  O15  1  0.72033200  0.62308800  0.60869100  1
  O  O16  1  0.12608200  0.24306500  0.64923100  1
  O  O17  1  0.83354300  0.08911300  0.93480700  1
  O  O18  1  0.44965300  0.07156300  0.82966700  1
  O  O19  1  0.29537400  0.66215300  0.24835200  1
  O  O20  1  0.55034700  0.92843700  0.17033300  1
  O  O21  1  0.95380600  0.14673300  0.31667600  1
  O  O22  1  0.19003600  0.32425700  0.04211600  1
  O  O23  1  0.04619400  0.85326700  0.68332400  1
  O  O24  1  0.80996400  0.67574300  0.95788400  1
  O  O25  1  0.43457000  0.59339700  0.82697800  1
