# generated using pymatgen
data_Fe(PO3)4
_symmetry_space_group_name_H-M   'P 1'
_cell_length_a   8.15667619
_cell_length_b   8.15667619
_cell_length_c   7.93419317
_cell_angle_alpha   82.56137379
_cell_angle_beta   82.56137379
_cell_angle_gamma   107.77621060
_symmetry_Int_Tables_number   1
_chemical_formula_structural   Fe(PO3)4
_chemical_formula_sum   'Fe2 P8 O24'
_cell_volume   490.39227203
_cell_formula_units_Z   2
loop_
 _symmetry_equiv_pos_site_id
 _symmetry_equiv_pos_as_xyz
  1  'x, y, z'
loop_
 _atom_site_type_symbol
 _atom_site_label
 _atom_site_symmetry_multiplicity
 _atom_site_fract_x
 _atom_site_fract_y
 _atom_site_fract_z
 _atom_site_occupancy
  Fe  Fe0  1  0.86668000  0.13332000  0.75000000  1
  Fe  Fe1  1  0.13332000  0.86668000  0.25000000  1
  P  P2  1  0.57184000  0.25737100  0.61981200  1
  P  P3  1  0.74262900  0.42816000  0.88018800  1
  P  P4  1  0.04406700  0.20966000  0.32573400  1
  P  P5  1  0.25737100  0.57184000  0.11981200  1
  P  P6  1  0.42816000  0.74262900  0.38018800  1
  P  P7  1  0.95593300  0.79034000  0.67426600  1
  P  P8  1  0.79034000  0.95593300  0.17426600  1
  P  P9  1  0.20966000  0.04406700  0.82573400  1
  O  O10  1  0.66291800  0.38260600  0.06300300  1
  O  O11  1  0.86881500  0.13118500  0.25000000  1
  O  O12  1  0.13118500  0.86881500  0.75000000  1
  O  O13  1  0.11639700  0.65554800  0.18417800  1
  O  O14  1  0.00799000  0.26999900  0.49192000  1
  O  O15  1  0.15488900  0.36505700  0.17335500  1
  O  O16  1  0.34445200  0.88360300  0.31582200  1
  O  O17  1  0.07554200  0.14167100  0.83125400  1
  O  O18  1  0.14167100  0.07554200  0.33125400  1
  O  O19  1  0.39540800  0.60459200  0.25000000  1
  O  O20  1  0.33708200  0.61739400  0.93699700  1
  O  O21  1  0.38260600  0.66291800  0.56300300  1
  O  O22  1  0.26999900  0.00799000  0.99192000  1
  O  O23  1  0.63494300  0.84511100  0.32664500  1
  O  O24  1  0.36505700  0.15488900  0.67335500  1
  O  O25  1  0.99201000  0.73000100  0.50808000  1
  O  O26  1  0.61739400  0.33708200  0.43699700  1
  O  O27  1  0.73000100  0.99201000  0.00808000  1
  O  O28  1  0.60459200  0.39540800  0.75000000  1
  O  O29  1  0.85832900  0.92445800  0.66874600  1
  O  O30  1  0.92445800  0.85832900  0.16874600  1
  O  O31  1  0.65554800  0.11639700  0.68417800  1
  O  O32  1  0.84511100  0.63494300  0.82664500  1
  O  O33  1  0.88360300  0.34445200  0.81582200  1
