# generated using pymatgen
data_Ni3(PO4)4
_symmetry_space_group_name_H-M   'P 1'
_cell_length_a   7.67852406
_cell_length_b   7.80988200
_cell_length_c   10.35427944
_cell_angle_alpha   90.00000000
_cell_angle_beta   92.24053984
_cell_angle_gamma   90.00000000
_symmetry_Int_Tables_number   1
_chemical_formula_structural   Ni3(PO4)4
_chemical_formula_sum   'Ni6 P8 O32'
_cell_volume   620.45453018
_cell_formula_units_Z   2
loop_
 _symmetry_equiv_pos_site_id
 _symmetry_equiv_pos_as_xyz
  1  'x, y, z'
loop_
 _atom_site_type_symbol
 _atom_site_label
 _atom_site_symmetry_multiplicity
 _atom_site_fract_x
 _atom_site_fract_y
 _atom_site_fract_z
 _atom_site_occupancy
  Ni  Ni0  1  0.00109300  0.00220600  0.25473400  1
  Ni  Ni1  1  0.99775800  0.98658500  0.74593600  1
  Ni  Ni2  1  0.50224300  0.48658600  0.50406400  1
  Ni  Ni3  1  0.49890700  0.50220700  0.99526600  1
  Ni  Ni4  1  0.40076100  0.86516200  0.45045300  1
  Ni  Ni5  1  0.09923800  0.36516200  0.79954700  1
  P  P6  1  0.19843100  0.18624200  0.00956200  1
  P  P7  1  0.31350600  0.70588100  0.73558900  1
  P  P8  1  0.30156900  0.68624300  0.24043800  1
  P  P9  1  0.69814800  0.29263100  0.76117200  1
  P  P10  1  0.68198300  0.30622400  0.25683200  1
  P  P11  1  0.81801800  0.80622300  0.99316800  1
  P  P12  1  0.18649300  0.20588100  0.51441100  1
  P  P13  1  0.80185300  0.79263100  0.48882800  1
  O  O14  1  0.54327000  0.36789800  0.15874000  1
  O  O15  1  0.95673100  0.86789900  0.09125900  1
  O  O16  1  0.94483200  0.84459200  0.58842600  1
  O  O17  1  0.86995600  0.81838200  0.35188800  1
  O  O18  1  0.82999700  0.44392000  0.26726800  1
  O  O19  1  0.88679600  0.80172700  0.85535600  1
  O  O20  1  0.05335500  0.15309700  0.90186100  1
  O  O21  1  0.04652600  0.14718000  0.41490800  1
  O  O22  1  0.10342000  0.20089400  0.65060900  1
  O  O23  1  0.15443800  0.58349700  0.73335400  1
  O  O24  1  0.13175200  0.18630500  0.14752900  1
  O  O25  1  0.15932700  0.54958400  0.22436800  1
  O  O26  1  0.24141400  0.88443200  0.76206100  1
  O  O27  1  0.26456900  0.36427200  0.95823600  1
  O  O28  1  0.23543000  0.86427100  0.29176400  1
  O  O29  1  0.25858700  0.38443200  0.48793900  1
  O  O30  1  0.34556200  0.08349700  0.51664500  1
  O  O31  1  0.39657900  0.70089400  0.59939200  1
  O  O32  1  0.34067400  0.04958400  0.02563200  1
  O  O33  1  0.77401200  0.14167300  0.21728800  1
  O  O34  1  0.45347400  0.64718000  0.83509200  1
  O  O35  1  0.44664500  0.65309600  0.34813900  1
  O  O36  1  0.55516900  0.34459300  0.66157400  1
  O  O37  1  0.85352400  0.42117700  0.76184500  1
  O  O38  1  0.63004500  0.31838200  0.89811200  1
  O  O39  1  0.67000200  0.94392100  0.98273200  1
  O  O40  1  0.61320300  0.30172700  0.39464400  1
  O  O41  1  0.64647600  0.92117700  0.48815500  1
  O  O42  1  0.74453700  0.60788400  0.51283800  1
  O  O43  1  0.75546200  0.10788400  0.73716200  1
  O  O44  1  0.72598900  0.64167300  0.03271300  1
  O  O45  1  0.36824700  0.68630400  0.10247100  1
