data_image0
_chemical_formula_structural       Ge2Pt2U2
_chemical_formula_sum              "Ge2 Pt2 U2"
_cell_length_a       4.39253
_cell_length_b       5.62826
_cell_length_c       5.62826
_cell_angle_alpha    102.805
_cell_angle_beta     112.968
_cell_angle_gamma    67.0317

_space_group_name_H-M_alt    "P 1"
_space_group_IT_number       1

loop_
  _space_group_symop_operation_xyz
  'x, y, z'

loop_
  _atom_site_type_symbol
  _atom_site_label
  _atom_site_symmetry_multiplicity
  _atom_site_fract_x
  _atom_site_fract_y
  _atom_site_fract_z
  _atom_site_occupancy
  Ge  Ge1       1.0  0.16400  0.11500  0.44300  1.0000
  Ge  Ge2       1.0  0.16400  0.55700  0.88500  1.0000
  Pt  Pt1       1.0  0.83400  0.37800  0.04480  1.0000
  Pt  Pt2       1.0  0.83400  0.95500  0.62200  1.0000
  U   U1        1.0  0.53900  0.96100  0.03880  1.0000
  U   U2        1.0  0.47100  0.52900  0.47100  1.0000
