# generated using pymatgen
data_Co(PO3)4
_symmetry_space_group_name_H-M   'P 1'
_cell_length_a   8.38354094
_cell_length_b   8.38354094
_cell_length_c   7.66891349
_cell_angle_alpha   83.06995970
_cell_angle_beta   83.06995970
_cell_angle_gamma   109.66619186
_symmetry_Int_Tables_number   1
_chemical_formula_structural   Co(PO3)4
_chemical_formula_sum   'Co2 P8 O24'
_cell_volume   496.29756494
_cell_formula_units_Z   2
loop_
 _symmetry_equiv_pos_site_id
 _symmetry_equiv_pos_as_xyz
  1  'x, y, z'
loop_
 _atom_site_type_symbol
 _atom_site_label
 _atom_site_symmetry_multiplicity
 _atom_site_fract_x
 _atom_site_fract_y
 _atom_site_fract_z
 _atom_site_occupancy
  Co  Co0  1  0.13174300  0.86825700  0.25000000  1
  Co  Co1  1  0.86825700  0.13174300  0.75000000  1
  P  P2  1  0.56394600  0.24231400  0.62744300  1
  P  P3  1  0.79843200  0.95276700  0.16490200  1
  P  P4  1  0.20156800  0.04723300  0.83509800  1
  P  P5  1  0.04723300  0.20156800  0.33509800  1
  P  P6  1  0.43605400  0.75768600  0.37255700  1
  P  P7  1  0.95276700  0.79843200  0.66490200  1
  P  P8  1  0.75768600  0.43605400  0.87255700  1
  P  P9  1  0.24231400  0.56394600  0.12744300  1
  O  O10  1  0.66702000  0.39070700  0.06187800  1
  O  O11  1  0.33298000  0.60929300  0.93812200  1
  O  O12  1  0.12274800  0.87725200  0.75000000  1
  O  O13  1  0.60929300  0.33298000  0.43812200  1
  O  O14  1  0.00167100  0.26476400  0.50219600  1
  O  O15  1  0.07944200  0.14471800  0.84234000  1
  O  O16  1  0.89088600  0.35735800  0.81820900  1
  O  O17  1  0.26476400  0.00167100  0.00219600  1
  O  O18  1  0.39105600  0.60894400  0.25000000  1
  O  O19  1  0.84229600  0.63982900  0.81942900  1
  O  O20  1  0.60894400  0.39105600  0.75000000  1
  O  O21  1  0.87725200  0.12274800  0.25000000  1
  O  O22  1  0.73523600  0.99832900  0.99780400  1
  O  O23  1  0.99832900  0.73523600  0.49780400  1
  O  O24  1  0.14471800  0.07944200  0.34234000  1
  O  O25  1  0.92055800  0.85528200  0.15766000  1
  O  O26  1  0.10911400  0.64264200  0.18179100  1
  O  O27  1  0.85528200  0.92055800  0.65766000  1
  O  O28  1  0.35735800  0.89088600  0.31820900  1
  O  O29  1  0.36017100  0.15770400  0.68057100  1
  O  O30  1  0.64264200  0.10911400  0.68179100  1
  O  O31  1  0.15770400  0.36017100  0.18057100  1
  O  O32  1  0.63982900  0.84229600  0.31942900  1
  O  O33  1  0.39070700  0.66702000  0.56187800  1
