# generated using pymatgen
data_Li5V2P5O18
_symmetry_space_group_name_H-M   'P 1'
_cell_length_a   9.38355333
_cell_length_b   10.64637197
_cell_length_c   6.53451009
_cell_angle_alpha   93.05640841
_cell_angle_beta   91.46383626
_cell_angle_gamma   96.59760163
_symmetry_Int_Tables_number   1
_chemical_formula_structural   Li5V2P5O18
_chemical_formula_sum   'Li10 V4 P10 O36'
_cell_volume   647.22704031
_cell_formula_units_Z   2
loop_
 _symmetry_equiv_pos_site_id
 _symmetry_equiv_pos_as_xyz
  1  'x, y, z'
loop_
 _atom_site_type_symbol
 _atom_site_label
 _atom_site_symmetry_multiplicity
 _atom_site_fract_x
 _atom_site_fract_y
 _atom_site_fract_z
 _atom_site_occupancy
  Li  Li0  1  0.04317500  0.87321700  0.98088000  1
  Li  Li1  1  0.13039800  0.35949600  0.82800800  1
  Li  Li2  1  0.20936400  0.66013500  0.12061700  1
  Li  Li3  1  0.27565400  0.58821000  0.55606400  1
  Li  Li4  1  0.36649900  0.86161800  0.34264000  1
  Li  Li5  1  0.63350100  0.13838200  0.65736000  1
  Li  Li6  1  0.72434600  0.41179000  0.44393600  1
  Li  Li7  1  0.79063600  0.33986500  0.87938300  1
  Li  Li8  1  0.86960200  0.64050400  0.17199200  1
  Li  Li9  1  0.95682500  0.12678400  0.01912000  1
  V  V10  1  0.23264900  0.05083900  0.67351800  1
  V  V11  1  0.35697200  0.40336100  0.23104500  1
  V  V12  1  0.64302800  0.59663900  0.76895500  1
  V  V13  1  0.76735200  0.94916000  0.32648200  1
  P  P14  1  0.04621100  0.79938700  0.48273400  1
  P  P15  1  0.01296400  0.40159400  0.22306300  1
  P  P16  1  0.27176200  0.10076200  0.17112300  1
  P  P17  1  0.41869700  0.82471500  0.83773900  1
  P  P18  1  0.41658900  0.34865900  0.71961600  1
  P  P19  1  0.58341200  0.65134100  0.28038400  1
  P  P20  1  0.58130300  0.17528500  0.16226100  1
  P  P21  1  0.95378900  0.20061200  0.51726600  1
  P  P22  1  0.98703600  0.59840600  0.77693700  1
  P  P23  1  0.72823900  0.89923900  0.82887700  1
  O  O24  1  0.33958200  0.38628900  0.91784000  1
  O  O25  1  0.07540700  0.90459100  0.65678700  1
  O  O26  1  0.03614300  0.31968600  0.41821400  1
  O  O27  1  0.06799100  0.16855600  0.67626000  1
  O  O28  1  0.11248300  0.52482800  0.73262300  1
  O  O29  1  0.17942700  0.75445800  0.39002100  1
  O  O30  1  0.16023900  0.48295600  0.21764700  1
  O  O31  1  0.17019600  0.04487300  0.99126800  1
  O  O32  1  0.32591000  0.81398600  0.02287700  1
  O  O33  1  0.24830000  0.23652500  0.22773100  1
  O  O34  1  0.37076300  0.91567100  0.67757300  1
  O  O35  1  0.26154500  0.02033000  0.35783800  1
  O  O36  1  0.01617500  0.68771400  0.96942300  1
  O  O37  1  0.34763800  0.41402600  0.54081000  1
  O  O38  1  0.42214100  0.59645700  0.25727600  1
  O  O39  1  0.44763900  0.69607500  0.73569600  1
  O  O40  1  0.39724800  0.20225900  0.67873700  1
  O  O41  1  0.42732000  0.10164900  0.07684300  1
  O  O42  1  0.57268000  0.89835100  0.92315700  1
  O  O43  1  0.60275100  0.79774200  0.32126300  1
  O  O44  1  0.55236100  0.30392600  0.26430400  1
  O  O45  1  0.57785900  0.40354300  0.74272200  1
  O  O46  1  0.65236200  0.58597500  0.45919000  1
  O  O47  1  0.66041900  0.61371100  0.08216000  1
  O  O48  1  0.73845600  0.97967100  0.64216100  1
  O  O49  1  0.62923700  0.08432900  0.32242700  1
  O  O50  1  0.75170000  0.76347400  0.77226700  1
  O  O51  1  0.67409000  0.18601500  0.97712200  1
  O  O52  1  0.82980400  0.95512700  0.00873200  1
  O  O53  1  0.83976000  0.51704300  0.78235300  1
  O  O54  1  0.82057300  0.24554200  0.60997900  1
  O  O55  1  0.88751700  0.47517200  0.26737700  1
  O  O56  1  0.93200800  0.83144400  0.32374000  1
  O  O57  1  0.96385800  0.68031400  0.58178600  1
  O  O58  1  0.92459400  0.09540900  0.34321100  1
  O  O59  1  0.98382500  0.31228600  0.03057700  1
