# generated using pymatgen
data_FePO4
_symmetry_space_group_name_H-M   'P 1'
_cell_length_a   5.28675400
_cell_length_b   7.40388500
_cell_length_c   10.34308300
_cell_angle_alpha   90.00000000
_cell_angle_beta   90.00000000
_cell_angle_gamma   90.00000000
_symmetry_Int_Tables_number   1
_chemical_formula_structural   FePO4
_chemical_formula_sum   'Fe4 P4 O16'
_cell_volume   404.85431912
_cell_formula_units_Z   4
loop_
 _symmetry_equiv_pos_site_id
 _symmetry_equiv_pos_as_xyz
  1  'x, y, z'
loop_
 _atom_site_type_symbol
 _atom_site_label
 _atom_site_symmetry_multiplicity
 _atom_site_fract_x
 _atom_site_fract_y
 _atom_site_fract_z
 _atom_site_occupancy
  Fe  Fe0  1  0.99472900  0.97414700  0.32838800  1
  Fe  Fe1  1  0.49472900  0.47414700  0.17161200  1
  Fe  Fe2  1  0.49472900  0.02585300  0.67161200  1
  Fe  Fe3  1  0.99472900  0.52585300  0.82838800  1
  P  P4  1  0.99578000  0.79213200  0.59729300  1
  P  P5  1  0.99578000  0.70786800  0.09729300  1
  P  P6  1  0.49578000  0.29213200  0.90270700  1
  P  P7  1  0.49578000  0.20786800  0.40270700  1
  O  O8  1  0.83129500  0.55425300  0.15492300  1
  O  O9  1  0.92596400  0.60904300  0.65898300  1
  O  O10  1  0.95386400  0.71849800  0.94931400  1
  O  O11  1  0.27629000  0.83467100  0.62787200  1
  O  O12  1  0.33129500  0.05425300  0.34507700  1
  O  O13  1  0.42596400  0.39095700  0.34101700  1
  O  O14  1  0.77629000  0.16532900  0.37212800  1
  O  O15  1  0.33129500  0.44574700  0.84507700  1
  O  O16  1  0.77629000  0.33467100  0.87212800  1
  O  O17  1  0.92596400  0.89095700  0.15898300  1
  O  O18  1  0.42596400  0.10904300  0.84101700  1
  O  O19  1  0.45386400  0.21849800  0.55068600  1
  O  O20  1  0.95386400  0.78150200  0.44931400  1
  O  O21  1  0.27629000  0.66532900  0.12787200  1
  O  O22  1  0.45386400  0.28150200  0.05068600  1
  O  O23  1  0.83129500  0.94574700  0.65492300  1
