data_image0
_chemical_formula_structural       Au4Pr2
_chemical_formula_sum              "Au4 Pr2"
_cell_length_a       4.72182
_cell_length_b       5.9603
_cell_length_c       5.9603
_cell_angle_alpha    91.1401
_cell_angle_beta     113.335
_cell_angle_gamma    66.665

_space_group_name_H-M_alt    "P 1"
_space_group_IT_number       1

loop_
  _space_group_symop_operation_xyz
  'x, y, z'

loop_
  _atom_site_type_symbol
  _atom_site_label
  _atom_site_symmetry_multiplicity
  _atom_site_fract_x
  _atom_site_fract_y
  _atom_site_fract_z
  _atom_site_occupancy
  Au  Au1       1.0  0.03500  0.12800  0.19800  1.0000
  Au  Au2       1.0  0.53500  0.30200  0.37200  1.0000
  Au  Au3       1.0  0.46500  0.69800  0.62800  1.0000
  Au  Au4       1.0  0.96500  0.87200  0.80200  1.0000
  Pr  Pr1       1.0  0.75000  0.71300  0.21300  1.0000
  Pr  Pr2       1.0  0.25000  0.28700  0.78700  1.0000
