# generated using pymatgen
data_LiNi(PO3)4
_symmetry_space_group_name_H-M   'P 1'
_cell_length_a   5.11944839
_cell_length_b   10.26133184
_cell_length_c   10.26133108
_cell_angle_alpha   72.64734854
_cell_angle_beta   98.13259724
_cell_angle_gamma   98.13259925
_symmetry_Int_Tables_number   1
_chemical_formula_structural   LiNi(PO3)4
_chemical_formula_sum   'Li2 Ni2 P8 O24'
_cell_volume   506.52487865
_cell_formula_units_Z   2
loop_
 _symmetry_equiv_pos_site_id
 _symmetry_equiv_pos_as_xyz
  1  'x, y, z'
loop_
 _atom_site_type_symbol
 _atom_site_label
 _atom_site_symmetry_multiplicity
 _atom_site_fract_x
 _atom_site_fract_y
 _atom_site_fract_z
 _atom_site_occupancy
  Li  Li0  1  0.42651800  0.41380600  0.41380600  1
  Li  Li1  1  0.57348200  0.58619400  0.58619400  1
  Ni  Ni2  1  0.00000000  0.00000000  0.50000000  1
  Ni  Ni3  1  0.00000000  0.50000000  0.00000000  1
  P  P4  1  0.82023400  0.63227800  0.21069300  1
  P  P5  1  0.82023400  0.21069300  0.63227800  1
  P  P6  1  0.17976600  0.36772200  0.78930700  1
  P  P7  1  0.17976600  0.78930700  0.36772200  1
  P  P8  1  0.50847900  0.69229200  0.93681700  1
  P  P9  1  0.50847900  0.93681700  0.69229200  1
  P  P10  1  0.49152100  0.30770800  0.06318300  1
  P  P11  1  0.49152100  0.06318300  0.30770800  1
  O  O12  1  0.79322600  0.33192900  0.07308100  1
  O  O13  1  0.79322600  0.07308100  0.33192900  1
  O  O14  1  0.00000000  0.23168100  0.76831900  1
  O  O15  1  0.00000000  0.76831900  0.23168100  1
  O  O16  1  0.20677400  0.66807100  0.92691900  1
  O  O17  1  0.20677400  0.92691900  0.66807100  1
  O  O18  1  0.99026800  0.16496000  0.54693600  1
  O  O19  1  0.99026800  0.54693600  0.16496000  1
  O  O20  1  0.31910500  0.43956200  0.66640700  1
  O  O21  1  0.31910500  0.66640700  0.43956200  1
  O  O22  1  0.38148600  0.91479600  0.29152700  1
  O  O23  1  0.38148600  0.29152700  0.91479600  1
  O  O24  1  0.57125200  0.84964400  0.84964400  1
  O  O25  1  0.34221000  0.10481300  0.40221600  1
  O  O26  1  0.34221000  0.40221600  0.10481300  1
  O  O27  1  0.65779000  0.59778400  0.89518700  1
  O  O28  1  0.65779000  0.89518700  0.59778400  1
  O  O29  1  0.42874800  0.15035600  0.15035600  1
  O  O30  1  0.61851400  0.08520400  0.70847300  1
  O  O31  1  0.61851400  0.70847300  0.08520400  1
  O  O32  1  0.68089500  0.33359300  0.56043800  1
  O  O33  1  0.68089500  0.56043800  0.33359300  1
  O  O34  1  0.00973200  0.45306400  0.83504000  1
  O  O35  1  0.00973200  0.83504000  0.45306400  1
