# generated using pymatgen
data_V(PO3)4
_symmetry_space_group_name_H-M   'P 1'
_cell_length_a   8.41058200
_cell_length_b   9.19468800
_cell_length_c   12.86654300
_cell_angle_alpha   90.00000000
_cell_angle_beta   90.00000000
_cell_angle_gamma   90.00000000
_symmetry_Int_Tables_number   1
_chemical_formula_structural   V(PO3)4
_chemical_formula_sum   'V4 P16 O48'
_cell_volume   995.00421892
_cell_formula_units_Z   4
loop_
 _symmetry_equiv_pos_site_id
 _symmetry_equiv_pos_as_xyz
  1  'x, y, z'
loop_
 _atom_site_type_symbol
 _atom_site_label
 _atom_site_symmetry_multiplicity
 _atom_site_fract_x
 _atom_site_fract_y
 _atom_site_fract_z
 _atom_site_occupancy
  V  V0  1  0.35469100  0.75000000  0.00000000  1
  V  V1  1  0.64530900  0.25000000  0.00000000  1
  V  V2  1  0.14530900  0.25000000  0.50000000  1
  V  V3  1  0.85469100  0.75000000  0.50000000  1
  P  P4  1  0.18434700  0.50732900  0.14571200  1
  P  P5  1  0.81565300  0.00732900  0.14571200  1
  P  P6  1  0.46414700  0.01576100  0.14844000  1
  P  P7  1  0.53585300  0.51576100  0.14844000  1
  P  P8  1  0.03585300  0.51576100  0.35156000  1
  P  P9  1  0.96414700  0.01576100  0.35156000  1
  P  P10  1  0.31565300  0.00732900  0.35428800  1
  P  P11  1  0.68434700  0.50732900  0.35428800  1
  P  P12  1  0.31565300  0.49267100  0.64571200  1
  P  P13  1  0.68434700  0.99267100  0.64571200  1
  P  P14  1  0.03585300  0.98423900  0.64844000  1
  P  P15  1  0.96414700  0.48423900  0.64844000  1
  P  P16  1  0.46414700  0.48423900  0.85156000  1
  P  P17  1  0.53585300  0.98423900  0.85156000  1
  P  P18  1  0.18434700  0.99267100  0.85428800  1
  P  P19  1  0.81565300  0.49267100  0.85428800  1
  O  O20  1  0.20198400  0.63919700  0.07308500  1
  O  O21  1  0.79801600  0.13919700  0.07308500  1
  O  O22  1  0.47404400  0.13455000  0.06746900  1
  O  O23  1  0.52595600  0.63455000  0.06746900  1
  O  O24  1  0.09376600  0.37904800  0.11445300  1
  O  O25  1  0.90623400  0.87904800  0.11445300  1
  O  O26  1  0.36876700  0.88234800  0.11588500  1
  O  O27  1  0.63123300  0.38234800  0.11588500  1
  O  O28  1  0.36452000  0.46492200  0.18455400  1
  O  O29  1  0.63548000  0.96492200  0.18455400  1
  O  O30  1  0.11825100  0.58358200  0.25230200  1
  O  O31  1  0.88174900  0.08358200  0.25230200  1
  O  O32  1  0.38174900  0.08358200  0.24769800  1
  O  O33  1  0.61825100  0.58358200  0.24769800  1
  O  O34  1  0.13548000  0.96492200  0.31544600  1
  O  O35  1  0.86452000  0.46492200  0.31544600  1
  O  O36  1  0.13123300  0.38234800  0.38411500  1
  O  O37  1  0.86876700  0.88234800  0.38411500  1
  O  O38  1  0.40623400  0.87904800  0.38554700  1
  O  O39  1  0.59376600  0.37904800  0.38554700  1
  O  O40  1  0.02595600  0.63455000  0.43253100  1
  O  O41  1  0.97404400  0.13455000  0.43253100  1
  O  O42  1  0.29801600  0.13919700  0.42691500  1
  O  O43  1  0.70198400  0.63919700  0.42691500  1
  O  O44  1  0.29801600  0.36080300  0.57308500  1
  O  O45  1  0.70198400  0.86080300  0.57308500  1
  O  O46  1  0.02595600  0.86545000  0.56746900  1
  O  O47  1  0.97404400  0.36545000  0.56746900  1
  O  O48  1  0.40623400  0.62095200  0.61445300  1
  O  O49  1  0.59376600  0.12095200  0.61445300  1
  O  O50  1  0.13123300  0.11765200  0.61588500  1
  O  O51  1  0.86876700  0.61765200  0.61588500  1
  O  O52  1  0.13548000  0.53507800  0.68455400  1
  O  O53  1  0.86452000  0.03507800  0.68455400  1
  O  O54  1  0.38174900  0.41641800  0.75230200  1
  O  O55  1  0.61825100  0.91641800  0.75230200  1
  O  O56  1  0.11825100  0.91641800  0.74769800  1
  O  O57  1  0.88174900  0.41641800  0.74769800  1
  O  O58  1  0.36452000  0.03507800  0.81544600  1
  O  O59  1  0.63548000  0.53507800  0.81544600  1
  O  O60  1  0.36876700  0.61765200  0.88411500  1
  O  O61  1  0.63123300  0.11765200  0.88411500  1
  O  O62  1  0.09376600  0.12095200  0.88554700  1
  O  O63  1  0.90623400  0.62095200  0.88554700  1
  O  O64  1  0.47404400  0.36545000  0.93253100  1
  O  O65  1  0.52595600  0.86545000  0.93253100  1
  O  O66  1  0.20198400  0.86080300  0.92691500  1
  O  O67  1  0.79801600  0.36080300  0.92691500  1
