# generated using pymatgen
data_Fe3(P2O7)2
_symmetry_space_group_name_H-M   'P 1'
_cell_length_a   5.61278200
_cell_length_b   6.88985469
_cell_length_c   7.46598515
_cell_angle_alpha   76.95127340
_cell_angle_beta   77.82088270
_cell_angle_gamma   70.38146632
_symmetry_Int_Tables_number   1
_chemical_formula_structural   Fe3(P2O7)2
_chemical_formula_sum   'Fe3 P4 O14'
_cell_volume   262.04637890
_cell_formula_units_Z   1
loop_
 _symmetry_equiv_pos_site_id
 _symmetry_equiv_pos_as_xyz
  1  'x, y, z'
loop_
 _atom_site_type_symbol
 _atom_site_label
 _atom_site_symmetry_multiplicity
 _atom_site_fract_x
 _atom_site_fract_y
 _atom_site_fract_z
 _atom_site_occupancy
  Fe  Fe0  1  0.76953100  0.51023600  0.66944900  1
  Fe  Fe1  1  0.23046900  0.48976400  0.33055100  1
  Fe  Fe2  1  0.00000000  0.00000000  0.00000000  1
  P  P3  1  0.20750000  0.71198700  0.66600200  1
  P  P4  1  0.38109200  0.29654500  0.93935000  1
  P  P5  1  0.61890800  0.70345500  0.06065000  1
  P  P6  1  0.79250000  0.28801300  0.33399800  1
  O  O7  1  0.46923300  0.69774300  0.55162900  1
  O  O8  1  0.74700400  0.84527300  0.10892600  1
  O  O9  1  0.95158700  0.34501800  0.45299700  1
  O  O10  1  0.25299600  0.15472700  0.89107400  1
  O  O11  1  0.04841300  0.65498200  0.54700300  1
  O  O12  1  0.33322800  0.30603700  0.14410200  1
  O  O13  1  0.07022700  0.90669000  0.75194600  1
  O  O14  1  0.23514800  0.52823700  0.84481300  1
  O  O15  1  0.92977300  0.09331000  0.24805400  1
  O  O16  1  0.53076700  0.30225700  0.44837100  1
  O  O17  1  0.66677200  0.69396300  0.85589800  1
  O  O18  1  0.67106200  0.25686700  0.85876200  1
  O  O19  1  0.76485200  0.47176300  0.15518700  1
  O  O20  1  0.32893800  0.74313300  0.14123800  1
