# generated using pymatgen
data_Cr(PO3)3
_symmetry_space_group_name_H-M   'P 1'
_cell_length_a   6.59421908
_cell_length_b   6.59421908
_cell_length_c   9.62378765
_cell_angle_alpha   89.80198608
_cell_angle_beta   89.80198608
_cell_angle_gamma   60.02589593
_symmetry_Int_Tables_number   1
_chemical_formula_structural   Cr(PO3)3
_chemical_formula_sum   'Cr2 P6 O18'
_cell_volume   362.50434407
_cell_formula_units_Z   2
loop_
 _symmetry_equiv_pos_site_id
 _symmetry_equiv_pos_as_xyz
  1  'x, y, z'
loop_
 _atom_site_type_symbol
 _atom_site_label
 _atom_site_symmetry_multiplicity
 _atom_site_fract_x
 _atom_site_fract_y
 _atom_site_fract_z
 _atom_site_occupancy
  Cr  Cr0  1  0.33570000  0.33270800  0.49994200  1
  Cr  Cr1  1  0.33270800  0.33570000  0.99994200  1
  P  P2  1  0.06636200  0.71330200  0.74987800  1
  P  P3  1  0.22318000  0.06585300  0.75199600  1
  P  P4  1  0.71388900  0.22248200  0.74790900  1
  P  P5  1  0.71330200  0.06636200  0.24987800  1
  P  P6  1  0.06585300  0.22318000  0.25199600  1
  P  P7  1  0.22248200  0.71388900  0.24790900  1
  O  O8  1  0.81413800  0.94385200  0.74833100  1
  O  O9  1  0.24490400  0.81345600  0.75076300  1
  O  O10  1  0.59040200  0.32652400  0.61324800  1
  O  O11  1  0.58236500  0.32753800  0.88023900  1
  O  O12  1  0.58638600  0.08626600  0.38350700  1
  O  O13  1  0.32753800  0.58236500  0.38023900  1
  O  O14  1  0.32652400  0.59040200  0.11324800  1
  O  O15  1  0.58517400  0.09218300  0.11651400  1
  O  O16  1  0.08626600  0.58638600  0.88350700  1
  O  O17  1  0.09218300  0.58517400  0.61651400  1
  O  O18  1  0.32452000  0.08838700  0.88664800  1
  O  O19  1  0.81345600  0.24490400  0.25076300  1
  O  O20  1  0.94385200  0.81413800  0.24833100  1
  O  O21  1  0.33088400  0.08936900  0.61961500  1
  O  O22  1  0.08838700  0.32452000  0.38664800  1
  O  O23  1  0.08936900  0.33088400  0.11961500  1
  O  O24  1  0.94461600  0.24409900  0.75049200  1
  O  O25  1  0.24409900  0.94461600  0.25049200  1
