# generated using pymatgen
data_Co(PO3)3
_symmetry_space_group_name_H-M   'P 1'
_cell_length_a   8.24664500
_cell_length_b   8.39420400
_cell_length_c   8.39984100
_cell_angle_alpha   90.00000000
_cell_angle_beta   90.00000000
_cell_angle_gamma   90.00000000
_symmetry_Int_Tables_number   1
_chemical_formula_structural   Co(PO3)3
_chemical_formula_sum   'Co4 P12 O36'
_cell_volume   581.47076512
_cell_formula_units_Z   4
loop_
 _symmetry_equiv_pos_site_id
 _symmetry_equiv_pos_as_xyz
  1  'x, y, z'
loop_
 _atom_site_type_symbol
 _atom_site_label
 _atom_site_symmetry_multiplicity
 _atom_site_fract_x
 _atom_site_fract_y
 _atom_site_fract_z
 _atom_site_occupancy
  Co  Co0  1  0.13351900  0.85510700  0.14806400  1
  Co  Co1  1  0.86648100  0.35510700  0.35193600  1
  Co  Co2  1  0.63351900  0.64489300  0.85193600  1
  Co  Co3  1  0.36648100  0.14489300  0.64806400  1
  P  P4  1  0.32651900  0.51286100  0.69252200  1
  P  P5  1  0.96695800  0.81931500  0.81677200  1
  P  P6  1  0.82651900  0.98713900  0.30747800  1
  P  P7  1  0.17348100  0.48713900  0.19252200  1
  P  P8  1  0.21087500  0.81262300  0.54939700  1
  P  P9  1  0.67348100  0.01286100  0.80747800  1
  P  P10  1  0.46695800  0.68068500  0.18322800  1
  P  P11  1  0.53304200  0.18068500  0.31677200  1
  P  P12  1  0.03304200  0.31931500  0.68322800  1
  P  P13  1  0.71087500  0.68737700  0.45060300  1
  P  P14  1  0.28912500  0.18737700  0.04939700  1
  P  P15  1  0.78912500  0.31262300  0.95060300  1
  O  O16  1  0.08814200  0.63053000  0.12594800  1
  O  O17  1  0.15993800  0.84733200  0.38259400  1
  O  O18  1  0.35698800  0.53216600  0.23995300  1
  O  O19  1  0.32180100  0.92048600  0.64257100  1
  O  O20  1  0.63927500  0.31538300  0.37392700  1
  O  O21  1  0.14301200  0.46783400  0.73995300  1
  O  O22  1  0.39475300  0.13069500  0.42343700  1
  O  O23  1  0.85698800  0.96783400  0.76004700  1
  O  O24  1  0.95301100  0.27686500  0.85093500  1
  O  O25  1  0.60524700  0.63069500  0.07656300  1
  O  O26  1  0.20639300  0.36196500  0.05131000  1
  O  O27  1  0.45301100  0.22313500  0.14906500  1
  O  O28  1  0.82180100  0.57951400  0.35742900  1
  O  O29  1  0.59801000  0.09827200  0.66729100  1
  O  O30  1  0.29360700  0.63803500  0.55131000  1
  O  O31  1  0.36072500  0.81538300  0.12607300  1
  O  O32  1  0.90199000  0.90172800  0.16729100  1
  O  O33  1  0.09801000  0.40172800  0.33270900  1
  O  O34  1  0.86072500  0.68461700  0.87392700  1
  O  O35  1  0.89475300  0.36930500  0.57656300  1
  O  O36  1  0.65993800  0.65266800  0.61740600  1
  O  O37  1  0.17819900  0.07951400  0.14257100  1
  O  O38  1  0.34006200  0.15266800  0.88259400  1
  O  O39  1  0.70639300  0.13803500  0.94869000  1
  O  O40  1  0.54698900  0.72313500  0.35093500  1
  O  O41  1  0.84006200  0.34733200  0.11740600  1
  O  O42  1  0.04698900  0.77686500  0.64906500  1
  O  O43  1  0.91185800  0.13053000  0.37405200  1
  O  O44  1  0.40199000  0.59827200  0.83270900  1
  O  O45  1  0.79360700  0.86196500  0.44869000  1
  O  O46  1  0.13927500  0.18461700  0.62607300  1
  O  O47  1  0.58814200  0.86947000  0.87405200  1
  O  O48  1  0.64301200  0.03216600  0.26004700  1
  O  O49  1  0.10524700  0.86930500  0.92343700  1
  O  O50  1  0.67819900  0.42048600  0.85742900  1
  O  O51  1  0.41185800  0.36947000  0.62594800  1
