# generated using pymatgen
data_CrP2O7
_symmetry_space_group_name_H-M   'P 1'
_cell_length_a   4.80097041
_cell_length_b   6.97272791
_cell_length_c   8.02449804
_cell_angle_alpha   89.99798858
_cell_angle_beta   90.01125546
_cell_angle_gamma   106.27516362
_symmetry_Int_Tables_number   1
_chemical_formula_structural   CrP2O7
_chemical_formula_sum   'Cr2 P4 O14'
_cell_volume   257.86224534
_cell_formula_units_Z   2
loop_
 _symmetry_equiv_pos_site_id
 _symmetry_equiv_pos_as_xyz
  1  'x, y, z'
loop_
 _atom_site_type_symbol
 _atom_site_label
 _atom_site_symmetry_multiplicity
 _atom_site_fract_x
 _atom_site_fract_y
 _atom_site_fract_z
 _atom_site_occupancy
  Cr  Cr0  1  0.21972300  0.72751600  0.50519500  1
  Cr  Cr1  1  0.78023400  0.27248800  0.00516800  1
  P  P2  1  0.61300000  0.49190200  0.68793300  1
  P  P3  1  0.38701500  0.50806800  0.18786700  1
  P  P4  1  0.23381200  0.10384900  0.77114500  1
  P  P5  1  0.76617100  0.89622500  0.27110200  1
  O  O6  1  0.27947500  0.51192300  0.36561200  1
  O  O7  1  0.72060000  0.48803000  0.86561300  1
  O  O8  1  0.13980400  0.91349200  0.67175200  1
  O  O9  1  0.86013000  0.08646600  0.17174100  1
  O  O10  1  0.97235000  0.17155100  0.82634400  1
  O  O11  1  0.02772300  0.82847900  0.32632200  1
  O  O12  1  0.43018500  0.09329400  0.92290500  1
  O  O13  1  0.56985500  0.90669500  0.42292100  1
  O  O14  1  0.41905600  0.26976400  0.64214900  1
  O  O15  1  0.58088900  0.73023700  0.14213600  1
  O  O16  1  0.58200100  0.36635500  0.17869600  1
  O  O17  1  0.41804200  0.63368200  0.67878000  1
  O  O18  1  0.14505200  0.46082100  0.05791100  1
  O  O19  1  0.85488700  0.53916200  0.55790700  1
