# generated using pymatgen
data_CsCrF4
_symmetry_space_group_name_H-M   'P 1'
_cell_length_a   9.84030825
_cell_length_b   9.84030825
_cell_length_c   3.96418800
_cell_angle_alpha   90.00000000
_cell_angle_beta   90.00000000
_cell_angle_gamma   120.00000169
_symmetry_Int_Tables_number   1
_chemical_formula_structural   CsCrF4
_chemical_formula_sum   'Cs3 Cr3 F12'
_cell_volume   332.43157946
_cell_formula_units_Z   3
loop_
 _symmetry_equiv_pos_site_id
 _symmetry_equiv_pos_as_xyz
  1  'x, y, z'
loop_
 _atom_site_type_symbol
 _atom_site_label
 _atom_site_symmetry_multiplicity
 _atom_site_fract_x
 _atom_site_fract_y
 _atom_site_fract_z
 _atom_site_occupancy
  Cs  Cs0  1  0.00000000  0.57161700  0.50000000  1
  Cs  Cs1  1  0.42838300  0.42838300  0.50000000  1
  Cs  Cs2  1  0.57161700  0.00000000  0.50000000  1
  Cr  Cr3  1  0.00000000  0.22399300  0.00000000  1
  Cr  Cr4  1  0.77600700  0.77600700  0.00000000  1
  Cr  Cr5  1  0.22399300  0.00000000  0.00000000  1
  F  F6  1  0.15985300  0.43764100  0.00000000  1
  F  F7  1  0.56235900  0.72221200  0.00000000  1
  F  F8  1  0.27778800  0.84014700  0.00000000  1
  F  F9  1  0.84014700  0.27778800  0.00000000  1
  F  F10  1  0.72221200  0.56235900  0.00000000  1
  F  F11  1  0.43764100  0.15985300  0.00000000  1
  F  F12  1  0.83108700  0.00000000  0.00000000  1
  F  F13  1  0.16891300  0.16891300  0.00000000  1
  F  F14  1  0.00000000  0.83108700  0.00000000  1
  F  F15  1  0.21866000  0.00000000  0.50000000  1
  F  F16  1  0.78134000  0.78134000  0.50000000  1
  F  F17  1  0.00000000  0.21866000  0.50000000  1
