data_image0
_chemical_formula_structural       Ag4Mg4O4Se4
_chemical_formula_sum              "Ag4 Mg4 O4 Se4"
_cell_length_a       6.16057
_cell_length_b       3.29877
_cell_length_c       13.3627
_cell_angle_alpha    90
_cell_angle_beta     90
_cell_angle_gamma    90

_space_group_name_H-M_alt    "P 1"
_space_group_IT_number       1

loop_
  _space_group_symop_operation_xyz
  'x, y, z'

loop_
  _atom_site_type_symbol
  _atom_site_label
  _atom_site_symmetry_multiplicity
  _atom_site_fract_x
  _atom_site_fract_y
  _atom_site_fract_z
  _atom_site_occupancy
  Ag  Ag1       1.0  0.55500  0.25000  0.24400  1.0000
  Ag  Ag2       1.0  0.05510  0.25000  0.25600  1.0000
  Ag  Ag3       1.0  0.94500  0.75000  0.74400  1.0000
  Ag  Ag4       1.0  0.44500  0.75000  0.75600  1.0000
  Mg  Mg1       1.0  0.23900  0.75000  0.06610  1.0000
  Mg  Mg2       1.0  0.73900  0.75000  0.43400  1.0000
  Mg  Mg3       1.0  0.26100  0.25000  0.56600  1.0000
  Mg  Mg4       1.0  0.76100  0.25000  0.93400  1.0000
  O   O1        1.0  0.29600  0.25000  0.13600  1.0000
  O   O2        1.0  0.79600  0.25000  0.36400  1.0000
  O   O3        1.0  0.20400  0.75000  0.63600  1.0000
  O   O4        1.0  0.70400  0.75000  0.86400  1.0000
  Se  Se1       1.0  0.79500  0.75000  0.10300  1.0000
  Se  Se2       1.0  0.29500  0.75000  0.39700  1.0000
  Se  Se3       1.0  0.70500  0.25000  0.60300  1.0000
  Se  Se4       1.0  0.20500  0.25000  0.89700  1.0000
