# generated using pymatgen
data_Sb2XeF14
_symmetry_space_group_name_H-M   'P 1'
_cell_length_a   8.22895724
_cell_length_b   8.49516246
_cell_length_c   9.81400911
_cell_angle_alpha   67.39011394
_cell_angle_beta   89.52801842
_cell_angle_gamma   67.84012239
_symmetry_Int_Tables_number   1
_chemical_formula_structural   Sb2XeF14
_chemical_formula_sum   'Sb4 Xe2 F28'
_cell_volume   578.99750574
_cell_formula_units_Z   2
loop_
 _symmetry_equiv_pos_site_id
 _symmetry_equiv_pos_as_xyz
  1  'x, y, z'
loop_
 _atom_site_type_symbol
 _atom_site_label
 _atom_site_symmetry_multiplicity
 _atom_site_fract_x
 _atom_site_fract_y
 _atom_site_fract_z
 _atom_site_occupancy
  Sb  Sb0  1  0.79421600  0.13071900  0.22926400  1
  Sb  Sb1  1  0.20578400  0.86928100  0.77073600  1
  Sb  Sb2  1  0.49102400  0.83479300  0.29156900  1
  Sb  Sb3  1  0.50897600  0.16520700  0.70843100  1
  Xe  Xe4  1  0.80766500  0.55328000  0.74114100  1
  Xe  Xe5  1  0.19233500  0.44672000  0.25885900  1
  F  F6  1  0.87782500  0.94789800  0.42839300  1
  F  F7  1  0.12217500  0.05210200  0.57160700  1
  F  F8  1  0.58947500  0.26857300  0.29434700  1
  F  F9  1  0.41052500  0.73142700  0.70565300  1
  F  F10  1  0.65474900  0.65360000  0.23568500  1
  F  F11  1  0.34525100  0.34640000  0.76431500  1
  F  F12  1  0.35118600  0.02280100  0.78315100  1
  F  F13  1  0.64881400  0.97719900  0.21684900  1
  F  F14  1  0.34897700  0.28954600  0.51422300  1
  F  F15  1  0.65102300  0.71045400  0.48577700  1
  F  F16  1  0.63598600  0.97925400  0.63928700  1
  F  F17  1  0.36401400  0.02074600  0.36071300  1
  F  F18  1  0.31713500  0.70901700  0.97217300  1
  F  F19  1  0.68286500  0.29098300  0.02782700  1
  F  F20  1  0.64915400  0.02232900  0.89951300  1
  F  F21  1  0.35084600  0.97767100  0.10048700  1
  F  F22  1  0.02440300  0.02341600  0.83921500  1
  F  F23  1  0.97559700  0.97658400  0.16078500  1
  F  F24  1  0.07829300  0.72822600  0.75878700  1
  F  F25  1  0.92170700  0.27177400  0.24121300  1
  F  F26  1  0.64455500  0.30770700  0.63038700  1
  F  F27  1  0.35544500  0.69229300  0.36961300  1
  F  F28  1  0.99537600  0.62853200  0.09433700  1
  F  F29  1  0.00462400  0.37146800  0.90566300  1
  F  F30  1  0.04267400  0.59054400  0.36673900  1
  F  F31  1  0.95732600  0.40945600  0.63326100  1
  F  F32  1  0.28094300  0.35404800  0.10227700  1
  F  F33  1  0.71905700  0.64595200  0.89772300  1
