# generated using pymatgen
data_CsCrI3
_symmetry_space_group_name_H-M   'P 1'
_cell_length_a   8.25884202
_cell_length_b   8.25884202
_cell_length_c   6.91991800
_cell_angle_alpha   90.00000000
_cell_angle_beta   90.00000000
_cell_angle_gamma   120.00000015
_symmetry_Int_Tables_number   1
_chemical_formula_structural   CsCrI3
_chemical_formula_sum   'Cs2 Cr2 I6'
_cell_volume   408.76141757
_cell_formula_units_Z   2
loop_
 _symmetry_equiv_pos_site_id
 _symmetry_equiv_pos_as_xyz
  1  'x, y, z'
loop_
 _atom_site_type_symbol
 _atom_site_label
 _atom_site_symmetry_multiplicity
 _atom_site_fract_x
 _atom_site_fract_y
 _atom_site_fract_z
 _atom_site_occupancy
  Cs  Cs0  1  0.33333300  0.66666700  0.75000000  1
  Cs  Cs1  1  0.66666700  0.33333300  0.25000000  1
  Cr  Cr2  1  0.00000000  0.00000000  0.50000000  1
  Cr  Cr3  1  0.00000000  0.00000000  0.00000000  1
  I  I4  1  0.67868300  0.83934200  0.25000000  1
  I  I5  1  0.83934200  0.16065800  0.75000000  1
  I  I6  1  0.16065800  0.83934200  0.25000000  1
  I  I7  1  0.32131700  0.16065800  0.75000000  1
  I  I8  1  0.83934200  0.67868300  0.75000000  1
  I  I9  1  0.16065800  0.32131700  0.25000000  1
