# generated using pymatgen
data_Li2Mo4O13
_symmetry_space_group_name_H-M   'P 1'
_cell_length_a   8.39412011
_cell_length_b   8.76748354
_cell_length_c   11.86346520
_cell_angle_alpha   110.95214073
_cell_angle_beta   94.44961739
_cell_angle_gamma   96.32477433
_symmetry_Int_Tables_number   1
_chemical_formula_structural   Li2Mo4O13
_chemical_formula_sum   'Li6 Mo12 O39'
_cell_volume   803.94176556
_cell_formula_units_Z   3
loop_
 _symmetry_equiv_pos_site_id
 _symmetry_equiv_pos_as_xyz
  1  'x, y, z'
loop_
 _atom_site_type_symbol
 _atom_site_label
 _atom_site_symmetry_multiplicity
 _atom_site_fract_x
 _atom_site_fract_y
 _atom_site_fract_z
 _atom_site_occupancy
  Li  Li0  1  0.69212400  0.03664300  0.37489300  1
  Li  Li1  1  0.30787600  0.96335700  0.62510700  1
  Li  Li2  1  0.70639200  0.47637000  0.98934100  1
  Li  Li3  1  0.29360800  0.52363000  0.01065900  1
  Li  Li4  1  0.89644200  0.01264600  0.62951800  1
  Li  Li5  1  0.10355800  0.98735400  0.37048200  1
  Mo  Mo6  1  0.02829900  0.83717100  0.03638200  1
  Mo  Mo7  1  0.97170100  0.16282900  0.96361800  1
  Mo  Mo8  1  0.63389100  0.85465500  0.03504200  1
  Mo  Mo9  1  0.36610900  0.14534500  0.96495800  1
  Mo  Mo10  1  0.77327300  0.67747100  0.36568600  1
  Mo  Mo11  1  0.22672700  0.32252900  0.63431400  1
  Mo  Mo12  1  0.37874500  0.69661300  0.36310900  1
  Mo  Mo13  1  0.62125500  0.30338700  0.63689100  1
  Mo  Mo14  1  0.58414300  0.67180400  0.63663800  1
  Mo  Mo15  1  0.41585700  0.32819600  0.36336200  1
  Mo  Mo16  1  0.97264600  0.65389600  0.63528400  1
  Mo  Mo17  1  0.02735400  0.34610400  0.36471600  1
  O  O18  1  0.93616600  0.07795100  0.80520700  1
  O  O19  1  0.06383400  0.92204900  0.19479300  1
  O  O20  1  0.98149600  0.70805100  0.79060400  1
  O  O21  1  0.01850400  0.29194900  0.20939600  1
  O  O22  1  0.88917500  0.19430700  0.38067200  1
  O  O23  1  0.11082500  0.80569300  0.61932800  1
  O  O24  1  0.50000000  0.00000000  0.00000000  1
  O  O25  1  0.49284200  0.67587000  0.99638200  1
  O  O26  1  0.50715800  0.32413000  0.00361800  1
  O  O27  1  0.40285500  0.18793400  0.61631200  1
  O  O28  1  0.59714500  0.81206600  0.38368800  1
  O  O29  1  0.43897000  0.46669200  0.60130200  1
  O  O30  1  0.56103000  0.53330800  0.39869800  1
  O  O31  1  0.45269500  0.78244900  0.58084400  1
  O  O32  1  0.54730500  0.21755100  0.41915600  1
  O  O33  1  0.39361000  0.23560900  0.20714300  1
  O  O34  1  0.60639000  0.76439100  0.79285700  1
  O  O35  1  0.34113200  0.62244700  0.20621800  1
  O  O36  1  0.65886800  0.37755300  0.79378200  1
  O  O37  1  0.34482100  0.06221700  0.80727300  1
  O  O38  1  0.65517900  0.93778300  0.19272700  1
  O  O39  1  0.24090400  0.41905200  0.78911300  1
  O  O40  1  0.75909600  0.58094800  0.21088700  1
  O  O41  1  0.21441700  0.23614000  0.40768000  1
  O  O42  1  0.78558300  0.76386000  0.59232000  1
  O  O43  1  0.25872600  0.51042000  0.38948900  1
  O  O44  1  0.74127400  0.48958000  0.61051100  1
  O  O45  1  0.26676400  0.86069500  0.41364800  1
  O  O46  1  0.73323600  0.13930500  0.58635200  1
  O  O47  1  0.15171400  0.00140400  0.99156200  1
  O  O48  1  0.84828600  0.99859600  0.00843800  1
  O  O49  1  0.18927000  0.28519200  0.99354700  1
  O  O50  1  0.81073000  0.71480800  0.00645300  1
  O  O51  1  0.13708700  0.67211700  0.99775700  1
  O  O52  1  0.86291300  0.32788300  0.00224300  1
  O  O53  1  0.08367300  0.14536300  0.59684500  1
  O  O54  1  0.91632700  0.85463700  0.40315500  1
  O  O55  1  0.08748400  0.46323600  0.58192600  1
  O  O56  1  0.91251600  0.53676400  0.41807400  1
