# generated using pymatgen
data_H5N2F
_symmetry_space_group_name_H-M   'P 1'
_cell_length_a   4.64385000
_cell_length_b   8.33868900
_cell_length_c   12.19195600
_cell_angle_alpha   90.00000000
_cell_angle_beta   90.00000000
_cell_angle_gamma   90.00000000
_symmetry_Int_Tables_number   1
_chemical_formula_structural   H5N2F
_chemical_formula_sum   'H40 N16 F8'
_cell_volume   472.11668233
_cell_formula_units_Z   8
loop_
 _symmetry_equiv_pos_site_id
 _symmetry_equiv_pos_as_xyz
  1  'x, y, z'
loop_
 _atom_site_type_symbol
 _atom_site_label
 _atom_site_symmetry_multiplicity
 _atom_site_fract_x
 _atom_site_fract_y
 _atom_site_fract_z
 _atom_site_occupancy
  H  H0  1  0.76520600  0.55820400  0.50507700  1
  H  H1  1  0.26520600  0.94179600  0.49492300  1
  H  H2  1  0.23479400  0.05820400  0.99492300  1
  H  H3  1  0.73479400  0.44179600  0.00507700  1
  H  H4  1  0.79434300  0.37855500  0.57013000  1
  H  H5  1  0.29434300  0.12144500  0.42987000  1
  H  H6  1  0.20565700  0.87855500  0.92987000  1
  H  H7  1  0.70565700  0.62144500  0.07013000  1
  H  H8  1  0.22598400  0.45213900  0.64361400  1
  H  H9  1  0.72598400  0.04786100  0.35638600  1
  H  H10  1  0.77401600  0.95213900  0.85638600  1
  H  H11  1  0.27401600  0.54786100  0.14361400  1
  H  H12  1  0.23130600  0.46422800  0.50134600  1
  H  H13  1  0.73130600  0.03577200  0.49865400  1
  H  H14  1  0.76869400  0.96422800  0.99865400  1
  H  H15  1  0.90158700  0.83348600  0.69088600  1
  H  H16  1  0.26869400  0.53577200  0.00134600  1
  H  H17  1  0.69701800  0.85941500  0.41730800  1
  H  H18  1  0.80298200  0.14058500  0.91730800  1
  H  H19  1  0.30298200  0.35941500  0.08269200  1
  H  H20  1  0.53925400  0.83409700  0.69276600  1
  H  H21  1  0.03925400  0.66590300  0.30723400  1
  H  H22  1  0.46074600  0.33409700  0.80723400  1
  H  H23  1  0.96074600  0.16590300  0.19276600  1
  H  H24  1  0.59371800  0.35595500  0.33172900  1
  H  H25  1  0.09371800  0.14404500  0.66827100  1
  H  H26  1  0.40628200  0.85595500  0.16827100  1
  H  H27  1  0.90628200  0.64404500  0.83172900  1
  H  H28  1  0.96995200  0.35620200  0.32800400  1
  H  H29  1  0.46995200  0.14379800  0.67199600  1
  H  H30  1  0.03004800  0.85620200  0.17199600  1
  H  H31  1  0.53004800  0.64379800  0.82800400  1
  H  H32  1  0.76775900  0.41965200  0.21473200  1
  H  H33  1  0.26775900  0.08034800  0.78526800  1
  H  H34  1  0.23224100  0.91965200  0.28526800  1
  H  H35  1  0.73224100  0.58034800  0.71473200  1
  H  H36  1  0.59841300  0.16651400  0.19088600  1
  H  H37  1  0.09841300  0.33348600  0.80911400  1
  H  H38  1  0.40158700  0.66651400  0.30911400  1
  H  H39  1  0.19701800  0.64058500  0.58269200  1
  N  N40  1  0.83578900  0.50007200  0.57581500  1
  N  N41  1  0.33578900  0.99992800  0.42418500  1
  N  N42  1  0.16421100  0.00007200  0.92418500  1
  N  N43  1  0.66421100  0.49992800  0.07581500  1
  N  N44  1  0.14741300  0.51606900  0.57382900  1
  N  N45  1  0.64741300  0.98393100  0.42617100  1
  N  N46  1  0.85258700  0.01606900  0.92617100  1
  N  N47  1  0.35258700  0.48393100  0.07382900  1
  N  N48  1  0.72219000  0.82420600  0.74181000  1
  N  N49  1  0.22219000  0.67579400  0.25819000  1
  N  N50  1  0.27781000  0.32420600  0.75819000  1
  N  N51  1  0.77781000  0.17579400  0.24181000  1
  N  N52  1  0.72116400  0.66020900  0.78206000  1
  N  N53  1  0.22116400  0.83979100  0.21794000  1
  N  N54  1  0.27883600  0.16020900  0.71794000  1
  N  N55  1  0.77883600  0.33979100  0.28206000  1
  F  F56  1  0.22539500  0.82340000  0.61370700  1
  F  F57  1  0.72539500  0.67660000  0.38629300  1
  F  F58  1  0.77460500  0.32340000  0.88629300  1
  F  F59  1  0.27460500  0.17660000  0.11370700  1
  F  F60  1  0.21870600  0.65080400  0.89419000  1
  F  F61  1  0.71870600  0.84919600  0.10581000  1
  F  F62  1  0.78129400  0.15080400  0.60581000  1
  F  F63  1  0.28129400  0.34919600  0.39419000  1
