# generated using pymatgen
data_Ba(TeO3)2
_symmetry_space_group_name_H-M   'P 1'
_cell_length_a   7.15062744
_cell_length_b   7.15062744
_cell_length_c   7.46171600
_cell_angle_alpha   90.00000000
_cell_angle_beta   90.00000000
_cell_angle_gamma   133.34659434
_symmetry_Int_Tables_number   1
_chemical_formula_structural   Ba(TeO3)2
_chemical_formula_sum   'Ba2 Te4 O12'
_cell_volume   277.45318968
_cell_formula_units_Z   2
loop_
 _symmetry_equiv_pos_site_id
 _symmetry_equiv_pos_as_xyz
  1  'x, y, z'
loop_
 _atom_site_type_symbol
 _atom_site_label
 _atom_site_symmetry_multiplicity
 _atom_site_fract_x
 _atom_site_fract_y
 _atom_site_fract_z
 _atom_site_occupancy
  Ba  Ba0  1  0.72207700  0.27792300  0.75000000  1
  Ba  Ba1  1  0.27792300  0.72207700  0.25000000  1
  Te  Te2  1  0.00000000  0.00000000  0.00000000  1
  Te  Te3  1  0.00000000  0.00000000  0.50000000  1
  Te  Te4  1  0.58479100  0.41520900  0.25000000  1
  Te  Te5  1  0.41520900  0.58479100  0.75000000  1
  O  O6  1  0.86842300  0.65831500  0.04475400  1
  O  O7  1  0.65831500  0.86842300  0.95524600  1
  O  O8  1  0.13157700  0.34168500  0.54475400  1
  O  O9  1  0.34168500  0.13157700  0.45524600  1
  O  O10  1  0.13157700  0.34168500  0.95524600  1
  O  O11  1  0.34168500  0.13157700  0.04475400  1
  O  O12  1  0.04841600  0.95158400  0.75000000  1
  O  O13  1  0.95158400  0.04841600  0.25000000  1
  O  O14  1  0.27408900  0.72591100  0.75000000  1
  O  O15  1  0.72591100  0.27408900  0.25000000  1
  O  O16  1  0.65831500  0.86842300  0.54475400  1
  O  O17  1  0.86842300  0.65831500  0.45524600  1
