# generated using pymatgen
data_V3ZnO8
_symmetry_space_group_name_H-M   'P 1'
_cell_length_a   9.81149648
_cell_length_b   9.81149648
_cell_length_c   9.81149648
_cell_angle_alpha   127.90040207
_cell_angle_beta   118.84125938
_cell_angle_gamma   84.45224721
_symmetry_Int_Tables_number   1
_chemical_formula_structural   V3ZnO8
_chemical_formula_sum   'V12 Zn4 O32'
_cell_volume   625.01929418
_cell_formula_units_Z   4
loop_
 _symmetry_equiv_pos_site_id
 _symmetry_equiv_pos_as_xyz
  1  'x, y, z'
loop_
 _atom_site_type_symbol
 _atom_site_label
 _atom_site_symmetry_multiplicity
 _atom_site_fract_x
 _atom_site_fract_y
 _atom_site_fract_z
 _atom_site_occupancy
  V  V0  1  0.74018700  0.77633700  0.92014900  1
  V  V1  1  0.25981300  0.17996100  0.03615000  1
  V  V2  1  0.85618800  0.27633700  0.53615000  1
  V  V3  1  0.14381200  0.67996100  0.42014900  1
  V  V4  1  0.48998900  0.94047100  0.12802800  1
  V  V5  1  0.51001100  0.63803900  0.45048200  1
  V  V6  1  0.81244300  0.44047100  0.95048200  1
  V  V7  1  0.18755700  0.13803900  0.62802800  1
  V  V8  1  0.81095600  0.46238200  0.31714800  1
  V  V9  1  0.18904400  0.50619200  0.65142500  1
  V  V10  1  0.14523300  0.96238200  0.15142500  1
  V  V11  1  0.85476700  0.00619200  0.81714800  1
  Zn  Zn12  1  0.48346700  0.32814200  0.50221300  1
  Zn  Zn13  1  0.51653300  0.01874600  0.84467500  1
  Zn  Zn14  1  0.82592900  0.82814200  0.34467500  1
  Zn  Zn15  1  0.17407100  0.51874600  0.00221300  1
  O  O16  1  0.35704800  0.05559600  0.24856100  1
  O  O17  1  0.64295200  0.89151300  0.69854800  1
  O  O18  1  0.80703500  0.55559600  0.19854800  1
  O  O19  1  0.19296500  0.39151300  0.74856100  1
  O  O20  1  0.64764600  0.20006300  0.38154000  1
  O  O21  1  0.35235400  0.73389400  0.55241800  1
  O  O22  1  0.81852300  0.70006300  0.05241800  1
  O  O23  1  0.18147700  0.23389400  0.88154000  1
  O  O24  1  0.60028700  0.84707700  0.22567100  1
  O  O25  1  0.39971300  0.62538300  0.24679000  1
  O  O26  1  0.62140600  0.34707700  0.74679000  1
  O  O27  1  0.37859400  0.12538300  0.72567100  1
  O  O28  1  0.70152900  0.24876900  0.11078600  1
  O  O29  1  0.29847100  0.40925700  0.54724000  1
  O  O30  1  0.13798300  0.74876900  0.04724000  1
  O  O31  1  0.86201700  0.90925700  0.61078600  1
  O  O32  1  0.84881400  0.22089500  0.91781500  1
  O  O33  1  0.15118600  0.06900200  0.37208100  1
  O  O34  1  0.30307900  0.72089500  0.87208100  1
  O  O35  1  0.69692100  0.56900200  0.41781500  1
  O  O36  1  0.07289600  0.54218800  0.16223300  1
  O  O37  1  0.92710400  0.08933800  0.46929300  1
  O  O38  1  0.37995500  0.04218800  0.96929300  1
  O  O39  1  0.62004500  0.58933800  0.66223300  1
  O  O40  1  0.06174000  0.56824600  0.47102700  1
  O  O41  1  0.93826000  0.40928800  0.50650600  1
  O  O42  1  0.09721800  0.06824600  0.00650600  1
  O  O43  1  0.90278200  0.90928800  0.97102700  1
  O  O44  1  0.09079900  0.87797300  0.49384300  1
  O  O45  1  0.90920100  0.40304400  0.78717400  1
  O  O46  1  0.38413100  0.37797300  0.28717400  1
  O  O47  1  0.61586900  0.90304400  0.99384300  1
