data_image0
_chemical_formula_structural       Be4O4Se4Sn4
_chemical_formula_sum              "Be4 O4 Se4 Sn4"
_cell_length_a       5.28398
_cell_length_b       12.1289
_cell_length_c       4.80311
_cell_angle_alpha    89.9993
_cell_angle_beta     89.9998
_cell_angle_gamma    90.0019

_space_group_name_H-M_alt    "P 1"
_space_group_IT_number       1

loop_
  _space_group_symop_operation_xyz
  'x, y, z'

loop_
  _atom_site_type_symbol
  _atom_site_label
  _atom_site_symmetry_multiplicity
  _atom_site_fract_x
  _atom_site_fract_y
  _atom_site_fract_z
  _atom_site_occupancy
  Be  Be1       1.0  0.87600  0.00285  0.03320  1.0000
  Be  Be2       1.0  0.37600  0.99700  0.03320  1.0000
  Be  Be3       1.0  0.12400  0.99700  0.53300  1.0000
  Be  Be4       1.0  0.62400  0.00285  0.53300  1.0000
  O   O1        1.0  0.12600  0.99800  0.20500  1.0000
  O   O2        1.0  0.62600  0.00225  0.20500  1.0000
  O   O3        1.0  0.87400  0.00225  0.70500  1.0000
  O   O4        1.0  0.37400  0.99800  0.70500  1.0000
  Se  Se1       1.0  0.99600  0.61200  0.00584  1.0000
  Se  Se2       1.0  0.49600  0.38800  0.00585  1.0000
  Se  Se3       1.0  0.50400  0.61200  0.50600  1.0000
  Se  Se4       1.0  0.00393  0.38800  0.50600  1.0000
  Sn  Sn1       1.0  0.49600  0.72300  0.00600  1.0000
  Sn  Sn2       1.0  0.99600  0.27700  0.00601  1.0000
  Sn  Sn3       1.0  0.00417  0.72300  0.50600  1.0000
  Sn  Sn4       1.0  0.50400  0.27700  0.50600  1.0000
