# generated using pymatgen
data_Ta6S
_symmetry_space_group_name_H-M   'P 1'
_cell_length_a   7.60082199
_cell_length_b   7.60082199
_cell_length_c   14.89308861
_cell_angle_alpha   63.81062925
_cell_angle_beta   63.81062925
_cell_angle_gamma   40.94441177
_symmetry_Int_Tables_number   1
_chemical_formula_structural   Ta6S
_chemical_formula_sum   'Ta24 S4'
_cell_volume   497.36295536
_cell_formula_units_Z   4
loop_
 _symmetry_equiv_pos_site_id
 _symmetry_equiv_pos_as_xyz
  1  'x, y, z'
loop_
 _atom_site_type_symbol
 _atom_site_label
 _atom_site_symmetry_multiplicity
 _atom_site_fract_x
 _atom_site_fract_y
 _atom_site_fract_z
 _atom_site_occupancy
  Ta  Ta0  1  0.68007600  0.99814900  0.54598400  1
  Ta  Ta1  1  0.00185100  0.31992400  0.95401600  1
  Ta  Ta2  1  0.31992400  0.00185100  0.45401600  1
  Ta  Ta3  1  0.99814900  0.68007600  0.04598400  1
  Ta  Ta4  1  0.27378800  0.59936400  0.59441800  1
  Ta  Ta5  1  0.40063600  0.72621200  0.90558200  1
  Ta  Ta6  1  0.72621200  0.40063600  0.40558200  1
  Ta  Ta7  1  0.59936400  0.27378800  0.09441800  1
  Ta  Ta8  1  0.88954000  0.18184900  0.82630200  1
  Ta  Ta9  1  0.81815100  0.11046000  0.67369800  1
  Ta  Ta10  1  0.11046000  0.81815100  0.17369800  1
  Ta  Ta11  1  0.18184900  0.88954000  0.32630200  1
  Ta  Ta12  1  0.06349500  0.35810600  0.60306400  1
  Ta  Ta13  1  0.64189400  0.93650500  0.89693600  1
  Ta  Ta14  1  0.93650500  0.64189400  0.39693600  1
  Ta  Ta15  1  0.35810600  0.06349500  0.10306400  1
  Ta  Ta16  1  0.42463500  0.78728900  0.68278600  1
  Ta  Ta17  1  0.21271100  0.57536500  0.81721400  1
  Ta  Ta18  1  0.57536500  0.21271100  0.31721400  1
  Ta  Ta19  1  0.78728900  0.42463500  0.18278600  1
  Ta  Ta20  1  0.65458400  0.84059700  0.24828700  1
  Ta  Ta21  1  0.15940300  0.34541600  0.25171300  1
  Ta  Ta22  1  0.34541600  0.15940300  0.75171300  1
  Ta  Ta23  1  0.84059700  0.65458400  0.74828700  1
  S  S24  1  0.30656100  0.47554100  0.45643000  1
  S  S25  1  0.52445900  0.69343900  0.04357000  1
  S  S26  1  0.69343900  0.52445900  0.54357000  1
  S  S27  1  0.47554100  0.30656100  0.95643000  1
