# generated using pymatgen
data_Ca12Be17O29
_symmetry_space_group_name_H-M   'P 1'
_cell_length_a   9.96141911
_cell_length_b   9.96141911
_cell_length_c   9.96141911
_cell_angle_alpha   60.00000000
_cell_angle_beta   60.00000000
_cell_angle_gamma   60.00000000
_symmetry_Int_Tables_number   1
_chemical_formula_structural   Ca12Be17O29
_chemical_formula_sum   'Ca12 Be17 O29'
_cell_volume   698.95407256
_cell_formula_units_Z   1
loop_
 _symmetry_equiv_pos_site_id
 _symmetry_equiv_pos_as_xyz
  1  'x, y, z'
loop_
 _atom_site_type_symbol
 _atom_site_label
 _atom_site_symmetry_multiplicity
 _atom_site_fract_x
 _atom_site_fract_y
 _atom_site_fract_z
 _atom_site_occupancy
  Ca  Ca0  1  0.29336600  0.70663400  0.29336600  1
  Ca  Ca1  1  0.70663400  0.29336600  0.70663400  1
  Ca  Ca2  1  0.70663400  0.70663400  0.29336600  1
  Ca  Ca3  1  0.29336600  0.70663400  0.70663400  1
  Ca  Ca4  1  0.70663400  0.29336600  0.29336600  1
  Ca  Ca5  1  0.29336600  0.29336600  0.70663400  1
  Ca  Ca6  1  0.49589300  0.00410700  0.49589300  1
  Ca  Ca7  1  0.00410700  0.49589300  0.00410700  1
  Ca  Ca8  1  0.00410700  0.00410700  0.49589300  1
  Ca  Ca9  1  0.49589300  0.00410700  0.00410700  1
  Ca  Ca10  1  0.00410700  0.49589300  0.49589300  1
  Ca  Ca11  1  0.49589300  0.49589300  0.00410700  1
  Be  Be12  1  0.84257100  0.84257100  0.47228700  1
  Be  Be13  1  0.15874100  0.15874100  0.15874100  1
  Be  Be14  1  0.52377700  0.15874100  0.15874100  1
  Be  Be15  1  0.15874100  0.15874100  0.52377700  1
  Be  Be16  1  0.15874100  0.52377700  0.15874100  1
  Be  Be17  1  0.84257100  0.84257100  0.84257100  1
  Be  Be18  1  0.47228700  0.84257100  0.84257100  1
  Be  Be19  1  0.84257100  0.47228700  0.84257100  1
  Be  Be20  1  0.67410800  0.67410800  0.67410800  1
  Be  Be21  1  0.97767500  0.67410800  0.67410800  1
  Be  Be22  1  0.67410800  0.67410800  0.97767500  1
  Be  Be23  1  0.67410800  0.97767500  0.67410800  1
  Be  Be24  1  0.50000000  0.50000000  0.50000000  1
  Be  Be25  1  0.36219600  0.91341300  0.36219600  1
  Be  Be26  1  0.36219600  0.36219600  0.91341300  1
  Be  Be27  1  0.91341300  0.36219600  0.36219600  1
  Be  Be28  1  0.36219600  0.36219600  0.36219600  1
  O  O29  1  0.97950900  0.24922400  0.24922400  1
  O  O30  1  0.52204300  0.24922400  0.24922400  1
  O  O31  1  0.97950900  0.52204300  0.24922400  1
  O  O32  1  0.24922400  0.52204300  0.24922400  1
  O  O33  1  0.52204300  0.24922400  0.97950900  1
  O  O34  1  0.43088700  0.43088700  0.43088700  1
  O  O35  1  0.24922400  0.24922400  0.97950900  1
  O  O36  1  0.24922400  0.97950900  0.52204300  1
  O  O37  1  0.75000000  0.75000000  0.75000000  1
  O  O38  1  0.43088700  0.70733800  0.43088700  1
  O  O39  1  0.43088700  0.43088700  0.70733800  1
  O  O40  1  0.70733800  0.43088700  0.43088700  1
  O  O41  1  0.75078200  0.47637600  0.02205900  1
  O  O42  1  0.75078200  0.75078200  0.47637600  1
  O  O43  1  0.47637600  0.02205900  0.75078200  1
  O  O44  1  0.75078200  0.02205900  0.75078200  1
  O  O45  1  0.02205900  0.75078200  0.47637600  1
  O  O46  1  0.02205900  0.75078200  0.75078200  1
  O  O47  1  0.47637600  0.75078200  0.75078200  1
  O  O48  1  0.02205900  0.47637600  0.75078200  1
  O  O49  1  0.75078200  0.47637600  0.75078200  1
  O  O50  1  0.47637600  0.75078200  0.02205900  1
  O  O51  1  0.75078200  0.75078200  0.02205900  1
  O  O52  1  0.75078200  0.02205900  0.47637600  1
  O  O53  1  0.24922400  0.52204300  0.97950900  1
  O  O54  1  0.24922400  0.24922400  0.52204300  1
  O  O55  1  0.52204300  0.97950900  0.24922400  1
  O  O56  1  0.24922400  0.97950900  0.24922400  1
  O  O57  1  0.97950900  0.24922400  0.52204300  1
