# generated using pymatgen
data_B4PF9
_symmetry_space_group_name_H-M   'P 1'
_cell_length_a   6.12723000
_cell_length_b   10.68874400
_cell_length_c   14.06564600
_cell_angle_alpha   90.00000000
_cell_angle_beta   90.00000000
_cell_angle_gamma   90.00000000
_symmetry_Int_Tables_number   1
_chemical_formula_structural   B4PF9
_chemical_formula_sum   'B16 P4 F36'
_cell_volume   921.19281421
_cell_formula_units_Z   4
loop_
 _symmetry_equiv_pos_site_id
 _symmetry_equiv_pos_as_xyz
  1  'x, y, z'
loop_
 _atom_site_type_symbol
 _atom_site_label
 _atom_site_symmetry_multiplicity
 _atom_site_fract_x
 _atom_site_fract_y
 _atom_site_fract_z
 _atom_site_occupancy
  B  B0  1  0.78761400  0.12058400  0.23018200  1
  B  B1  1  0.28761400  0.87941600  0.26981800  1
  B  B2  1  0.21238600  0.62058400  0.76981800  1
  B  B3  1  0.71238600  0.37941600  0.73018200  1
  B  B4  1  0.78761400  0.37941600  0.23018200  1
  B  B5  1  0.28761400  0.62058400  0.26981800  1
  B  B6  1  0.21238600  0.87941600  0.76981800  1
  B  B7  1  0.42016500  0.75000000  0.23121100  1
  B  B8  1  0.82525700  0.75000000  0.77812000  1
  B  B9  1  0.32525700  0.25000000  0.72188000  1
  B  B10  1  0.17474300  0.25000000  0.22188000  1
  B  B11  1  0.67474300  0.75000000  0.27812000  1
  B  B12  1  0.07983500  0.75000000  0.73121100  1
  B  B13  1  0.57983500  0.25000000  0.76878900  1
  B  B14  1  0.92016500  0.25000000  0.26878900  1
  B  B15  1  0.71238600  0.12058400  0.73018200  1
  P  P16  1  0.07153500  0.75000000  0.59992800  1
  P  P17  1  0.57153500  0.25000000  0.90007200  1
  P  P18  1  0.92846500  0.25000000  0.40007200  1
  P  P19  1  0.42846500  0.75000000  0.09992800  1
  F  F20  1  0.29673900  0.75000000  0.54939400  1
  F  F21  1  0.54374300  0.63739800  0.05158000  1
  F  F22  1  0.95625700  0.86260200  0.55158000  1
  F  F23  1  0.45625700  0.13739800  0.94842000  1
  F  F24  1  0.95625700  0.63739800  0.55158000  1
  F  F25  1  0.45625700  0.36260200  0.94842000  1
  F  F26  1  0.04374300  0.13739800  0.44842000  1
  F  F27  1  0.54374300  0.86260200  0.05158000  1
  F  F28  1  0.85903600  0.75000000  0.22491300  1
  F  F29  1  0.04374300  0.36260200  0.44842000  1
  F  F30  1  0.14096400  0.25000000  0.77508700  1
  F  F31  1  0.64096400  0.75000000  0.72491300  1
  F  F32  1  0.70816800  0.75000000  0.37195400  1
  F  F33  1  0.20816800  0.25000000  0.12804600  1
  F  F34  1  0.29183200  0.25000000  0.62804600  1
  F  F35  1  0.79183200  0.75000000  0.87195400  1
  F  F36  1  0.21231600  0.52973800  0.21122700  1
  F  F37  1  0.71231600  0.47026200  0.28877300  1
  F  F38  1  0.78768400  0.02973800  0.78877300  1
  F  F39  1  0.28768400  0.97026200  0.71122700  1
  F  F40  1  0.78768400  0.47026200  0.78877300  1
  F  F41  1  0.28768400  0.52973800  0.71122700  1
  F  F42  1  0.21231600  0.97026200  0.21122700  1
  F  F43  1  0.71231600  0.02973800  0.28877300  1
  F  F44  1  0.24969900  0.60031000  0.36210900  1
  F  F45  1  0.74969900  0.39969000  0.13789100  1
  F  F46  1  0.75030100  0.10031000  0.63789100  1
  F  F47  1  0.25030100  0.89969000  0.86210900  1
  F  F48  1  0.75030100  0.39969000  0.63789100  1
  F  F49  1  0.25030100  0.60031000  0.86210900  1
  F  F50  1  0.24969900  0.89969000  0.36210900  1
  F  F51  1  0.74969900  0.10031000  0.13789100  1
  F  F52  1  0.70326100  0.25000000  0.45060600  1
  F  F53  1  0.20326100  0.75000000  0.04939400  1
  F  F54  1  0.35903600  0.25000000  0.27508700  1
  F  F55  1  0.79673900  0.25000000  0.95060600  1
