data_image0
_chemical_formula_structural       Te4Ti3
_chemical_formula_sum              "Te4 Ti3"
_cell_length_a       3.79753
_cell_length_b       7.03825
_cell_length_c       7.43698
_cell_angle_alpha    117.837
_cell_angle_beta     104.792
_cell_angle_gamma    90

_space_group_name_H-M_alt    "P 1"
_space_group_IT_number       1

loop_
  _space_group_symop_operation_xyz
  'x, y, z'

loop_
  _atom_site_type_symbol
  _atom_site_label
  _atom_site_symmetry_multiplicity
  _atom_site_fract_x
  _atom_site_fract_y
  _atom_site_fract_z
  _atom_site_occupancy
  Te  Te1       1.0  0.10700  0.44900  0.21400  1.0000
  Te  Te2       1.0  0.63500  0.95900  0.27000  1.0000
  Te  Te3       1.0  0.36500  0.04130  0.73000  1.0000
  Te  Te4       1.0  0.89300  0.55100  0.78600  1.0000
  Ti  Ti1       1.0  0.00000  0.00000  0.00000  1.0000
  Ti  Ti2       1.0  0.24700  0.29500  0.49500  1.0000
  Ti  Ti3       1.0  0.75300  0.70500  0.50500  1.0000
