data_image0
_chemical_formula_structural       N2Nd2O2Te2
_chemical_formula_sum              "N2 Nd2 O2 Te2"
_cell_length_a       5.14555
_cell_length_b       5.14555
_cell_length_c       4.96141
_cell_angle_alpha    90
_cell_angle_beta     90
_cell_angle_gamma    90

_space_group_name_H-M_alt    "P 1"
_space_group_IT_number       1

loop_
  _space_group_symop_operation_xyz
  'x, y, z'

loop_
  _atom_site_type_symbol
  _atom_site_label
  _atom_site_symmetry_multiplicity
  _atom_site_fract_x
  _atom_site_fract_y
  _atom_site_fract_z
  _atom_site_occupancy
  N   N1        1.0  0.75000  0.75000  0.39500  1.0000
  N   N2        1.0  0.25000  0.25000  0.60500  1.0000
  Nd  Nd1       1.0  0.75000  0.25000  0.50000  1.0000
  Nd  Nd2       1.0  0.25000  0.75000  0.50000  1.0000
  O   O1        1.0  0.75000  0.25000  0.00000  1.0000
  O   O2        1.0  0.25000  0.75000  0.00000  1.0000
  Te  Te1       1.0  0.25000  0.25000  0.01400  1.0000
  Te  Te2       1.0  0.75000  0.75000  0.98600  1.0000
