# generated using pymatgen
data_Sn5W8O23
_symmetry_space_group_name_H-M   'P 1'
_cell_length_a   8.15596399
_cell_length_b   8.15596399
_cell_length_c   19.49138700
_cell_angle_alpha   90.00000000
_cell_angle_beta   90.00000000
_cell_angle_gamma   119.99999989
_symmetry_Int_Tables_number   1
_chemical_formula_structural   Sn5W8O23
_chemical_formula_sum   'Sn10 W16 O46'
_cell_volume   1122.85577109
_cell_formula_units_Z   2
loop_
 _symmetry_equiv_pos_site_id
 _symmetry_equiv_pos_as_xyz
  1  'x, y, z'
loop_
 _atom_site_type_symbol
 _atom_site_label
 _atom_site_symmetry_multiplicity
 _atom_site_fract_x
 _atom_site_fract_y
 _atom_site_fract_z
 _atom_site_occupancy
  Sn  Sn0  1  0.20034400  0.29579100  0.25000000  1
  Sn  Sn1  1  0.90455300  0.20034400  0.75000000  1
  Sn  Sn2  1  0.29579100  0.09544700  0.75000000  1
  Sn  Sn3  1  0.70420900  0.90455300  0.25000000  1
  Sn  Sn4  1  0.09544700  0.79965600  0.25000000  1
  Sn  Sn5  1  0.79965600  0.70420900  0.75000000  1
  Sn  Sn6  1  0.33333300  0.66666700  0.06038400  1
  Sn  Sn7  1  0.66666700  0.33333300  0.56038400  1
  Sn  Sn8  1  0.66666700  0.33333300  0.93961600  1
  Sn  Sn9  1  0.33333300  0.66666700  0.43961600  1
  W  W10  1  0.74871600  0.94361600  0.56990400  1
  W  W11  1  0.80510000  0.74871600  0.06990400  1
  W  W12  1  0.94361600  0.19490000  0.06990400  1
  W  W13  1  0.05638400  0.80510000  0.56990400  1
  W  W14  1  0.19490000  0.25128400  0.56990400  1
  W  W15  1  0.25128400  0.05638400  0.06990400  1
  W  W16  1  0.74871600  0.94361600  0.93009600  1
  W  W17  1  0.80510000  0.74871600  0.43009600  1
  W  W18  1  0.94361600  0.19490000  0.43009600  1
  W  W19  1  0.05638400  0.80510000  0.93009600  1
  W  W20  1  0.19490000  0.25128400  0.93009600  1
  W  W21  1  0.25128400  0.05638400  0.43009600  1
  W  W22  1  0.33333300  0.66666700  0.67444600  1
  W  W23  1  0.66666700  0.33333300  0.17444600  1
  W  W24  1  0.66666700  0.33333300  0.32555400  1
  W  W25  1  0.33333300  0.66666700  0.82555400  1
  O  O26  1  0.00000000  0.00000000  0.75000000  1
  O  O27  1  0.00000000  0.00000000  0.25000000  1
  O  O28  1  0.17621100  0.22398800  0.37764600  1
  O  O29  1  0.95222300  0.17621100  0.87764600  1
  O  O30  1  0.22398800  0.04777700  0.87764600  1
  O  O31  1  0.77601200  0.95222300  0.37764600  1
  O  O32  1  0.04777700  0.82378900  0.37764600  1
  O  O33  1  0.82378900  0.77601200  0.87764600  1
  O  O34  1  0.82378900  0.77601200  0.62235400  1
  O  O35  1  0.04777700  0.82378900  0.12235400  1
  O  O36  1  0.77601200  0.95222300  0.12235400  1
  O  O37  1  0.22398800  0.04777700  0.62235400  1
  O  O38  1  0.95222300  0.17621100  0.62235400  1
  O  O39  1  0.17621100  0.22398800  0.12235400  1
  O  O40  1  0.00000000  0.00000000  0.50000000  1
  O  O41  1  0.00000000  0.00000000  0.00000000  1
  O  O42  1  0.14543900  0.40478400  0.49605800  1
  O  O43  1  0.74065400  0.14543900  0.50394200  1
  O  O44  1  0.74065400  0.14543900  0.99605800  1
  O  O45  1  0.59521600  0.74065400  0.49605800  1
  O  O46  1  0.25934600  0.85456100  0.49605800  1
  O  O47  1  0.85456100  0.59521600  0.99605800  1
  O  O48  1  0.85456100  0.59521600  0.50394200  1
  O  O49  1  0.25934600  0.85456100  0.00394200  1
  O  O50  1  0.59521600  0.74065400  0.00394200  1
  O  O51  1  0.40478400  0.25934600  0.50394200  1
  O  O52  1  0.46791900  0.29115800  0.25000000  1
  O  O53  1  0.17676100  0.46791900  0.75000000  1
  O  O54  1  0.29115800  0.82323900  0.75000000  1
  O  O55  1  0.70884200  0.17676100  0.25000000  1
  O  O56  1  0.82323900  0.53208100  0.25000000  1
  O  O57  1  0.53208100  0.70884200  0.75000000  1
  O  O58  1  0.48236900  0.12129200  0.12922400  1
  O  O59  1  0.36107700  0.48236900  0.62922400  1
  O  O60  1  0.12129200  0.63892300  0.62922400  1
  O  O61  1  0.87870800  0.36107700  0.12922400  1
  O  O62  1  0.63892300  0.51763100  0.12922400  1
  O  O63  1  0.51763100  0.87870800  0.62922400  1
  O  O64  1  0.51763100  0.87870800  0.87077600  1
  O  O65  1  0.63892300  0.51763100  0.37077600  1
  O  O66  1  0.87870800  0.36107700  0.37077600  1
  O  O67  1  0.12129200  0.63892300  0.87077600  1
  O  O68  1  0.36107700  0.48236900  0.87077600  1
  O  O69  1  0.48236900  0.12129200  0.37077600  1
  O  O70  1  0.14543900  0.40478400  0.00394200  1
  O  O71  1  0.40478400  0.25934600  0.99605800  1
