# generated using pymatgen
data_La2CoO4
_symmetry_space_group_name_H-M   'P 1'
_cell_length_a   5.48754788
_cell_length_b   5.74836900
_cell_length_c   12.54695534
_cell_angle_alpha   89.99965620
_cell_angle_beta   90.00102792
_cell_angle_gamma   90.00313393
_symmetry_Int_Tables_number   1
_chemical_formula_structural   La2CoO4
_chemical_formula_sum   'La8 Co4 O16'
_cell_volume   395.78680616
_cell_formula_units_Z   4
loop_
 _symmetry_equiv_pos_site_id
 _symmetry_equiv_pos_as_xyz
  1  'x, y, z'
loop_
 _atom_site_type_symbol
 _atom_site_label
 _atom_site_symmetry_multiplicity
 _atom_site_fract_x
 _atom_site_fract_y
 _atom_site_fract_z
 _atom_site_occupancy
  La  La0  1  0.00001100  0.48201100  0.13804200  1
  La  La1  1  0.49998600  0.48203500  0.63805500  1
  La  La2  1  0.50002200  0.51795400  0.36195200  1
  La  La3  1  0.99999600  0.51800400  0.86195200  1
  La  La4  1  0.99999200  0.98202900  0.36195000  1
  La  La5  1  0.49997500  0.98202500  0.86194200  1
  La  La6  1  0.50000600  0.01796800  0.13805600  1
  La  La7  1  0.99998700  0.01797100  0.63805400  1
  Co  Co8  1  0.00000200  0.49999900  0.50000000  1
  Co  Co9  1  0.00000100  0.00000100  0.00000000  1
  Co  Co10  1  0.50000100  0.50000200  0.00000000  1
  Co  Co11  1  0.50000200  0.00000300  0.50000000  1
  O  O12  1  0.99999200  0.57348800  0.31793900  1
  O  O13  1  0.49999700  0.57347900  0.81796000  1
  O  O14  1  0.50000400  0.42651500  0.18203900  1
  O  O15  1  0.00001200  0.42651300  0.68205900  1
  O  O16  1  0.99999700  0.07348600  0.18206800  1
  O  O17  1  0.49999700  0.07349400  0.68205000  1
  O  O18  1  0.50000200  0.92650000  0.31795000  1
  O  O19  1  0.00000700  0.92651300  0.81793000  1
  O  O20  1  0.25000300  0.25000700  0.48054600  1
  O  O21  1  0.74999800  0.24998500  0.98054600  1
  O  O22  1  0.75000300  0.75003000  0.01945100  1
  O  O23  1  0.24999500  0.74998700  0.51945300  1
  O  O24  1  0.75000800  0.25001800  0.48054800  1
  O  O25  1  0.25000500  0.24997600  0.98055000  1
  O  O26  1  0.25000800  0.75002200  0.01945300  1
  O  O27  1  0.74999200  0.74998700  0.51945500  1
