data_image0
_chemical_formula_structural       Ag4O4Rh4Se4
_chemical_formula_sum              "Ag4 O4 Rh4 Se4"
_cell_length_a       6.63371
_cell_length_b       6.55933
_cell_length_c       6.01328
_cell_angle_alpha    90
_cell_angle_beta     92.2895
_cell_angle_gamma    90

_space_group_name_H-M_alt    "P 1"
_space_group_IT_number       1

loop_
  _space_group_symop_operation_xyz
  'x, y, z'

loop_
  _atom_site_type_symbol
  _atom_site_label
  _atom_site_symmetry_multiplicity
  _atom_site_fract_x
  _atom_site_fract_y
  _atom_site_fract_z
  _atom_site_occupancy
  Ag  Ag1       1.0  0.94300  0.28800  0.03520  1.0000
  Ag  Ag2       1.0  0.05680  0.78800  0.46500  1.0000
  Ag  Ag3       1.0  0.94300  0.21200  0.53500  1.0000
  Ag  Ag4       1.0  0.05680  0.71200  0.96500  1.0000
  O   O1        1.0  0.63300  0.37100  0.09780  1.0000
  O   O2        1.0  0.36700  0.87100  0.40200  1.0000
  O   O3        1.0  0.63300  0.12900  0.59800  1.0000
  O   O4        1.0  0.36700  0.62900  0.90200  1.0000
  Rh  Rh1       1.0  0.51000  0.62700  0.23300  1.0000
  Rh  Rh2       1.0  0.49000  0.12700  0.26700  1.0000
  Rh  Rh3       1.0  0.51000  0.87300  0.73300  1.0000
  Rh  Rh4       1.0  0.49000  0.37300  0.76700  1.0000
  Se  Se1       1.0  0.72500  0.87800  0.06940  1.0000
  Se  Se2       1.0  0.27500  0.37800  0.43100  1.0000
  Se  Se3       1.0  0.72500  0.62200  0.56900  1.0000
  Se  Se4       1.0  0.27500  0.12200  0.93100  1.0000
