# generated using pymatgen
data_Tl4S3
_symmetry_space_group_name_H-M   'P 1'
_cell_length_a   13.12870700
_cell_length_b   8.13926700
_cell_length_c   8.35854761
_cell_angle_alpha   76.67532252
_cell_angle_beta   90.00000000
_cell_angle_gamma   90.00000000
_symmetry_Int_Tables_number   1
_chemical_formula_structural   Tl4S3
_chemical_formula_sum   'Tl16 S12'
_cell_volume   869.13348931
_cell_formula_units_Z   4
loop_
 _symmetry_equiv_pos_site_id
 _symmetry_equiv_pos_as_xyz
  1  'x, y, z'
loop_
 _atom_site_type_symbol
 _atom_site_label
 _atom_site_symmetry_multiplicity
 _atom_site_fract_x
 _atom_site_fract_y
 _atom_site_fract_z
 _atom_site_occupancy
  Tl  Tl0  1  0.77604100  0.45992000  0.70712800  1
  Tl  Tl1  1  0.27604100  0.04008000  0.29287200  1
  Tl  Tl2  1  0.22395900  0.54008000  0.29287200  1
  Tl  Tl3  1  0.72395900  0.95992000  0.70712800  1
  Tl  Tl4  1  0.79002900  0.58450300  0.19731200  1
  Tl  Tl5  1  0.29002900  0.91549700  0.80268800  1
  Tl  Tl6  1  0.20997100  0.41549700  0.80268800  1
  Tl  Tl7  1  0.70997100  0.08450300  0.19731200  1
  Tl  Tl8  1  0.53414100  0.72350300  0.08734500  1
  Tl  Tl9  1  0.03414100  0.77649700  0.91265500  1
  Tl  Tl10  1  0.46585900  0.27649700  0.91265500  1
  Tl  Tl11  1  0.96585900  0.22350300  0.08734500  1
  Tl  Tl12  1  0.49813100  0.27084000  0.47115100  1
  Tl  Tl13  1  0.99813100  0.22916000  0.52884900  1
  Tl  Tl14  1  0.50186900  0.72916000  0.52884900  1
  Tl  Tl15  1  0.00186900  0.77084000  0.47115100  1
  S  S16  1  0.83438000  0.91574900  0.96131000  1
  S  S17  1  0.33438000  0.58425100  0.03869000  1
  S  S18  1  0.16562000  0.08425100  0.03869000  1
  S  S19  1  0.66562000  0.41574900  0.96131000  1
  S  S20  1  0.74706400  0.75591000  0.50831500  1
  S  S21  1  0.24706400  0.74409000  0.49168500  1
  S  S22  1  0.25293600  0.24409000  0.49168500  1
  S  S23  1  0.75293600  0.25591000  0.50831500  1
  S  S24  1  0.97224100  0.45717300  0.75917500  1
  S  S25  1  0.47224100  0.04282700  0.24082500  1
  S  S26  1  0.02775900  0.54282700  0.24082500  1
  S  S27  1  0.52775900  0.95717300  0.75917500  1
