# generated using pymatgen
data_Na6PbO4
_symmetry_space_group_name_H-M   'P 1'
_cell_length_a   9.78566964
_cell_length_b   9.78566964
_cell_length_c   9.78566964
_cell_angle_alpha   109.47122063
_cell_angle_beta   109.47122063
_cell_angle_gamma   109.47122063
_symmetry_Int_Tables_number   1
_chemical_formula_structural   Na6PbO4
_chemical_formula_sum   'Na24 Pb4 O16'
_cell_volume   721.35618407
_cell_formula_units_Z   4
loop_
 _symmetry_equiv_pos_site_id
 _symmetry_equiv_pos_as_xyz
  1  'x, y, z'
loop_
 _atom_site_type_symbol
 _atom_site_label
 _atom_site_symmetry_multiplicity
 _atom_site_fract_x
 _atom_site_fract_y
 _atom_site_fract_z
 _atom_site_occupancy
  Na  Na0  1  0.46751900  0.74275800  0.46751900  1
  Na  Na1  1  0.72476100  0.72476100  0.25724200  1
  Na  Na2  1  0.23384000  0.45357400  0.45357400  1
  Na  Na3  1  0.25724200  0.72476100  0.72476100  1
  Na  Na4  1  0.78026600  0.00000000  0.54642600  1
  Na  Na5  1  0.53248100  0.00000000  0.27523900  1
  Na  Na6  1  0.45357400  0.45357400  0.23384000  1
  Na  Na7  1  0.76616000  0.21973400  0.21973400  1
  Na  Na8  1  0.54642600  0.00000000  0.78026600  1
  Na  Na9  1  0.45357400  0.23384000  0.45357400  1
  Na  Na10  1  0.72476100  0.25724200  0.72476100  1
  Na  Na11  1  0.00000000  0.78026600  0.54642600  1
  Na  Na12  1  0.74275800  0.46751900  0.46751900  1
  Na  Na13  1  0.46751900  0.46751900  0.74275800  1
  Na  Na14  1  0.00000000  0.27523900  0.53248100  1
  Na  Na15  1  0.53248100  0.27523900  0.00000000  1
  Na  Na16  1  0.27523900  0.53248100  0.00000000  1
  Na  Na17  1  0.54642600  0.78026600  0.00000000  1
  Na  Na18  1  0.21973400  0.76616000  0.21973400  1
  Na  Na19  1  0.27523900  0.00000000  0.53248100  1
  Na  Na20  1  0.21973400  0.21973400  0.76616000  1
  Na  Na21  1  0.00000000  0.54642600  0.78026600  1
  Na  Na22  1  0.78026600  0.54642600  0.00000000  1
  Na  Na23  1  0.00000000  0.53248100  0.27523900  1
  Pb  Pb24  1  0.00000000  0.00000000  0.25392900  1
  Pb  Pb25  1  0.00000000  0.25392900  0.00000000  1
  Pb  Pb26  1  0.74607100  0.74607100  0.74607100  1
  Pb  Pb27  1  0.25392900  0.00000000  0.00000000  1
  O  O28  1  0.00000000  0.76884100  0.28646900  1
  O  O29  1  0.50000000  0.50000000  0.00000000  1
  O  O30  1  0.00000000  0.28646900  0.76884100  1
  O  O31  1  0.23115900  0.23115900  0.51762800  1
  O  O32  1  0.71353100  0.71353100  0.48237200  1
  O  O33  1  0.76884100  0.28646900  0.00000000  1
  O  O34  1  0.76884100  0.00000000  0.28646900  1
  O  O35  1  0.23115900  0.51762800  0.23115900  1
  O  O36  1  0.00000000  0.50000000  0.50000000  1
  O  O37  1  0.51762800  0.23115900  0.23115900  1
  O  O38  1  0.48237200  0.71353100  0.71353100  1
  O  O39  1  0.28646900  0.76884100  0.00000000  1
  O  O40  1  0.28646900  0.00000000  0.76884100  1
  O  O41  1  0.00000000  0.00000000  0.00000000  1
  O  O42  1  0.71353100  0.48237200  0.71353100  1
  O  O43  1  0.50000000  0.00000000  0.50000000  1
