# generated using pymatgen
data_Nb2P5
_symmetry_space_group_name_H-M   'P 1'
_cell_length_a   3.35763500
_cell_length_b   7.94821300
_cell_length_c   16.87382000
_cell_angle_alpha   90.00000000
_cell_angle_beta   90.00000000
_cell_angle_gamma   90.00000000
_symmetry_Int_Tables_number   1
_chemical_formula_structural   Nb2P5
_chemical_formula_sum   'Nb8 P20'
_cell_volume   450.31497799
_cell_formula_units_Z   4
loop_
 _symmetry_equiv_pos_site_id
 _symmetry_equiv_pos_as_xyz
  1  'x, y, z'
loop_
 _atom_site_type_symbol
 _atom_site_label
 _atom_site_symmetry_multiplicity
 _atom_site_fract_x
 _atom_site_fract_y
 _atom_site_fract_z
 _atom_site_occupancy
  Nb  Nb0  1  0.25000000  0.32783200  0.77426400  1
  Nb  Nb1  1  0.75000000  0.67216800  0.22573600  1
  Nb  Nb2  1  0.75000000  0.82783200  0.72573600  1
  Nb  Nb3  1  0.25000000  0.17216800  0.27426400  1
  Nb  Nb4  1  0.25000000  0.33571500  0.59528300  1
  Nb  Nb5  1  0.75000000  0.66428500  0.40471700  1
  Nb  Nb6  1  0.75000000  0.83571500  0.90471700  1
  Nb  Nb7  1  0.25000000  0.16428500  0.09528300  1
  P  P8  1  0.75000000  0.15216500  0.68600200  1
  P  P9  1  0.25000000  0.84783500  0.31399800  1
  P  P10  1  0.25000000  0.65216500  0.81399800  1
  P  P11  1  0.75000000  0.34783500  0.18600200  1
  P  P12  1  0.25000000  0.00599300  0.81571400  1
  P  P13  1  0.75000000  0.99400700  0.18428600  1
  P  P14  1  0.75000000  0.50599300  0.68428600  1
  P  P15  1  0.25000000  0.49400700  0.31571400  1
  P  P16  1  0.25000000  0.46194400  0.04045300  1
  P  P17  1  0.75000000  0.53805600  0.95954700  1
  P  P18  1  0.75000000  0.96194400  0.45954700  1
  P  P19  1  0.25000000  0.03805600  0.54045300  1
  P  P20  1  0.75000000  0.18404700  0.38451500  1
  P  P21  1  0.25000000  0.81595300  0.61548500  1
  P  P22  1  0.25000000  0.68404700  0.11548500  1
  P  P23  1  0.75000000  0.31595300  0.88451500  1
  P  P24  1  0.75000000  0.11959200  0.97840100  1
  P  P25  1  0.25000000  0.88040800  0.02159900  1
  P  P26  1  0.25000000  0.61959200  0.52159900  1
  P  P27  1  0.75000000  0.38040800  0.47840100  1
