data_image0
_chemical_formula_structural       Ba4OSb2
_chemical_formula_sum              "Ba4 O1 Sb2"
_cell_length_a       5.30579
_cell_length_b       5.30579
_cell_length_c       9.94473
_cell_angle_alpha    105.472
_cell_angle_beta     105.472
_cell_angle_gamma    90

_space_group_name_H-M_alt    "P 1"
_space_group_IT_number       1

loop_
  _space_group_symop_operation_xyz
  'x, y, z'

loop_
  _atom_site_type_symbol
  _atom_site_label
  _atom_site_symmetry_multiplicity
  _atom_site_fract_x
  _atom_site_fract_y
  _atom_site_fract_z
  _atom_site_occupancy
  Ba  Ba1       1.0  0.50000  0.00000  0.00000  1.0000
  Ba  Ba2       1.0  0.00000  0.50000  0.00000  1.0000
  Ba  Ba3       1.0  0.67200  0.67200  0.34500  1.0000
  Ba  Ba4       1.0  0.32800  0.32800  0.65500  1.0000
  O   O1        1.0  0.50000  0.50000  0.00000  1.0000
  Sb  Sb1       1.0  0.13700  0.13700  0.27500  1.0000
  Sb  Sb2       1.0  0.86300  0.86300  0.72500  1.0000
