# generated using pymatgen
data_CrB4
_symmetry_space_group_name_H-M   'P 1'
_cell_length_a   3.89931039
_cell_length_b   3.89931039
_cell_length_c   3.89931039
_cell_angle_alpha   137.08239609
_cell_angle_beta   104.96446357
_cell_angle_gamma   90.54124594
_symmetry_Int_Tables_number   1
_chemical_formula_structural   CrB4
_chemical_formula_sum   'Cr1 B4'
_cell_volume   37.18363454
_cell_formula_units_Z   1
loop_
 _symmetry_equiv_pos_site_id
 _symmetry_equiv_pos_as_xyz
  1  'x, y, z'
loop_
 _atom_site_type_symbol
 _atom_site_label
 _atom_site_symmetry_multiplicity
 _atom_site_fract_x
 _atom_site_fract_y
 _atom_site_fract_z
 _atom_site_occupancy
  Cr  Cr0  1  0.00000000  0.00000000  0.00000000  1
  B  B1  1  0.53747200  0.34219800  0.19527400  1
  B  B2  1  0.14692400  0.34219800  0.80472600  1
  B  B3  1  0.85307600  0.65780200  0.19527400  1
  B  B4  1  0.46252800  0.65780200  0.80472600  1
