# generated using pymatgen
data_S3(NCl)2
_symmetry_space_group_name_H-M   'P 1'
_cell_length_a   9.15441200
_cell_length_b   5.70101100
_cell_length_c   6.66738793
_cell_angle_alpha   78.37557162
_cell_angle_beta   90.00000000
_cell_angle_gamma   90.00000000
_symmetry_Int_Tables_number   1
_chemical_formula_structural   S3(NCl)2
_chemical_formula_sum   'S6 N4 Cl4'
_cell_volume   340.82999738
_cell_formula_units_Z   2
loop_
 _symmetry_equiv_pos_site_id
 _symmetry_equiv_pos_as_xyz
  1  'x, y, z'
loop_
 _atom_site_type_symbol
 _atom_site_label
 _atom_site_symmetry_multiplicity
 _atom_site_fract_x
 _atom_site_fract_y
 _atom_site_fract_z
 _atom_site_occupancy
  S  S0  1  0.16868400  0.69712000  0.60838100  1
  S  S1  1  0.76750100  0.12331400  0.78665700  1
  S  S2  1  0.53064300  0.16234300  0.76721100  1
  S  S3  1  0.66868400  0.30288000  0.39161900  1
  S  S4  1  0.03064300  0.83765700  0.23278900  1
  S  S5  1  0.26750100  0.87668600  0.21334300  1
  N  N6  1  0.52000300  0.23530000  0.52710800  1
  N  N7  1  0.79565800  0.24889400  0.55017500  1
  N  N8  1  0.29565800  0.75110600  0.44982500  1
  N  N9  1  0.02000300  0.76470000  0.47289200  1
  Cl  Cl10  1  0.99783000  0.50950700  0.10655100  1
  Cl  Cl11  1  0.49783000  0.49049300  0.89344900  1
  Cl  Cl12  1  0.64688100  0.92433400  0.19151000  1
  Cl  Cl13  1  0.14688100  0.07566600  0.80849000  1
