# generated using pymatgen
data_Mo9O26
_symmetry_space_group_name_H-M   'P 1'
_cell_length_a   4.10694200
_cell_length_b   14.90777400
_cell_length_c   17.25429662
_cell_angle_alpha   84.85225915
_cell_angle_beta   90.00000000
_cell_angle_gamma   90.00000000
_symmetry_Int_Tables_number   1
_chemical_formula_structural   Mo9O26
_chemical_formula_sum   'Mo18 O52'
_cell_volume   1052.13974332
_cell_formula_units_Z   2
loop_
 _symmetry_equiv_pos_site_id
 _symmetry_equiv_pos_as_xyz
  1  'x, y, z'
loop_
 _atom_site_type_symbol
 _atom_site_label
 _atom_site_symmetry_multiplicity
 _atom_site_fract_x
 _atom_site_fract_y
 _atom_site_fract_z
 _atom_site_occupancy
  Mo  Mo0  1  0.58929500  0.45360100  0.41807400  1
  Mo  Mo1  1  0.58929500  0.54639900  0.08192600  1
  Mo  Mo2  1  0.41070500  0.54639900  0.58192600  1
  Mo  Mo3  1  0.41070500  0.45360100  0.91807400  1
  Mo  Mo4  1  0.41785900  0.33519900  0.13216300  1
  Mo  Mo5  1  0.41785900  0.66480100  0.36783700  1
  Mo  Mo6  1  0.58214100  0.66480100  0.86783700  1
  Mo  Mo7  1  0.58214100  0.33519900  0.63216300  1
  Mo  Mo8  1  0.57200200  0.11251700  0.04217900  1
  Mo  Mo9  1  0.57200200  0.88748300  0.45782100  1
  Mo  Mo10  1  0.42799800  0.88748300  0.95782100  1
  Mo  Mo11  1  0.42799800  0.11251700  0.54217900  1
  Mo  Mo12  1  0.58579600  0.22411500  0.33732000  1
  Mo  Mo13  1  0.58579600  0.77588500  0.16268000  1
  Mo  Mo14  1  0.41420400  0.77588500  0.66268000  1
  Mo  Mo15  1  0.41420400  0.22411500  0.83732000  1
  Mo  Mo16  1  0.42792700  0.00000000  0.25000000  1
  Mo  Mo17  1  0.57207300  0.00000000  0.75000000  1
  O  O18  1  0.51153400  0.46046300  0.16512500  1
  O  O19  1  0.51153400  0.53953700  0.33487500  1
  O  O20  1  0.48846600  0.53953700  0.83487500  1
  O  O21  1  0.48846600  0.46046300  0.66512500  1
  O  O22  1  0.49797500  0.42181200  0.03028300  1
  O  O23  1  0.49797500  0.57818800  0.46971700  1
  O  O24  1  0.50202500  0.57818800  0.96971700  1
  O  O25  1  0.50202500  0.42181200  0.53028300  1
  O  O26  1  0.51311200  0.34693600  0.37859700  1
  O  O27  1  0.51311200  0.65306400  0.12140300  1
  O  O28  1  0.48688800  0.65306400  0.62140300  1
  O  O29  1  0.48688800  0.34693600  0.87859700  1
  O  O30  1  0.48829300  0.28638100  0.23085200  1
  O  O31  1  0.48829300  0.71361900  0.26914800  1
  O  O32  1  0.51170700  0.71361900  0.76914800  1
  O  O33  1  0.51170700  0.28638100  0.73085200  1
  O  O34  1  0.49576200  0.23522600  0.07973800  1
  O  O35  1  0.49576200  0.76477400  0.42026200  1
  O  O36  1  0.99545500  0.00000000  0.75000000  1
  O  O37  1  0.00454500  0.00000000  0.25000000  1
  O  O38  1  0.00446000  0.11454400  0.54285500  1
  O  O39  1  0.00446000  0.88545600  0.95714500  1
  O  O40  1  0.99554000  0.88545600  0.45714500  1
  O  O41  1  0.99554000  0.11454400  0.04285500  1
  O  O42  1  0.99108800  0.22854100  0.83521200  1
  O  O43  1  0.99108800  0.77145900  0.66478800  1
  O  O44  1  0.00891200  0.77145900  0.16478800  1
  O  O45  1  0.00891200  0.22854100  0.33521200  1
  O  O46  1  0.00615700  0.33988900  0.62892600  1
  O  O47  1  0.00615700  0.66011100  0.87107400  1
  O  O48  1  0.99384300  0.66011100  0.37107400  1
  O  O49  1  0.99384300  0.33988900  0.12892600  1
  O  O50  1  0.98670000  0.45399700  0.92190300  1
  O  O51  1  0.98670000  0.54600300  0.57809700  1
  O  O52  1  0.01330000  0.54600300  0.07809700  1
  O  O53  1  0.01330000  0.45399700  0.42190300  1
  O  O54  1  0.50000000  0.00000000  0.00000000  1
  O  O55  1  0.50000000  0.00000000  0.50000000  1
  O  O56  1  0.50362300  0.06247600  0.64534000  1
  O  O57  1  0.50362300  0.93752400  0.85466000  1
  O  O58  1  0.49637700  0.93752400  0.35466000  1
  O  O59  1  0.49637700  0.06247600  0.14534000  1
  O  O60  1  0.49262200  0.10991700  0.79379500  1
  O  O61  1  0.49262200  0.89008300  0.70620500  1
  O  O62  1  0.50737800  0.89008300  0.20620500  1
  O  O63  1  0.50737800  0.10991700  0.29379500  1
  O  O64  1  0.49729100  0.17071500  0.94142900  1
  O  O65  1  0.49729100  0.82928500  0.55857100  1
  O  O66  1  0.50270900  0.82928500  0.05857100  1
  O  O67  1  0.50270900  0.17071500  0.44142900  1
  O  O68  1  0.50423800  0.23522600  0.57973800  1
  O  O69  1  0.50423800  0.76477400  0.92026200  1
