data_image0
_chemical_formula_structural       As4Mg2Si2
_chemical_formula_sum              "As4 Mg2 Si2"
_cell_length_a       5.96303
_cell_length_b       5.96303
_cell_length_c       6.85599
_cell_angle_alpha    115.777
_cell_angle_beta     115.777
_cell_angle_gamma    90

_space_group_name_H-M_alt    "P 1"
_space_group_IT_number       1

loop_
  _space_group_symop_operation_xyz
  'x, y, z'

loop_
  _atom_site_type_symbol
  _atom_site_label
  _atom_site_symmetry_multiplicity
  _atom_site_fract_x
  _atom_site_fract_y
  _atom_site_fract_z
  _atom_site_occupancy
  As  As1       1.0  0.41000  0.37500  0.25000  1.0000
  As  As2       1.0  0.84000  0.87500  0.25000  1.0000
  As  As3       1.0  0.62500  0.16000  0.75000  1.0000
  As  As4       1.0  0.12500  0.59000  0.75000  1.0000
  Mg  Mg1       1.0  0.00000  0.00000  0.00000  1.0000
  Mg  Mg2       1.0  0.25000  0.75000  0.50000  1.0000
  Si  Si1       1.0  0.50000  0.50000  0.00000  1.0000
  Si  Si2       1.0  0.75000  0.25000  0.50000  1.0000
