# generated using pymatgen
data_NbCl3O
_symmetry_space_group_name_H-M   'P 1'
_cell_length_a   11.80775000
_cell_length_b   11.80775000
_cell_length_c   3.87029100
_cell_angle_alpha   90.00000000
_cell_angle_beta   90.00000000
_cell_angle_gamma   90.00000000
_symmetry_Int_Tables_number   1
_chemical_formula_structural   NbCl3O
_chemical_formula_sum   'Nb4 Cl12 O4'
_cell_volume   539.60742752
_cell_formula_units_Z   4
loop_
 _symmetry_equiv_pos_site_id
 _symmetry_equiv_pos_as_xyz
  1  'x, y, z'
loop_
 _atom_site_type_symbol
 _atom_site_label
 _atom_site_symmetry_multiplicity
 _atom_site_fract_x
 _atom_site_fract_y
 _atom_site_fract_z
 _atom_site_occupancy
  Nb  Nb0  1  0.87980100  0.87980100  0.00000000  1
  Nb  Nb1  1  0.37980100  0.62019900  0.50000000  1
  Nb  Nb2  1  0.62019900  0.37980100  0.50000000  1
  Nb  Nb3  1  0.12019900  0.12019900  0.00000000  1
  Cl  Cl4  1  0.90231600  0.09768400  0.00000000  1
  Cl  Cl5  1  0.59768400  0.59768400  0.50000000  1
  Cl  Cl6  1  0.40231600  0.40231600  0.50000000  1
  Cl  Cl7  1  0.09768400  0.90231600  0.00000000  1
  Cl  Cl8  1  0.09951500  0.31376100  0.00000000  1
  Cl  Cl9  1  0.81376100  0.40048500  0.50000000  1
  Cl  Cl10  1  0.18623900  0.59951500  0.50000000  1
  Cl  Cl11  1  0.90048500  0.68623900  0.00000000  1
  Cl  Cl12  1  0.40048500  0.81376100  0.50000000  1
  Cl  Cl13  1  0.59951500  0.18623900  0.50000000  1
  Cl  Cl14  1  0.31376100  0.09951500  0.00000000  1
  Cl  Cl15  1  0.68623900  0.90048500  0.00000000  1
  O  O16  1  0.39130100  0.60869900  0.00000000  1
  O  O17  1  0.10869900  0.10869900  0.50000000  1
  O  O18  1  0.89130100  0.89130100  0.50000000  1
  O  O19  1  0.60869900  0.39130100  0.00000000  1
