# generated using pymatgen
data_W10O29
_symmetry_space_group_name_H-M   'P 1'
_cell_length_a   3.85744200
_cell_length_b   12.27990100
_cell_length_c   23.96328908
_cell_angle_alpha   85.31742928
_cell_angle_beta   90.00000000
_cell_angle_gamma   90.00000000
_symmetry_Int_Tables_number   1
_chemical_formula_structural   W10O29
_chemical_formula_sum   'W20 O58'
_cell_volume   1131.32846219
_cell_formula_units_Z   2
loop_
 _symmetry_equiv_pos_site_id
 _symmetry_equiv_pos_as_xyz
  1  'x, y, z'
loop_
 _atom_site_type_symbol
 _atom_site_label
 _atom_site_symmetry_multiplicity
 _atom_site_fract_x
 _atom_site_fract_y
 _atom_site_fract_z
 _atom_site_occupancy
  W  W0  1  0.50000000  0.26483400  0.48721700  1
  W  W1  1  0.50000000  0.73516600  0.51278300  1
  W  W2  1  0.50000000  0.97372200  0.43231400  1
  W  W3  1  0.50000000  0.02627800  0.56768600  1
  W  W4  1  0.50000000  0.67466500  0.38224400  1
  W  W5  1  0.50000000  0.32533500  0.61775600  1
  W  W6  1  0.50000000  0.38584500  0.33099500  1
  W  W7  1  0.50000000  0.61415500  0.66900500  1
  W  W8  1  0.50000000  0.09892500  0.27775200  1
  W  W9  1  0.50000000  0.90107500  0.72224800  1
  W  W10  1  0.50000000  0.80764900  0.22866600  1
  W  W11  1  0.50000000  0.19235100  0.77133400  1
  W  W12  1  0.50000000  0.51669400  0.17798800  1
  W  W13  1  0.50000000  0.48330600  0.82201200  1
  W  W14  1  0.50000000  0.22758800  0.12530200  1
  W  W15  1  0.50000000  0.77241200  0.87469800  1
  W  W16  1  0.50000000  0.93604700  0.07582900  1
  W  W17  1  0.50000000  0.06395300  0.92417100  1
  W  W18  1  0.50000000  0.64472800  0.02617800  1
  W  W19  1  0.50000000  0.35527200  0.97382200  1
  O  O20  1  0.50000000  0.89936300  0.51828300  1
  O  O21  1  0.50000000  0.10063700  0.48171700  1
  O  O22  1  0.50000000  0.61983200  0.46750900  1
  O  O23  1  0.50000000  0.38016800  0.53249100  1
  O  O24  1  0.50000000  0.32513100  0.41483100  1
  O  O25  1  0.50000000  0.67486900  0.58516900  1
  O  O26  1  0.50000000  0.03488400  0.36079200  1
  O  O27  1  0.50000000  0.96511600  0.63920800  1
  O  O28  1  0.50000000  0.81209000  0.42694200  1
  O  O29  1  0.50000000  0.18791000  0.57305800  1
  O  O30  1  0.50000000  0.53214500  0.36248200  1
  O  O31  1  0.50000000  0.46785500  0.63751800  1
  O  O32  1  0.50000000  0.24074000  0.31084600  1
  O  O33  1  0.50000000  0.75926000  0.68915400  1
  O  O34  1  0.50000000  0.74934500  0.31268700  1
  O  O35  1  0.50000000  0.25065500  0.68731300  1
  O  O36  1  0.50000000  0.45061800  0.25898500  1
  O  O37  1  0.50000000  0.54938200  0.74101500  1
  O  O38  1  0.50000000  0.16381300  0.20582400  1
  O  O39  1  0.50000000  0.83618700  0.79417600  1
  O  O40  1  0.00000000  0.35532900  0.97352900  1
  O  O41  1  0.00000000  0.64467100  0.02647100  1
  O  O42  1  0.00000000  0.06438200  0.92223000  1
  O  O43  1  0.00000000  0.93561800  0.07777000  1
  O  O44  1  0.00000000  0.77290600  0.87142900  1
  O  O45  1  0.00000000  0.22709400  0.12857100  1
  O  O46  1  0.00000000  0.48292300  0.81820400  1
  O  O47  1  0.00000000  0.51707700  0.18179600  1
  O  O48  1  0.00000000  0.19328400  0.76624200  1
  O  O49  1  0.00000000  0.80671600  0.23375800  1
  O  O50  1  0.00000000  0.90238800  0.71687000  1
  O  O51  1  0.00000000  0.09761200  0.28313000  1
  O  O52  1  0.00000000  0.61394600  0.66311100  1
  O  O53  1  0.00000000  0.38605400  0.33688900  1
  O  O54  1  0.00000000  0.32289500  0.61262200  1
  O  O55  1  0.00000000  0.67710500  0.38737800  1
  O  O56  1  0.00000000  0.02871900  0.56344000  1
  O  O57  1  0.00000000  0.97128100  0.43656000  1
  O  O58  1  0.00000000  0.74585600  0.51217200  1
  O  O59  1  0.00000000  0.25414400  0.48782800  1
  O  O60  1  0.50000000  0.00000000  0.00000000  1
  O  O61  1  0.50000000  0.50000000  0.00000000  1
  O  O62  1  0.50000000  0.20942300  0.94828400  1
  O  O63  1  0.50000000  0.79057700  0.05171600  1
  O  O64  1  0.50000000  0.70919900  0.94894600  1
  O  O65  1  0.50000000  0.29080100  0.05105400  1
  O  O66  1  0.50000000  0.41824800  0.89567400  1
  O  O67  1  0.50000000  0.58175200  0.10432600  1
  O  O68  1  0.50000000  0.13010500  0.84462600  1
  O  O69  1  0.50000000  0.86989500  0.15537400  1
  O  O70  1  0.50000000  0.91886600  0.89680500  1
  O  O71  1  0.50000000  0.08113400  0.10319500  1
  O  O72  1  0.50000000  0.62761600  0.84538500  1
  O  O73  1  0.50000000  0.37238400  0.15461500  1
  O  O74  1  0.50000000  0.33884900  0.79106400  1
  O  O75  1  0.50000000  0.66115100  0.20893600  1
  O  O76  1  0.50000000  0.04697500  0.74229500  1
  O  O77  1  0.50000000  0.95302500  0.25770500  1
