# generated using pymatgen
data_K2Sb4S7
_symmetry_space_group_name_H-M   'P 1'
_cell_length_a   6.62572808
_cell_length_b   6.62572808
_cell_length_c   17.81284681
_cell_angle_alpha   86.73137492
_cell_angle_beta   86.73137492
_cell_angle_gamma   75.15584749
_symmetry_Int_Tables_number   1
_chemical_formula_structural   K2Sb4S7
_chemical_formula_sum   'K4 Sb8 S14'
_cell_volume   753.93217818
_cell_formula_units_Z   2
loop_
 _symmetry_equiv_pos_site_id
 _symmetry_equiv_pos_as_xyz
  1  'x, y, z'
loop_
 _atom_site_type_symbol
 _atom_site_label
 _atom_site_symmetry_multiplicity
 _atom_site_fract_x
 _atom_site_fract_y
 _atom_site_fract_z
 _atom_site_occupancy
  K  K0  1  0.21452100  0.44879900  0.20461900  1
  K  K1  1  0.55120100  0.78547900  0.29538100  1
  K  K2  1  0.78547900  0.55120100  0.79538100  1
  K  K3  1  0.44879900  0.21452100  0.70461900  1
  Sb  Sb4  1  0.63678500  0.69387100  0.03331700  1
  Sb  Sb5  1  0.69387100  0.63678500  0.53331700  1
  Sb  Sb6  1  0.36321500  0.30612900  0.96668300  1
  Sb  Sb7  1  0.30612900  0.36321500  0.46668300  1
  Sb  Sb8  1  0.11890400  0.86056400  0.61892000  1
  Sb  Sb9  1  0.13943600  0.88109600  0.88108000  1
  Sb  Sb10  1  0.88109600  0.13943600  0.38108000  1
  Sb  Sb11  1  0.86056400  0.11890400  0.11892000  1
  S  S12  1  0.51233000  0.26466200  0.34386600  1
  S  S13  1  0.52374800  0.02520500  0.12737000  1
  S  S14  1  0.48767000  0.73533800  0.65613400  1
  S  S15  1  0.26466200  0.51233000  0.84386600  1
  S  S16  1  0.99821400  0.00178600  0.75000000  1
  S  S17  1  0.00178600  0.99821400  0.25000000  1
  S  S18  1  0.02520500  0.52374800  0.62737000  1
  S  S19  1  0.47625200  0.97479500  0.87263000  1
  S  S20  1  0.97479500  0.47625200  0.37263000  1
  S  S21  1  0.31884300  0.72935800  0.46099300  1
  S  S22  1  0.72935800  0.31884300  0.96099300  1
  S  S23  1  0.68115700  0.27064200  0.53900700  1
  S  S24  1  0.73533800  0.48767000  0.15613400  1
  S  S25  1  0.27064200  0.68115700  0.03900700  1
