data_image0
_chemical_formula_structural       Hg4O4Pt4Se4
_chemical_formula_sum              "Hg4 O4 Pt4 Se4"
_cell_length_a       6.56969
_cell_length_b       9.16347
_cell_length_c       4.83442
_cell_angle_alpha    90
_cell_angle_beta     90
_cell_angle_gamma    90

_space_group_name_H-M_alt    "P 1"
_space_group_IT_number       1

loop_
  _space_group_symop_operation_xyz
  'x, y, z'

loop_
  _atom_site_type_symbol
  _atom_site_label
  _atom_site_symmetry_multiplicity
  _atom_site_fract_x
  _atom_site_fract_y
  _atom_site_fract_z
  _atom_site_occupancy
  Hg  Hg1       1.0  0.37500  0.08920  0.06770  1.0000
  Hg  Hg2       1.0  0.87500  0.91100  0.06770  1.0000
  Hg  Hg3       1.0  0.12500  0.08920  0.56800  1.0000
  Hg  Hg4       1.0  0.62500  0.91100  0.56800  1.0000
  O   O1        1.0  0.98700  0.14300  0.06000  1.0000
  O   O2        1.0  0.48700  0.85700  0.06000  1.0000
  O   O3        1.0  0.51300  0.14300  0.56000  1.0000
  O   O4        1.0  0.01270  0.85700  0.56000  1.0000
  Pt  Pt1       1.0  0.89400  0.35900  0.06120  1.0000
  Pt  Pt2       1.0  0.39400  0.64100  0.06120  1.0000
  Pt  Pt3       1.0  0.60600  0.35900  0.56100  1.0000
  Pt  Pt4       1.0  0.10600  0.64100  0.56100  1.0000
  Se  Se1       1.0  0.48600  0.37700  0.06100  1.0000
  Se  Se2       1.0  0.98600  0.62300  0.06100  1.0000
  Se  Se3       1.0  0.01350  0.37700  0.56100  1.0000
  Se  Se4       1.0  0.51400  0.62300  0.56100  1.0000
