data_image0
_chemical_formula_structural       Cu8O4Se4
_chemical_formula_sum              "Cu8 O4 Se4"
_cell_length_a       5.98534
_cell_length_b       3.1905
_cell_length_c       11.5477
_cell_angle_alpha    90
_cell_angle_beta     90
_cell_angle_gamma    90

_space_group_name_H-M_alt    "P 1"
_space_group_IT_number       1

loop_
  _space_group_symop_operation_xyz
  'x, y, z'

loop_
  _atom_site_type_symbol
  _atom_site_label
  _atom_site_symmetry_multiplicity
  _atom_site_fract_x
  _atom_site_fract_y
  _atom_site_fract_z
  _atom_site_occupancy
  Cu  Cu1       1.0  0.25100  0.75000  0.04750  1.0000
  Cu  Cu2       1.0  0.51800  0.25000  0.24900  1.0000
  Cu  Cu3       1.0  0.01760  0.25000  0.25100  1.0000
  Cu  Cu4       1.0  0.75100  0.75000  0.45300  1.0000
  Cu  Cu5       1.0  0.24900  0.25000  0.54700  1.0000
  Cu  Cu6       1.0  0.98200  0.75000  0.74900  1.0000
  Cu  Cu7       1.0  0.48200  0.75000  0.75100  1.0000
  Cu  Cu8       1.0  0.74900  0.25000  0.95300  1.0000
  O   O1        1.0  0.26600  0.25000  0.15100  1.0000
  O   O2        1.0  0.76600  0.25000  0.34900  1.0000
  O   O3        1.0  0.23400  0.75000  0.65100  1.0000
  O   O4        1.0  0.73400  0.75000  0.84900  1.0000
  Se  Se1       1.0  0.76600  0.75000  0.10600  1.0000
  Se  Se2       1.0  0.26600  0.75000  0.39400  1.0000
  Se  Se3       1.0  0.73400  0.25000  0.60600  1.0000
  Se  Se4       1.0  0.23400  0.25000  0.89400  1.0000
