data_image0
_chemical_formula_structural       Co2Gd2O2S2
_chemical_formula_sum              "Co2 Gd2 O2 S2"
_cell_length_a       3.92002
_cell_length_b       3.92002
_cell_length_c       12.2404
_cell_angle_alpha    80.7858
_cell_angle_beta     99.2142
_cell_angle_gamma    120

_space_group_name_H-M_alt    "P 1"
_space_group_IT_number       1

loop_
  _space_group_symop_operation_xyz
  'x, y, z'

loop_
  _atom_site_type_symbol
  _atom_site_label
  _atom_site_symmetry_multiplicity
  _atom_site_fract_x
  _atom_site_fract_y
  _atom_site_fract_z
  _atom_site_occupancy
  Co  Co1       1.0  0.35900  0.64100  0.07640  1.0000
  Co  Co2       1.0  0.64100  0.35900  0.92400  1.0000
  Gd  Gd1       1.0  0.75900  0.24100  0.27800  1.0000
  Gd  Gd2       1.0  0.24100  0.75900  0.72200  1.0000
  O   O1        1.0  0.69800  0.30200  0.09470  1.0000
  O   O2        1.0  0.30200  0.69800  0.90500  1.0000
  S   S1        1.0  0.12800  0.87200  0.38500  1.0000
  S   S2        1.0  0.87200  0.12800  0.61500  1.0000
