data_image0
_chemical_formula_structural       Dy2Np2O2P2
_chemical_formula_sum              "Dy2 Np2 O2 P2"
_cell_length_a       4.4157
_cell_length_b       4.4157
_cell_length_c       8.65454
_cell_angle_alpha    89.9997
_cell_angle_beta     89.9997
_cell_angle_gamma    90.002

_space_group_name_H-M_alt    "P 1"
_space_group_IT_number       1

loop_
  _space_group_symop_operation_xyz
  'x, y, z'

loop_
  _atom_site_type_symbol
  _atom_site_label
  _atom_site_symmetry_multiplicity
  _atom_site_fract_x
  _atom_site_fract_y
  _atom_site_fract_z
  _atom_site_occupancy
  Dy  Dy1       1.0  0.75000  0.25000  0.50000  1.0000
  Dy  Dy2       1.0  0.25000  0.75000  0.50000  1.0000
  Np  Np1       1.0  0.25000  0.25000  0.11400  1.0000
  Np  Np2       1.0  0.75000  0.75000  0.88600  1.0000
  O   O1        1.0  0.75000  0.25000  0.00000  1.0000
  O   O2        1.0  0.25000  0.75000  0.00000  1.0000
  P   P1        1.0  0.75000  0.75000  0.31000  1.0000
  P   P2        1.0  0.25000  0.25000  0.69000  1.0000
