data_image0
_chemical_formula_structural       O2Rb2Te2Ti2
_chemical_formula_sum              "O2 Rb2 Te2 Ti2"
_cell_length_a       4.32326
_cell_length_b       8.41614
_cell_length_c       6.72053
_cell_angle_alpha    90
_cell_angle_beta     90
_cell_angle_gamma    90

_space_group_name_H-M_alt    "P 1"
_space_group_IT_number       1

loop_
  _space_group_symop_operation_xyz
  'x, y, z'

loop_
  _atom_site_type_symbol
  _atom_site_label
  _atom_site_symmetry_multiplicity
  _atom_site_fract_x
  _atom_site_fract_y
  _atom_site_fract_z
  _atom_site_occupancy
  O   O1        1.0  0.50000  0.06330  0.24200  1.0000
  O   O2        1.0  0.50000  0.93700  0.74200  1.0000
  Rb  Rb1       1.0  0.00000  0.28900  0.11100  1.0000
  Rb  Rb2       1.0  0.00000  0.71100  0.61100  1.0000
  Te  Te1       1.0  0.00000  0.72600  0.10900  1.0000
  Te  Te2       1.0  0.00000  0.27400  0.60900  1.0000
  Ti  Ti1       1.0  0.50000  0.91500  0.02810  1.0000
  Ti  Ti2       1.0  0.50000  0.08490  0.52800  1.0000
