data_image0
_chemical_formula_structural       Ca2Ni2O2P2
_chemical_formula_sum              "Ca2 Ni2 O2 P2"
_cell_length_a       4.35384
_cell_length_b       4.35384
_cell_length_c       8.02269
_cell_angle_alpha    79.9278
_cell_angle_beta     79.9278
_cell_angle_gamma    90.1122

_space_group_name_H-M_alt    "P 1"
_space_group_IT_number       1

loop_
  _space_group_symop_operation_xyz
  'x, y, z'

loop_
  _atom_site_type_symbol
  _atom_site_label
  _atom_site_symmetry_multiplicity
  _atom_site_fract_x
  _atom_site_fract_y
  _atom_site_fract_z
  _atom_site_occupancy
  Ca  Ca1       1.0  0.74800  0.25200  0.50000  1.0000
  Ca  Ca2       1.0  0.25200  0.74800  0.50000  1.0000
  Ni  Ni1       1.0  0.74200  0.74200  0.01130  1.0000
  Ni  Ni2       1.0  0.25800  0.25800  0.98900  1.0000
  O   O1        1.0  0.74200  0.25800  0.00000  1.0000
  O   O2        1.0  0.25800  0.74200  0.00000  1.0000
  P   P1        1.0  0.82900  0.82900  0.28500  1.0000
  P   P2        1.0  0.17100  0.17100  0.71500  1.0000
