data_image0
_chemical_formula_structural       Hg4Ir4O4Se4
_chemical_formula_sum              "Hg4 Ir4 O4 Se4"
_cell_length_a       7.48152
_cell_length_b       6.75185
_cell_length_c       5.95551
_cell_angle_alpha    90
_cell_angle_beta     91.8824
_cell_angle_gamma    90

_space_group_name_H-M_alt    "P 1"
_space_group_IT_number       1

loop_
  _space_group_symop_operation_xyz
  'x, y, z'

loop_
  _atom_site_type_symbol
  _atom_site_label
  _atom_site_symmetry_multiplicity
  _atom_site_fract_x
  _atom_site_fract_y
  _atom_site_fract_z
  _atom_site_occupancy
  Hg  Hg1       1.0  0.93500  0.29600  0.02510  1.0000
  Hg  Hg2       1.0  0.06450  0.79600  0.47500  1.0000
  Hg  Hg3       1.0  0.93500  0.20400  0.52500  1.0000
  Hg  Hg4       1.0  0.06450  0.70400  0.97500  1.0000
  Ir  Ir1       1.0  0.51300  0.62700  0.23900  1.0000
  Ir  Ir2       1.0  0.48700  0.12700  0.26100  1.0000
  Ir  Ir3       1.0  0.51300  0.87300  0.73900  1.0000
  Ir  Ir4       1.0  0.48700  0.37300  0.76100  1.0000
  O   O1        1.0  0.60100  0.36900  0.10100  1.0000
  O   O2        1.0  0.39900  0.86900  0.39900  1.0000
  O   O3        1.0  0.60100  0.13100  0.60100  1.0000
  O   O4        1.0  0.39900  0.63100  0.89900  1.0000
  Se  Se1       1.0  0.69800  0.90000  0.07820  1.0000
  Se  Se2       1.0  0.30200  0.40000  0.42200  1.0000
  Se  Se3       1.0  0.69800  0.60000  0.57800  1.0000
  Se  Se4       1.0  0.30200  0.10000  0.92200  1.0000
