data_image0
_chemical_formula_structural       Ag4Ca2
_chemical_formula_sum              "Ag4 Ca2"
_cell_length_a       4.6615
_cell_length_b       5.95225
_cell_length_c       5.95225
_cell_angle_alpha    105.298
_cell_angle_beta     66.9475
_cell_angle_gamma    113.053

_space_group_name_H-M_alt    "P 1"
_space_group_IT_number       1

loop_
  _space_group_symop_operation_xyz
  'x, y, z'

loop_
  _atom_site_type_symbol
  _atom_site_label
  _atom_site_symmetry_multiplicity
  _atom_site_fract_x
  _atom_site_fract_y
  _atom_site_fract_z
  _atom_site_occupancy
  Ag  Ag1       1.0  0.33900  0.29000  0.11300  1.0000
  Ag  Ag2       1.0  0.66100  0.11300  0.29000  1.0000
  Ag  Ag3       1.0  0.33900  0.88700  0.71000  1.0000
  Ag  Ag4       1.0  0.66100  0.71000  0.88700  1.0000
  Ca  Ca1       1.0  0.95300  0.70300  0.29700  1.0000
  Ca  Ca2       1.0  0.04680  0.29700  0.70300  1.0000
