data_image0
_chemical_formula_structural       In2O2Rb2Te2
_chemical_formula_sum              "In2 O2 Rb2 Te2"
_cell_length_a       4.478
_cell_length_b       8.60126
_cell_length_c       6.88153
_cell_angle_alpha    90
_cell_angle_beta     90
_cell_angle_gamma    90

_space_group_name_H-M_alt    "P 1"
_space_group_IT_number       1

loop_
  _space_group_symop_operation_xyz
  'x, y, z'

loop_
  _atom_site_type_symbol
  _atom_site_label
  _atom_site_symmetry_multiplicity
  _atom_site_fract_x
  _atom_site_fract_y
  _atom_site_fract_z
  _atom_site_occupancy
  In  In1       1.0  0.50000  0.89700  0.03100  1.0000
  In  In2       1.0  0.50000  0.10300  0.53100  1.0000
  O   O1        1.0  0.50000  0.08330  0.22500  1.0000
  O   O2        1.0  0.50000  0.91700  0.72500  1.0000
  Rb  Rb1       1.0  0.00000  0.27100  0.11800  1.0000
  Rb  Rb2       1.0  0.00000  0.72900  0.61800  1.0000
  Te  Te1       1.0  0.00000  0.70600  0.11700  1.0000
  Te  Te2       1.0  0.00000  0.29400  0.61700  1.0000
