data_image0
_chemical_formula_structural       Ge2Se2U2
_chemical_formula_sum              "Ge2 Se2 U2"
_cell_length_a       3.94984
_cell_length_b       3.94984
_cell_length_c       8.74723
_cell_angle_alpha    103.049
_cell_angle_beta     103.049
_cell_angle_gamma    90

_space_group_name_H-M_alt    "P 1"
_space_group_IT_number       1

loop_
  _space_group_symop_operation_xyz
  'x, y, z'

loop_
  _atom_site_type_symbol
  _atom_site_label
  _atom_site_symmetry_multiplicity
  _atom_site_fract_x
  _atom_site_fract_y
  _atom_site_fract_z
  _atom_site_occupancy
  Ge  Ge1       1.0  0.50000  0.00000  0.00000  1.0000
  Ge  Ge2       1.0  0.00000  0.50000  0.00000  1.0000
  Se  Se1       1.0  0.68300  0.68300  0.36600  1.0000
  Se  Se2       1.0  0.31700  0.31700  0.63400  1.0000
  U   U1        1.0  0.13700  0.13700  0.27300  1.0000
  U   U2        1.0  0.86300  0.86300  0.72700  1.0000
