data_image0
_chemical_formula_structural       BiF5
_chemical_formula_sum              "Bi1 F5"
_cell_length_a       4.21704
_cell_length_b       4.71446
_cell_length_c       4.71446
_cell_angle_alpha    101.539
_cell_angle_beta     63.4329
_cell_angle_gamma    116.567

_space_group_name_H-M_alt    "P 1"
_space_group_IT_number       1

loop_
  _space_group_symop_operation_xyz
  'x, y, z'

loop_
  _atom_site_type_symbol
  _atom_site_label
  _atom_site_symmetry_multiplicity
  _atom_site_fract_x
  _atom_site_fract_y
  _atom_site_fract_z
  _atom_site_occupancy
  Bi  Bi1       1.0  0.00000  0.00000  0.00000  1.0000
  F   F1        1.0  0.10800  0.42300  0.20600  1.0000
  F   F2        1.0  0.68600  0.79400  0.42300  1.0000
  F   F3        1.0  0.31400  0.20600  0.57700  1.0000
  F   F4        1.0  0.89200  0.57700  0.79400  1.0000
  F   F5        1.0  0.50000  0.00000  0.00000  1.0000
