data_image0
_chemical_formula_structural       Hg4O4Pt4Te4
_chemical_formula_sum              "Hg4 O4 Pt4 Te4"
_cell_length_a       6.45199
_cell_length_b       8.38786
_cell_length_c       8.69313
_cell_angle_alpha    90
_cell_angle_beta     90
_cell_angle_gamma    90

_space_group_name_H-M_alt    "P 1"
_space_group_IT_number       1

loop_
  _space_group_symop_operation_xyz
  'x, y, z'

loop_
  _atom_site_type_symbol
  _atom_site_label
  _atom_site_symmetry_multiplicity
  _atom_site_fract_x
  _atom_site_fract_y
  _atom_site_fract_z
  _atom_site_occupancy
  Hg  Hg1       1.0  0.10100  0.20300  0.04500  1.0000
  Hg  Hg2       1.0  0.89900  0.70300  0.45500  1.0000
  Hg  Hg3       1.0  0.39900  0.79700  0.54500  1.0000
  Hg  Hg4       1.0  0.60100  0.29700  0.95500  1.0000
  O   O1        1.0  0.50300  0.13500  0.12700  1.0000
  O   O2        1.0  0.49700  0.63500  0.37300  1.0000
  O   O3        1.0  0.99700  0.86500  0.62700  1.0000
  O   O4        1.0  0.00265  0.36500  0.87300  1.0000
  Pt  Pt1       1.0  0.25100  0.72700  0.01770  1.0000
  Pt  Pt2       1.0  0.74900  0.22700  0.48200  1.0000
  Pt  Pt3       1.0  0.24900  0.27300  0.51800  1.0000
  Pt  Pt4       1.0  0.75100  0.77300  0.98200  1.0000
  Te  Te1       1.0  0.99800  0.87700  0.17000  1.0000
  Te  Te2       1.0  0.00223  0.37700  0.33000  1.0000
  Te  Te3       1.0  0.50200  0.12300  0.67000  1.0000
  Te  Te4       1.0  0.49800  0.62300  0.83000  1.0000
