data_image0
_chemical_formula_structural       Al2Te4Zn
_chemical_formula_sum              "Al2 Te4 Zn1"
_cell_length_a       6.07655
_cell_length_b       6.07655
_cell_length_c       7.35728
_cell_angle_alpha    114.391
_cell_angle_beta     114.391
_cell_angle_gamma    90

_space_group_name_H-M_alt    "P 1"
_space_group_IT_number       1

loop_
  _space_group_symop_operation_xyz
  'x, y, z'

loop_
  _atom_site_type_symbol
  _atom_site_label
  _atom_site_symmetry_multiplicity
  _atom_site_fract_x
  _atom_site_fract_y
  _atom_site_fract_z
  _atom_site_occupancy
  Al  Al1       1.0  0.50000  0.50000  0.00000  1.0000
  Al  Al2       1.0  0.25000  0.75000  0.50000  1.0000
  Te  Te1       1.0  0.39800  0.37300  0.26700  1.0000
  Te  Te2       1.0  0.86800  0.89400  0.26700  1.0000
  Te  Te3       1.0  0.62700  0.13200  0.73300  1.0000
  Te  Te4       1.0  0.10600  0.60200  0.73300  1.0000
  Zn  Zn1       1.0  0.00000  0.00000  0.00000  1.0000
