data_image0
_chemical_formula_structural       Ca2Li2O2P2
_chemical_formula_sum              "Ca2 Li2 O2 P2"
_cell_length_a       4.64158
_cell_length_b       4.64158
_cell_length_c       6.72911
_cell_angle_alpha    90.0039
_cell_angle_beta     90.0039
_cell_angle_gamma    90.0001

_space_group_name_H-M_alt    "P 1"
_space_group_IT_number       1

loop_
  _space_group_symop_operation_xyz
  'x, y, z'

loop_
  _atom_site_type_symbol
  _atom_site_label
  _atom_site_symmetry_multiplicity
  _atom_site_fract_x
  _atom_site_fract_y
  _atom_site_fract_z
  _atom_site_occupancy
  Ca  Ca1       1.0  0.75000  0.25000  0.50000  1.0000
  Ca  Ca2       1.0  0.25000  0.75000  0.50000  1.0000
  Li  Li1       1.0  0.25000  0.25000  0.06080  1.0000
  Li  Li2       1.0  0.75000  0.75000  0.93900  1.0000
  O   O1        1.0  0.75000  0.25000  0.00000  1.0000
  O   O2        1.0  0.25000  0.75000  0.00000  1.0000
  P   P1        1.0  0.75000  0.75000  0.29000  1.0000
  P   P2        1.0  0.25000  0.25000  0.71000  1.0000
