data_image0
_chemical_formula_structural       Hg2Mn2O2P2
_chemical_formula_sum              "Hg2 Mn2 O2 P2"
_cell_length_a       4.14745
_cell_length_b       4.14745
_cell_length_c       9.24572
_cell_angle_alpha    90
_cell_angle_beta     90
_cell_angle_gamma    90

_space_group_name_H-M_alt    "P 1"
_space_group_IT_number       1

loop_
  _space_group_symop_operation_xyz
  'x, y, z'

loop_
  _atom_site_type_symbol
  _atom_site_label
  _atom_site_symmetry_multiplicity
  _atom_site_fract_x
  _atom_site_fract_y
  _atom_site_fract_z
  _atom_site_occupancy
  Hg  Hg1       1.0  0.75000  0.25000  0.50000  1.0000
  Hg  Hg2       1.0  0.25000  0.75000  0.50000  1.0000
  Mn  Mn1       1.0  0.75000  0.75000  0.04170  1.0000
  Mn  Mn2       1.0  0.25000  0.25000  0.95800  1.0000
  O   O1        1.0  0.75000  0.25000  0.00000  1.0000
  O   O2        1.0  0.25000  0.75000  0.00000  1.0000
  P   P1        1.0  0.75000  0.75000  0.32200  1.0000
  P   P2        1.0  0.25000  0.25000  0.67800  1.0000
