data_image0
_chemical_formula_structural       Bi2La4
_chemical_formula_sum              "Bi2 La4"
_cell_length_a       4.69796
_cell_length_b       4.69796
_cell_length_c       9.8369
_cell_angle_alpha    103.815
_cell_angle_beta     103.815
_cell_angle_gamma    90

_space_group_name_H-M_alt    "P 1"
_space_group_IT_number       1

loop_
  _space_group_symop_operation_xyz
  'x, y, z'

loop_
  _atom_site_type_symbol
  _atom_site_label
  _atom_site_symmetry_multiplicity
  _atom_site_fract_x
  _atom_site_fract_y
  _atom_site_fract_z
  _atom_site_occupancy
  Bi  Bi1       1.0  0.13900  0.13900  0.27800  1.0000
  Bi  Bi2       1.0  0.86100  0.86100  0.72200  1.0000
  La  La1       1.0  0.50000  0.00000  0.00000  1.0000
  La  La2       1.0  0.00000  0.50000  0.00000  1.0000
  La  La3       1.0  0.67900  0.67900  0.35700  1.0000
  La  La4       1.0  0.32100  0.32100  0.64300  1.0000
