data_image0
_chemical_formula_structural       Nb2O2P2Zn2
_chemical_formula_sum              "Nb2 O2 P2 Zn2"
_cell_length_a       4.0606
_cell_length_b       4.0606
_cell_length_c       8.72914
_cell_angle_alpha    90
_cell_angle_beta     90
_cell_angle_gamma    90

_space_group_name_H-M_alt    "P 1"
_space_group_IT_number       1

loop_
  _space_group_symop_operation_xyz
  'x, y, z'

loop_
  _atom_site_type_symbol
  _atom_site_label
  _atom_site_symmetry_multiplicity
  _atom_site_fract_x
  _atom_site_fract_y
  _atom_site_fract_z
  _atom_site_occupancy
  Nb  Nb1       1.0  0.50000  0.00000  0.50000  1.0000
  Nb  Nb2       1.0  0.00000  0.50000  0.50000  1.0000
  O   O1        1.0  0.50000  0.00000  0.00000  1.0000
  O   O2        1.0  0.00000  0.50000  0.00000  1.0000
  P   P1        1.0  0.50000  0.50000  0.33500  1.0000
  P   P2        1.0  0.00000  0.00000  0.66500  1.0000
  Zn  Zn1       1.0  0.50000  0.50000  0.04140  1.0000
  Zn  Zn2       1.0  0.00000  0.00000  0.95900  1.0000
