data_image0
_chemical_formula_structural       O2Os2P2Pr2
_chemical_formula_sum              "O2 Os2 P2 Pr2"
_cell_length_a       4.0541
_cell_length_b       4.0541
_cell_length_c       8.29594
_cell_angle_alpha    90
_cell_angle_beta     90
_cell_angle_gamma    90

_space_group_name_H-M_alt    "P 1"
_space_group_IT_number       1

loop_
  _space_group_symop_operation_xyz
  'x, y, z'

loop_
  _atom_site_type_symbol
  _atom_site_label
  _atom_site_symmetry_multiplicity
  _atom_site_fract_x
  _atom_site_fract_y
  _atom_site_fract_z
  _atom_site_occupancy
  O   O1        1.0  0.75000  0.25000  0.00000  1.0000
  O   O2        1.0  0.25000  0.75000  0.00000  1.0000
  Os  Os1       1.0  0.75000  0.25000  0.50000  1.0000
  Os  Os2       1.0  0.25000  0.75000  0.50000  1.0000
  P   P1        1.0  0.75000  0.75000  0.35500  1.0000
  P   P2        1.0  0.25000  0.25000  0.64500  1.0000
  Pr  Pr1       1.0  0.25000  0.25000  0.14500  1.0000
  Pr  Pr2       1.0  0.75000  0.75000  0.85500  1.0000
