data_image0
_chemical_formula_structural       O2P2Pt2Sn2
_chemical_formula_sum              "O2 P2 Pt2 Sn2"
_cell_length_a       3.96648
_cell_length_b       3.96648
_cell_length_c       9.53901
_cell_angle_alpha    90
_cell_angle_beta     90
_cell_angle_gamma    90

_space_group_name_H-M_alt    "P 1"
_space_group_IT_number       1

loop_
  _space_group_symop_operation_xyz
  'x, y, z'

loop_
  _atom_site_type_symbol
  _atom_site_label
  _atom_site_symmetry_multiplicity
  _atom_site_fract_x
  _atom_site_fract_y
  _atom_site_fract_z
  _atom_site_occupancy
  O   O1        1.0  0.50000  0.00000  0.00000  1.0000
  O   O2        1.0  0.00000  0.50000  0.00000  1.0000
  P   P1        1.0  0.50000  0.50000  0.35900  1.0000
  P   P2        1.0  0.00000  0.00000  0.64100  1.0000
  Pt  Pt1       1.0  0.50000  0.00000  0.50000  1.0000
  Pt  Pt2       1.0  0.00000  0.50000  0.50000  1.0000
  Sn  Sn1       1.0  0.00000  0.00000  0.11800  1.0000
  Sn  Sn2       1.0  0.50000  0.50000  0.88200  1.0000
