data_image0
_chemical_formula_structural       O2P2Pb2Si2
_chemical_formula_sum              "O2 P2 Pb2 Si2"
_cell_length_a       7.89688
_cell_length_b       7.89688
_cell_length_c       3.51316
_cell_angle_alpha    90.9215
_cell_angle_beta     90.9215
_cell_angle_gamma    43.5973

_space_group_name_H-M_alt    "P 1"
_space_group_IT_number       1

loop_
  _space_group_symop_operation_xyz
  'x, y, z'

loop_
  _atom_site_type_symbol
  _atom_site_label
  _atom_site_symmetry_multiplicity
  _atom_site_fract_x
  _atom_site_fract_y
  _atom_site_fract_z
  _atom_site_occupancy
  O   O1        1.0  0.63600  0.13700  0.99500  1.0000
  O   O2        1.0  0.13700  0.63600  0.99500  1.0000
  P   P1        1.0  0.73300  0.73300  0.48300  1.0000
  P   P2        1.0  0.23300  0.23300  0.48500  1.0000
  Pb  Pb1       1.0  0.80400  0.30400  0.53100  1.0000
  Pb  Pb2       1.0  0.30400  0.80400  0.53100  1.0000
  Si  Si1       1.0  0.82600  0.82600  0.98800  1.0000
  Si  Si2       1.0  0.32600  0.32600  0.99100  1.0000
