data_image0
_chemical_formula_structural       H12I8MgO6
_chemical_formula_sum              "H12 I8 Mg1 O6"
_cell_length_a       8.82768
_cell_length_b       9.53282
_cell_length_c       7.45143
_cell_angle_alpha    114.154
_cell_angle_beta     102.623
_cell_angle_gamma    105.658

_space_group_name_H-M_alt    "P 1"
_space_group_IT_number       1

loop_
  _space_group_symop_operation_xyz
  'x, y, z'

loop_
  _atom_site_type_symbol
  _atom_site_label
  _atom_site_symmetry_multiplicity
  _atom_site_fract_x
  _atom_site_fract_y
  _atom_site_fract_z
  _atom_site_occupancy
  H   H1        1.0  0.23400  0.86000  0.00764  1.0000
  H   H2        1.0  0.18900  0.32600  0.12000  1.0000
  H   H3        1.0  0.31700  0.24000  0.14600  1.0000
  H   H4        1.0  0.23900  0.95100  0.24300  1.0000
  H   H5        1.0  0.89300  0.04090  0.32600  1.0000
  H   H6        1.0  0.06140  0.20600  0.42100  1.0000
  H   H7        1.0  0.93900  0.79400  0.57900  1.0000
  H   H8        1.0  0.10700  0.95900  0.67400  1.0000
  H   H9        1.0  0.76100  0.04870  0.75700  1.0000
  H   H10       1.0  0.68300  0.76000  0.85400  1.0000
  H   H11       1.0  0.81100  0.67400  0.88000  1.0000
  H   H12       1.0  0.76600  0.14000  0.99200  1.0000
  I   I1        1.0  0.10600  0.57200  0.21500  1.0000
  I   I2        1.0  0.64000  0.25700  0.28500  1.0000
  I   I3        1.0  0.63700  0.57400  0.30400  1.0000
  I   I4        1.0  0.62200  0.88500  0.34300  1.0000
  I   I5        1.0  0.37800  0.11500  0.65700  1.0000
  I   I6        1.0  0.36300  0.42600  0.69600  1.0000
  I   I7        1.0  0.36000  0.74300  0.71500  1.0000
  I   I8        1.0  0.89400  0.42800  0.78500  1.0000
  Mg  Mg1       1.0  0.00000  0.00000  0.00000  1.0000
  O   O1        1.0  0.19700  0.21800  0.08450  1.0000
  O   O2        1.0  0.17700  0.91500  0.09490  1.0000
  O   O3        1.0  0.98600  0.09790  0.29400  1.0000
  O   O4        1.0  0.01410  0.90200  0.70600  1.0000
  O   O5        1.0  0.82300  0.08450  0.90500  1.0000
  O   O6        1.0  0.80300  0.78200  0.91500  1.0000
