data_image0
_chemical_formula_structural       In2O2P2Rh2
_chemical_formula_sum              "In2 O2 P2 Rh2"
_cell_length_a       4.13893
_cell_length_b       4.13893
_cell_length_c       9.00696
_cell_angle_alpha    90
_cell_angle_beta     90
_cell_angle_gamma    90

_space_group_name_H-M_alt    "P 1"
_space_group_IT_number       1

loop_
  _space_group_symop_operation_xyz
  'x, y, z'

loop_
  _atom_site_type_symbol
  _atom_site_label
  _atom_site_symmetry_multiplicity
  _atom_site_fract_x
  _atom_site_fract_y
  _atom_site_fract_z
  _atom_site_occupancy
  In  In1       1.0  0.50000  0.00000  0.50000  1.0000
  In  In2       1.0  0.00000  0.50000  0.50000  1.0000
  O   O1        1.0  0.50000  0.00000  0.00000  1.0000
  O   O2        1.0  0.00000  0.50000  0.00000  1.0000
  P   P1        1.0  0.50000  0.50000  0.30000  1.0000
  P   P2        1.0  0.00000  0.00000  0.70000  1.0000
  Rh  Rh1       1.0  0.50000  0.50000  0.05630  1.0000
  Rh  Rh2       1.0  0.00000  0.00000  0.94400  1.0000
