data_image0
_chemical_formula_structural       CdCl4Cs2
_chemical_formula_sum              "Cd1 Cl4 Cs2"
_cell_length_a       5.30742
_cell_length_b       5.30742
_cell_length_c       9.2551
_cell_angle_alpha    106.662
_cell_angle_beta     106.662
_cell_angle_gamma    90

_space_group_name_H-M_alt    "P 1"
_space_group_IT_number       1

loop_
  _space_group_symop_operation_xyz
  'x, y, z'

loop_
  _atom_site_type_symbol
  _atom_site_label
  _atom_site_symmetry_multiplicity
  _atom_site_fract_x
  _atom_site_fract_y
  _atom_site_fract_z
  _atom_site_occupancy
  Cd  Cd1       1.0  0.00000  0.00000  0.00000  1.0000
  Cl  Cl1       1.0  0.50000  0.00000  0.00000  1.0000
  Cl  Cl2       1.0  0.00000  0.50000  0.00000  1.0000
  Cl  Cl3       1.0  0.15400  0.15400  0.30900  1.0000
  Cl  Cl4       1.0  0.84600  0.84600  0.69100  1.0000
  Cs  Cs1       1.0  0.64300  0.64300  0.28500  1.0000
  Cs  Cs2       1.0  0.35700  0.35700  0.71500  1.0000
