data_image0
_chemical_formula_structural       As4Ta2
_chemical_formula_sum              "As4 Ta2"
_cell_length_a       3.41364
_cell_length_b       5.02396
_cell_length_c       7.06279
_cell_angle_alpha    91.6892
_cell_angle_beta     103.985
_cell_angle_gamma    109.861

_space_group_name_H-M_alt    "P 1"
_space_group_IT_number       1

loop_
  _space_group_symop_operation_xyz
  'x, y, z'

loop_
  _atom_site_type_symbol
  _atom_site_label
  _atom_site_symmetry_multiplicity
  _atom_site_fract_x
  _atom_site_fract_y
  _atom_site_fract_z
  _atom_site_occupancy
  As  As1       1.0  0.70200  0.29700  0.10800  1.0000
  As  As2       1.0  0.61300  0.75300  0.47300  1.0000
  As  As3       1.0  0.38700  0.24700  0.52700  1.0000
  As  As4       1.0  0.29800  0.70300  0.89200  1.0000
  Ta  Ta1       1.0  0.03840  0.88100  0.19600  1.0000
  Ta  Ta2       1.0  0.96200  0.11900  0.80400  1.0000
