data_image0
_chemical_formula_structural       C3Cr2Tm2
_chemical_formula_sum              "C3 Cr2 Tm2"
_cell_length_a       3.31787
_cell_length_b       5.48459
_cell_length_c       5.47193
_cell_angle_alpha    105.535
_cell_angle_beta     107.648
_cell_angle_gamma    90

_space_group_name_H-M_alt    "P 1"
_space_group_IT_number       1

loop_
  _space_group_symop_operation_xyz
  'x, y, z'

loop_
  _atom_site_type_symbol
  _atom_site_label
  _atom_site_symmetry_multiplicity
  _atom_site_fract_x
  _atom_site_fract_y
  _atom_site_fract_z
  _atom_site_occupancy
  C   C1        1.0  0.00000  0.50000  0.00000  1.0000
  C   C2        1.0  0.71900  0.26600  0.43700  1.0000
  C   C3        1.0  0.28100  0.73400  0.56300  1.0000
  Cr  Cr1       1.0  0.15500  0.38600  0.31100  1.0000
  Cr  Cr2       1.0  0.84500  0.61400  0.68900  1.0000
  Tm  Tm1       1.0  0.60800  0.81600  0.21600  1.0000
  Tm  Tm2       1.0  0.39200  0.18400  0.78400  1.0000
