data_image0
_chemical_formula_structural       Dy2O2P2Tl2
_chemical_formula_sum              "Dy2 O2 P2 Tl2"
_cell_length_a       4.14835
_cell_length_b       4.14835
_cell_length_c       9.43039
_cell_angle_alpha    90
_cell_angle_beta     90
_cell_angle_gamma    90

_space_group_name_H-M_alt    "P 1"
_space_group_IT_number       1

loop_
  _space_group_symop_operation_xyz
  'x, y, z'

loop_
  _atom_site_type_symbol
  _atom_site_label
  _atom_site_symmetry_multiplicity
  _atom_site_fract_x
  _atom_site_fract_y
  _atom_site_fract_z
  _atom_site_occupancy
  Dy  Dy1       1.0  0.25000  0.25000  0.10500  1.0000
  Dy  Dy2       1.0  0.75000  0.75000  0.89500  1.0000
  O   O1        1.0  0.75000  0.25000  0.00000  1.0000
  O   O2        1.0  0.25000  0.75000  0.00000  1.0000
  P   P1        1.0  0.75000  0.75000  0.27600  1.0000
  P   P2        1.0  0.25000  0.25000  0.72400  1.0000
  Tl  Tl1       1.0  0.75000  0.25000  0.50000  1.0000
  Tl  Tl2       1.0  0.25000  0.75000  0.50000  1.0000
