data_image0
_chemical_formula_structural       N2O2Ru2Sm2
_chemical_formula_sum              "N2 O2 Ru2 Sm2"
_cell_length_a       3.78719
_cell_length_b       3.78719
_cell_length_c       7.80043
_cell_angle_alpha    90
_cell_angle_beta     90
_cell_angle_gamma    90

_space_group_name_H-M_alt    "P 1"
_space_group_IT_number       1

loop_
  _space_group_symop_operation_xyz
  'x, y, z'

loop_
  _atom_site_type_symbol
  _atom_site_label
  _atom_site_symmetry_multiplicity
  _atom_site_fract_x
  _atom_site_fract_y
  _atom_site_fract_z
  _atom_site_occupancy
  N   N1        1.0  0.75000  0.75000  0.37600  1.0000
  N   N2        1.0  0.25000  0.25000  0.62400  1.0000
  O   O1        1.0  0.75000  0.25000  0.00000  1.0000
  O   O2        1.0  0.25000  0.75000  0.00000  1.0000
  Ru  Ru1       1.0  0.75000  0.25000  0.50000  1.0000
  Ru  Ru2       1.0  0.25000  0.75000  0.50000  1.0000
  Sm  Sm1       1.0  0.25000  0.25000  0.15700  1.0000
  Sm  Sm2       1.0  0.75000  0.75000  0.84300  1.0000
