data_image0
_chemical_formula_structural       Ba2N2O2Si2
_chemical_formula_sum              "Ba2 N2 O2 Si2"
_cell_length_a       3.72915
_cell_length_b       5.6458
_cell_length_c       5.98399
_cell_angle_alpha    90
_cell_angle_beta     90
_cell_angle_gamma    90

_space_group_name_H-M_alt    "P 1"
_space_group_IT_number       1

loop_
  _space_group_symop_operation_xyz
  'x, y, z'

loop_
  _atom_site_type_symbol
  _atom_site_label
  _atom_site_symmetry_multiplicity
  _atom_site_fract_x
  _atom_site_fract_y
  _atom_site_fract_z
  _atom_site_occupancy
  Ba  Ba1       1.0  0.50000  0.00108  0.22400  1.0000
  Ba  Ba2       1.0  0.50000  0.50100  0.77600  1.0000
  N   N1        1.0  0.00000  0.75200  0.49900  1.0000
  N   N2        1.0  0.00000  0.25200  0.50100  1.0000
  O   O1        1.0  0.50000  0.50000  0.22600  1.0000
  O   O2        1.0  0.50000  0.00042  0.77400  1.0000
  Si  Si1       1.0  0.00000  0.50100  0.33300  1.0000
  Si  Si2       1.0  0.00000  0.00078  0.66700  1.0000
