data_image0
_chemical_formula_structural       Ge2PdS3
_chemical_formula_sum              "Ge2 Pd1 S3"
_cell_length_a       7.68413
_cell_length_b       7.68413
_cell_length_c       7.68413
_cell_angle_alpha    153.467
_cell_angle_beta     145.817
_cell_angle_gamma    43.7865

_space_group_name_H-M_alt    "P 1"
_space_group_IT_number       1

loop_
  _space_group_symop_operation_xyz
  'x, y, z'

loop_
  _atom_site_type_symbol
  _atom_site_label
  _atom_site_symmetry_multiplicity
  _atom_site_fract_x
  _atom_site_fract_y
  _atom_site_fract_z
  _atom_site_occupancy
  Ge  Ge1       1.0  0.35000  0.35000  0.00000  1.0000
  Ge  Ge2       1.0  0.65000  0.65000  0.00000  1.0000
  Pd  Pd1       1.0  0.00000  0.00000  0.00000  1.0000
  S   S1        1.0  0.16700  0.16700  0.00000  1.0000
  S   S2        1.0  0.83300  0.83300  0.00000  1.0000
  S   S3        1.0  0.50000  0.00000  0.50000  1.0000
