data_image0
_chemical_formula_structural       N2O2Rb2Sn2
_chemical_formula_sum              "N2 O2 Rb2 Sn2"
_cell_length_a       3.44214
_cell_length_b       6.01363
_cell_length_c       7.80548
_cell_angle_alpha    90
_cell_angle_beta     90
_cell_angle_gamma    90

_space_group_name_H-M_alt    "P 1"
_space_group_IT_number       1

loop_
  _space_group_symop_operation_xyz
  'x, y, z'

loop_
  _atom_site_type_symbol
  _atom_site_label
  _atom_site_symmetry_multiplicity
  _atom_site_fract_x
  _atom_site_fract_y
  _atom_site_fract_z
  _atom_site_occupancy
  N   N1        1.0  0.00000  0.95000  0.28100  1.0000
  N   N2        1.0  0.00000  0.45000  0.71900  1.0000
  O   O1        1.0  0.50000  0.33300  0.08430  1.0000
  O   O2        1.0  0.50000  0.83300  0.91600  1.0000
  Rb  Rb1       1.0  0.00000  0.47300  0.34500  1.0000
  Rb  Rb2       1.0  0.00000  0.97300  0.65500  1.0000
  Sn  Sn1       1.0  0.50000  0.99800  0.14300  1.0000
  Sn  Sn2       1.0  0.50000  0.49800  0.85700  1.0000
