data_image0
_chemical_formula_structural       N2O2Pb2Sc2
_chemical_formula_sum              "N2 O2 Pb2 Sc2"
_cell_length_a       3.54305
_cell_length_b       5.63467
_cell_length_c       7.0366
_cell_angle_alpha    90
_cell_angle_beta     90
_cell_angle_gamma    90

_space_group_name_H-M_alt    "P 1"
_space_group_IT_number       1

loop_
  _space_group_symop_operation_xyz
  'x, y, z'

loop_
  _atom_site_type_symbol
  _atom_site_label
  _atom_site_symmetry_multiplicity
  _atom_site_fract_x
  _atom_site_fract_y
  _atom_site_fract_z
  _atom_site_occupancy
  N   N1        1.0  0.00000  0.87400  0.35700  1.0000
  N   N2        1.0  0.00000  0.37400  0.64300  1.0000
  O   O1        1.0  0.50000  0.39300  0.26500  1.0000
  O   O2        1.0  0.50000  0.89300  0.73500  1.0000
  Pb  Pb1       1.0  0.50000  0.98600  0.16500  1.0000
  Pb  Pb2       1.0  0.50000  0.48600  0.83500  1.0000
  Sc  Sc1       1.0  1.00000  0.50100  0.36800  1.0000
  Sc  Sc2       1.0  1.00000  0.00131  0.63200  1.0000
