data_image0
_chemical_formula_structural       Cs2N2O2Sm2
_chemical_formula_sum              "Cs2 N2 O2 Sm2"
_cell_length_a       4.05436
_cell_length_b       6.51805
_cell_length_c       7.96794
_cell_angle_alpha    90
_cell_angle_beta     90
_cell_angle_gamma    90

_space_group_name_H-M_alt    "P 1"
_space_group_IT_number       1

loop_
  _space_group_symop_operation_xyz
  'x, y, z'

loop_
  _atom_site_type_symbol
  _atom_site_label
  _atom_site_symmetry_multiplicity
  _atom_site_fract_x
  _atom_site_fract_y
  _atom_site_fract_z
  _atom_site_occupancy
  Cs  Cs1       1.0  0.00000  0.47900  0.33500  1.0000
  Cs  Cs2       1.0  0.00000  0.97900  0.66500  1.0000
  N   N1        1.0  0.00000  0.94200  0.28100  1.0000
  N   N2        1.0  0.00000  0.44200  0.71900  1.0000
  O   O1        1.0  0.50000  0.33200  0.09440  1.0000
  O   O2        1.0  0.50000  0.83200  0.90600  1.0000
  Sm  Sm1       1.0  0.50000  0.00143  0.14300  1.0000
  Sm  Sm2       1.0  0.50000  0.50100  0.85700  1.0000
