data_image0
_chemical_formula_structural       Bi4PdS7
_chemical_formula_sum              "Bi4 Pd1 S7"
_cell_length_a       8.13893
_cell_length_b       8.13893
_cell_length_c       11.0324
_cell_angle_alpha    130.592
_cell_angle_beta     130.592
_cell_angle_gamma    33.0142

_space_group_name_H-M_alt    "P 1"
_space_group_IT_number       1

loop_
  _space_group_symop_operation_xyz
  'x, y, z'

loop_
  _atom_site_type_symbol
  _atom_site_label
  _atom_site_symmetry_multiplicity
  _atom_site_fract_x
  _atom_site_fract_y
  _atom_site_fract_z
  _atom_site_occupancy
  Bi  Bi1       1.0  0.42100  0.42100  0.22800  1.0000
  Bi  Bi2       1.0  0.73100  0.73100  0.32300  1.0000
  Bi  Bi3       1.0  0.26900  0.26900  0.67700  1.0000
  Bi  Bi4       1.0  0.57900  0.57900  0.77200  1.0000
  Pd  Pd1       1.0  0.00000  0.00000  0.00000  1.0000
  S   S1        1.0  0.50000  0.50000  0.00000  1.0000
  S   S2        1.0  0.78100  0.78100  0.13600  1.0000
  S   S3        1.0  0.06690  0.06690  0.26900  1.0000
  S   S4        1.0  0.36600  0.36600  0.42900  1.0000
  S   S5        1.0  0.63400  0.63400  0.57100  1.0000
  S   S6        1.0  0.93300  0.93300  0.73100  1.0000
  S   S7        1.0  0.21900  0.21900  0.86400  1.0000
