data_image0
_chemical_formula_structural       O7PtSb4
_chemical_formula_sum              "O7 Pt1 Sb4"
_cell_length_a       6.74056
_cell_length_b       6.74056
_cell_length_c       9.30712
_cell_angle_alpha    128.784
_cell_angle_beta     128.784
_cell_angle_gamma    34.0869

_space_group_name_H-M_alt    "P 1"
_space_group_IT_number       1

loop_
  _space_group_symop_operation_xyz
  'x, y, z'

loop_
  _atom_site_type_symbol
  _atom_site_label
  _atom_site_symmetry_multiplicity
  _atom_site_fract_x
  _atom_site_fract_y
  _atom_site_fract_z
  _atom_site_occupancy
  O   O1        1.0  0.50000  0.50000  0.00000  1.0000
  O   O2        1.0  0.97900  0.97900  0.19700  1.0000
  O   O3        1.0  0.39300  0.39300  0.28800  1.0000
  O   O4        1.0  0.85300  0.85300  0.44500  1.0000
  O   O5        1.0  0.14700  0.14700  0.55500  1.0000
  O   O6        1.0  0.60700  0.60700  0.71200  1.0000
  O   O7        1.0  0.02130  0.02130  0.80300  1.0000
  Pt  Pt1       1.0  0.00000  0.00000  0.00000  1.0000
  Sb  Sb1       1.0  0.79900  0.79900  0.19200  1.0000
  Sb  Sb2       1.0  0.58100  0.58100  0.36100  1.0000
  Sb  Sb3       1.0  0.41900  0.41900  0.63900  1.0000
  Sb  Sb4       1.0  0.20100  0.20100  0.80800  1.0000
