data_image0
_chemical_formula_structural       PdS7Sb4
_chemical_formula_sum              "Pd1 S7 Sb4"
_cell_length_a       7.94261
_cell_length_b       7.94261
_cell_length_c       10.7046
_cell_angle_alpha    130.965
_cell_angle_beta     130.965
_cell_angle_gamma    34.314

_space_group_name_H-M_alt    "P 1"
_space_group_IT_number       1

loop_
  _space_group_symop_operation_xyz
  'x, y, z'

loop_
  _atom_site_type_symbol
  _atom_site_label
  _atom_site_symmetry_multiplicity
  _atom_site_fract_x
  _atom_site_fract_y
  _atom_site_fract_z
  _atom_site_occupancy
  Pd  Pd1       1.0  0.00000  0.00000  0.00000  1.0000
  S   S1        1.0  0.50000  0.50000  0.00000  1.0000
  S   S2        1.0  0.89800  0.89800  0.10000  1.0000
  S   S3        1.0  0.35800  0.35800  0.30900  1.0000
  S   S4        1.0  0.79600  0.79600  0.45000  1.0000
  S   S5        1.0  0.20400  0.20400  0.55000  1.0000
  S   S6        1.0  0.64200  0.64200  0.69100  1.0000
  S   S7        1.0  0.10200  0.10200  0.90000  1.0000
  Sb  Sb1       1.0  0.73200  0.73200  0.13400  1.0000
  Sb  Sb2       1.0  0.59000  0.59000  0.40500  1.0000
  Sb  Sb3       1.0  0.41000  0.41000  0.59500  1.0000
  Sb  Sb4       1.0  0.26800  0.26800  0.86600  1.0000
