data_image0
_chemical_formula_structural       Bi4O7Pt
_chemical_formula_sum              "Bi4 O7 Pt1"
_cell_length_a       6.89637
_cell_length_b       6.89637
_cell_length_c       9.2177
_cell_angle_alpha    130.393
_cell_angle_beta     130.393
_cell_angle_gamma    33.8623

_space_group_name_H-M_alt    "P 1"
_space_group_IT_number       1

loop_
  _space_group_symop_operation_xyz
  'x, y, z'

loop_
  _atom_site_type_symbol
  _atom_site_label
  _atom_site_symmetry_multiplicity
  _atom_site_fract_x
  _atom_site_fract_y
  _atom_site_fract_z
  _atom_site_occupancy
  Bi  Bi1       1.0  0.74900  0.74900  0.16100  1.0000
  Bi  Bi2       1.0  0.58200  0.58200  0.38900  1.0000
  Bi  Bi3       1.0  0.41800  0.41800  0.61100  1.0000
  Bi  Bi4       1.0  0.25100  0.25100  0.83900  1.0000
  O   O1        1.0  0.50000  0.50000  0.00000  1.0000
  O   O2        1.0  0.91300  0.91300  0.11900  1.0000
  O   O3        1.0  0.37000  0.37000  0.31900  1.0000
  O   O4        1.0  0.80100  0.80100  0.44700  1.0000
  O   O5        1.0  0.19900  0.19900  0.55300  1.0000
  O   O6        1.0  0.63000  0.63000  0.68100  1.0000
  O   O7        1.0  0.08710  0.08710  0.88100  1.0000
  Pt  Pt1       1.0  0.00000  0.00000  0.00000  1.0000
