data_image0
_chemical_formula_structural       Bi4PtS7
_chemical_formula_sum              "Bi4 Pt1 S7"
_cell_length_a       8.15069
_cell_length_b       8.15069
_cell_length_c       11.0815
_cell_angle_alpha    130.585
_cell_angle_beta     130.585
_cell_angle_gamma    32.8742

_space_group_name_H-M_alt    "P 1"
_space_group_IT_number       1

loop_
  _space_group_symop_operation_xyz
  'x, y, z'

loop_
  _atom_site_type_symbol
  _atom_site_label
  _atom_site_symmetry_multiplicity
  _atom_site_fract_x
  _atom_site_fract_y
  _atom_site_fract_z
  _atom_site_occupancy
  Bi  Bi1       1.0  0.42300  0.42300  0.23000  1.0000
  Bi  Bi2       1.0  0.73100  0.73100  0.32000  1.0000
  Bi  Bi3       1.0  0.26900  0.26900  0.68000  1.0000
  Bi  Bi4       1.0  0.57700  0.57700  0.77000  1.0000
  Pt  Pt1       1.0  0.00000  0.00000  0.00000  1.0000
  S   S1        1.0  0.50000  0.50000  0.00000  1.0000
  S   S2        1.0  0.78100  0.78100  0.13600  1.0000
  S   S3        1.0  0.06650  0.06650  0.26600  1.0000
  S   S4        1.0  0.36700  0.36700  0.43000  1.0000
  S   S5        1.0  0.63300  0.63300  0.57000  1.0000
  S   S6        1.0  0.93400  0.93400  0.73400  1.0000
  S   S7        1.0  0.21900  0.21900  0.86400  1.0000
