data_image0
_chemical_formula_structural       NiS7Sb4
_chemical_formula_sum              "Ni1 S7 Sb4"
_cell_length_a       8.38669
_cell_length_b       8.38669
_cell_length_c       11.6073
_cell_angle_alpha    132.416
_cell_angle_beta     132.416
_cell_angle_gamma    29.7812

_space_group_name_H-M_alt    "P 1"
_space_group_IT_number       1

loop_
  _space_group_symop_operation_xyz
  'x, y, z'

loop_
  _atom_site_type_symbol
  _atom_site_label
  _atom_site_symmetry_multiplicity
  _atom_site_fract_x
  _atom_site_fract_y
  _atom_site_fract_z
  _atom_site_occupancy
  Ni  Ni1       1.0  0.00000  0.00000  0.00000  1.0000
  S   S1        1.0  0.50000  0.50000  0.00000  1.0000
  S   S2        1.0  0.18900  0.18900  0.17400  1.0000
  S   S3        1.0  0.91300  0.91300  0.27900  1.0000
  S   S4        1.0  0.63700  0.63700  0.40000  1.0000
  S   S5        1.0  0.36300  0.36300  0.60000  1.0000
  S   S6        1.0  0.08650  0.08650  0.72100  1.0000
  S   S7        1.0  0.81100  0.81100  0.82600  1.0000
  Sb  Sb1       1.0  0.42400  0.42400  0.15900  1.0000
  Sb  Sb2       1.0  0.78300  0.78300  0.36600  1.0000
  Sb  Sb3       1.0  0.21700  0.21700  0.63400  1.0000
  Sb  Sb4       1.0  0.57600  0.57600  0.84100  1.0000
