data_image0
_chemical_formula_structural       Cs4N4O4Ta4
_chemical_formula_sum              "Cs4 N4 O4 Ta4"
_cell_length_a       6.19851
_cell_length_b       8.93255
_cell_length_c       5.97293
_cell_angle_alpha    90
_cell_angle_beta     90
_cell_angle_gamma    90

_space_group_name_H-M_alt    "P 1"
_space_group_IT_number       1

loop_
  _space_group_symop_operation_xyz
  'x, y, z'

loop_
  _atom_site_type_symbol
  _atom_site_label
  _atom_site_symmetry_multiplicity
  _atom_site_fract_x
  _atom_site_fract_y
  _atom_site_fract_z
  _atom_site_occupancy
  Cs  Cs1       1.0  0.54200  0.35700  0.01840  1.0000
  Cs  Cs2       1.0  0.04190  0.64300  0.01840  1.0000
  Cs  Cs3       1.0  0.95800  0.35700  0.51800  1.0000
  Cs  Cs4       1.0  0.45800  0.64300  0.51800  1.0000
  N   N1        1.0  0.38400  0.04870  0.16500  1.0000
  N   N2        1.0  0.88400  0.95100  0.16500  1.0000
  N   N3        1.0  0.11600  0.04870  0.66500  1.0000
  N   N4        1.0  0.61600  0.95100  0.66500  1.0000
  O   O1        1.0  0.02740  0.28000  0.01830  1.0000
  O   O2        1.0  0.52700  0.72000  0.01830  1.0000
  O   O3        1.0  0.47300  0.28000  0.51800  1.0000
  O   O4        1.0  0.97300  0.72000  0.51800  1.0000
  Ta  Ta1       1.0  0.09980  0.07730  0.00034  1.0000
  Ta  Ta2       1.0  0.60000  0.92300  0.00034  1.0000
  Ta  Ta3       1.0  0.40000  0.07730  0.50000  1.0000
  Ta  Ta4       1.0  0.90000  0.92300  0.50000  1.0000
