data_image0
_chemical_formula_structural       PtS7Sb4
_chemical_formula_sum              "Pt1 S7 Sb4"
_cell_length_a       8.15127
_cell_length_b       8.15127
_cell_length_c       11.2352
_cell_angle_alpha    130.798
_cell_angle_beta     130.798
_cell_angle_gamma    32.4889

_space_group_name_H-M_alt    "P 1"
_space_group_IT_number       1

loop_
  _space_group_symop_operation_xyz
  'x, y, z'

loop_
  _atom_site_type_symbol
  _atom_site_label
  _atom_site_symmetry_multiplicity
  _atom_site_fract_x
  _atom_site_fract_y
  _atom_site_fract_z
  _atom_site_occupancy
  Pt  Pt1       1.0  0.00000  0.00000  0.00000  1.0000
  S   S1        1.0  0.50000  0.50000  0.00000  1.0000
  S   S2        1.0  0.20300  0.20300  0.17300  1.0000
  S   S3        1.0  0.92500  0.92500  0.29400  1.0000
  S   S4        1.0  0.63700  0.63700  0.41400  1.0000
  S   S5        1.0  0.36300  0.36300  0.58600  1.0000
  S   S6        1.0  0.07460  0.07460  0.70600  1.0000
  S   S7        1.0  0.79700  0.79700  0.82700  1.0000
  Sb  Sb1       1.0  0.42700  0.42700  0.17100  1.0000
  Sb  Sb2       1.0  0.78800  0.78800  0.36000  1.0000
  Sb  Sb3       1.0  0.21200  0.21200  0.64000  1.0000
  Sb  Sb4       1.0  0.57300  0.57300  0.82900  1.0000
