data_image0
_chemical_formula_structural       Ca2N2O2Tc2
_chemical_formula_sum              "Ca2 N2 O2 Tc2"
_cell_length_a       3.96569
_cell_length_b       5.44065
_cell_length_c       5.1173
_cell_angle_alpha    90
_cell_angle_beta     90
_cell_angle_gamma    90

_space_group_name_H-M_alt    "P 1"
_space_group_IT_number       1

loop_
  _space_group_symop_operation_xyz
  'x, y, z'

loop_
  _atom_site_type_symbol
  _atom_site_label
  _atom_site_symmetry_multiplicity
  _atom_site_fract_x
  _atom_site_fract_y
  _atom_site_fract_z
  _atom_site_occupancy
  Ca  Ca1       1.0  0.50000  0.02600  0.26600  1.0000
  Ca  Ca2       1.0  0.50000  0.52600  0.73400  1.0000
  N   N1        1.0  0.00000  0.75800  0.48600  1.0000
  N   N2        1.0  0.00000  0.25800  0.51400  1.0000
  O   O1        1.0  0.50000  0.47200  0.16800  1.0000
  O   O2        1.0  0.50000  0.97200  0.83200  1.0000
  Tc  Tc1       1.0  0.00000  0.49800  0.25500  1.0000
  Tc  Tc2       1.0  0.00000  0.99800  0.74500  1.0000
