data_image0
_chemical_formula_structural       Ag2Ho2Pb2
_chemical_formula_sum              "Ag2 Ho2 Pb2"
_cell_length_a       4.7892
_cell_length_b       4.78924
_cell_length_c       7.45765
_cell_angle_alpha    90
_cell_angle_beta     90
_cell_angle_gamma    120

_space_group_name_H-M_alt    "P 1"
_space_group_IT_number       1

loop_
  _space_group_symop_operation_xyz
  'x, y, z'

loop_
  _atom_site_type_symbol
  _atom_site_label
  _atom_site_symmetry_multiplicity
  _atom_site_fract_x
  _atom_site_fract_y
  _atom_site_fract_z
  _atom_site_occupancy
  Ag  Ag1       1.0  0.66700  0.33300  0.33300  1.0000
  Ag  Ag2       1.0  0.33300  0.66700  0.83300  1.0000
  Ho  Ho1       1.0  0.00000  0.00000  0.01240  1.0000
  Ho  Ho2       1.0  0.00000  0.00000  0.51200  1.0000
  Pb  Pb1       1.0  0.33300  0.66700  0.23500  1.0000
  Pb  Pb2       1.0  0.66700  0.33300  0.73500  1.0000
