data_image0
_chemical_formula_structural       Ga4Ho4Pd4
_chemical_formula_sum              "Ga4 Ho4 Pd4"
_cell_length_a       6.91384
_cell_length_b       4.46097
_cell_length_c       7.64402
_cell_angle_alpha    90
_cell_angle_beta     90
_cell_angle_gamma    90

_space_group_name_H-M_alt    "P 1"
_space_group_IT_number       1

loop_
  _space_group_symop_operation_xyz
  'x, y, z'

loop_
  _atom_site_type_symbol
  _atom_site_label
  _atom_site_symmetry_multiplicity
  _atom_site_fract_x
  _atom_site_fract_y
  _atom_site_fract_z
  _atom_site_occupancy
  Ga  Ga1       1.0  0.82500  0.25000  0.07480  1.0000
  Ga  Ga2       1.0  0.32500  0.25000  0.42500  1.0000
  Ga  Ga3       1.0  0.67500  0.75000  0.57500  1.0000
  Ga  Ga4       1.0  0.17500  0.75000  0.92500  1.0000
  Ho  Ho1       1.0  0.51800  0.75000  0.19700  1.0000
  Ho  Ho2       1.0  0.01830  0.75000  0.30300  1.0000
  Ho  Ho3       1.0  0.98200  0.25000  0.69700  1.0000
  Ho  Ho4       1.0  0.48200  0.25000  0.80300  1.0000
  Pd  Pd1       1.0  0.21900  0.25000  0.09790  1.0000
  Pd  Pd2       1.0  0.71900  0.25000  0.40200  1.0000
  Pd  Pd3       1.0  0.28100  0.75000  0.59800  1.0000
  Pd  Pd4       1.0  0.78100  0.75000  0.90200  1.0000
