data_image0
_chemical_formula_structural       Ba8O2P4
_chemical_formula_sum              "Ba8 O2 P4"
_cell_length_a       7.22301
_cell_length_b       7.56729
_cell_length_c       9.03075
_cell_angle_alpha    90
_cell_angle_beta     66.4273
_cell_angle_gamma    90

_space_group_name_H-M_alt    "P 1"
_space_group_IT_number       1

loop_
  _space_group_symop_operation_xyz
  'x, y, z'

loop_
  _atom_site_type_symbol
  _atom_site_label
  _atom_site_symmetry_multiplicity
  _atom_site_fract_x
  _atom_site_fract_y
  _atom_site_fract_z
  _atom_site_occupancy
  Ba  Ba1       1.0  0.23000  0.75000  0.04070  1.0000
  Ba  Ba2       1.0  0.73000  0.75000  0.04070  1.0000
  Ba  Ba3       1.0  0.82200  0.06830  0.35500  1.0000
  Ba  Ba4       1.0  0.32200  0.43200  0.35500  1.0000
  Ba  Ba5       1.0  0.67800  0.56800  0.64500  1.0000
  Ba  Ba6       1.0  0.17800  0.93200  0.64500  1.0000
  Ba  Ba7       1.0  0.27000  0.25000  0.95900  1.0000
  Ba  Ba8       1.0  0.77000  0.25000  0.95900  1.0000
  O   O1        1.0  0.00000  0.00000  0.00000  1.0000
  O   O2        1.0  0.50000  0.50000  0.00000  1.0000
  P   P1        1.0  0.36500  0.02380  0.26900  1.0000
  P   P2        1.0  0.86500  0.47600  0.26900  1.0000
  P   P3        1.0  0.13500  0.52400  0.73100  1.0000
  P   P4        1.0  0.63500  0.97600  0.73100  1.0000
