# generated using pymatgen
data_V2MoO8
_symmetry_space_group_name_H-M   'P 1'
_cell_length_a   9.94040242
_cell_length_b   9.94040242
_cell_length_c   3.90943493
_cell_angle_alpha   89.86700247
_cell_angle_beta   89.86700247
_cell_angle_gamma   21.89791917
_symmetry_Int_Tables_number   1
_chemical_formula_structural   V2MoO8
_chemical_formula_sum   'V2 Mo1 O8'
_cell_volume   144.07083624
_cell_formula_units_Z   1
loop_
 _symmetry_equiv_pos_site_id
 _symmetry_equiv_pos_as_xyz
  1  'x, y, z'
loop_
 _atom_site_type_symbol
 _atom_site_label
 _atom_site_symmetry_multiplicity
 _atom_site_fract_x
 _atom_site_fract_y
 _atom_site_fract_z
 _atom_site_occupancy
  V  V0  1  0.18978800  0.18978800  0.41173600  1
  V  V1  1  0.81021200  0.81021200  0.58826400  1
  Mo  Mo2  1  0.00000000  0.00000000  0.50000000  1
  O  O3  1  0.50000000  0.50000000  0.50000000  1
  O  O4  1  0.00000000  0.00000000  0.00000000  1
  O  O5  1  0.18860200  0.18860200  0.99374800  1
  O  O6  1  0.81139800  0.81139800  0.00625200  1
  O  O7  1  0.09867100  0.09867100  0.49454900  1
  O  O8  1  0.90132900  0.90132900  0.50545100  1
  O  O9  1  0.29085300  0.29085300  0.50760000  1
  O  O10  1  0.70914700  0.70914700  0.49240000  1
