# generated using pymatgen
data_Ca3SiO5
_symmetry_space_group_name_H-M   'P 1'
_cell_length_a   9.52731233
_cell_length_b   9.52731233
_cell_length_c   9.52731308
_cell_angle_alpha   43.68760911
_cell_angle_beta   43.68760911
_cell_angle_gamma   43.68760434
_symmetry_Int_Tables_number   1
_chemical_formula_structural   Ca3SiO5
_chemical_formula_sum   'Ca9 Si3 O15'
_cell_volume   374.50459062
_cell_formula_units_Z   3
loop_
 _symmetry_equiv_pos_site_id
 _symmetry_equiv_pos_as_xyz
  1  'x, y, z'
loop_
 _atom_site_type_symbol
 _atom_site_label
 _atom_site_symmetry_multiplicity
 _atom_site_fract_x
 _atom_site_fract_y
 _atom_site_fract_z
 _atom_site_occupancy
  Ca  Ca0  1  0.26236200  0.78682200  0.26236200  1
  Ca  Ca1  1  0.26236200  0.26236200  0.78682200  1
  Ca  Ca2  1  0.78682200  0.26236200  0.26236200  1
  Ca  Ca3  1  0.05805400  0.53207700  0.05805400  1
  Ca  Ca4  1  0.05805400  0.05805400  0.53207700  1
  Ca  Ca5  1  0.53207700  0.05805400  0.05805400  1
  Ca  Ca6  1  0.49500200  0.01950200  0.49500200  1
  Ca  Ca7  1  0.49500200  0.49500200  0.01950200  1
  Ca  Ca8  1  0.01950200  0.49500200  0.49500200  1
  Si  Si9  1  0.76795100  0.76795100  0.76795100  1
  Si  Si10  1  0.55526200  0.55526200  0.55526200  1
  Si  Si11  1  0.98906100  0.98906100  0.98906100  1
  O  O12  1  0.13587200  0.75380900  0.13587200  1
  O  O13  1  0.13587200  0.13587200  0.75380900  1
  O  O14  1  0.75380900  0.13587200  0.13587200  1
  O  O15  1  0.40703700  0.78440000  0.40703700  1
  O  O16  1  0.40703700  0.40703700  0.78440000  1
  O  O17  1  0.78440000  0.40703700  0.40703700  1
  O  O18  1  0.86975100  0.49434000  0.86975100  1
  O  O19  1  0.86975100  0.86975100  0.49434000  1
  O  O20  1  0.49434000  0.86975100  0.86975100  1
  O  O21  1  0.62044600  0.62044600  0.62044600  1
  O  O22  1  0.27476300  0.27476300  0.27476300  1
  O  O23  1  0.92571000  0.92571000  0.92571000  1
  O  O24  1  0.83084400  0.83084400  0.83084400  1
  O  O25  1  0.40196100  0.40196100  0.40196100  1
  O  O26  1  0.15039600  0.15039600  0.15039600  1
