data_image0
_chemical_formula_structural       OP2Sr4
_chemical_formula_sum              "O1 P2 Sr4"
_cell_length_a       4.82115
_cell_length_b       4.82115
_cell_length_c       8.67725
_cell_angle_alpha    106.129
_cell_angle_beta     106.129
_cell_angle_gamma    90

_space_group_name_H-M_alt    "P 1"
_space_group_IT_number       1

loop_
  _space_group_symop_operation_xyz
  'x, y, z'

loop_
  _atom_site_type_symbol
  _atom_site_label
  _atom_site_symmetry_multiplicity
  _atom_site_fract_x
  _atom_site_fract_y
  _atom_site_fract_z
  _atom_site_occupancy
  O   O1        1.0  0.50000  0.50000  0.00000  1.0000
  P   P1        1.0  0.13500  0.13500  0.27000  1.0000
  P   P2        1.0  0.86500  0.86500  0.73000  1.0000
  Sr  Sr1       1.0  0.50000  0.00000  0.00000  1.0000
  Sr  Sr2       1.0  0.00000  0.50000  0.00000  1.0000
  Sr  Sr3       1.0  0.67600  0.67600  0.35200  1.0000
  Sr  Sr4       1.0  0.32400  0.32400  0.64800  1.0000
