# generated using pymatgen
data_TbBr
_symmetry_space_group_name_H-M   'P 1'
_cell_length_a   11.00252166
_cell_length_b   11.00252166
_cell_length_c   11.00252105
_cell_angle_alpha   20.08944386
_cell_angle_beta   20.08944386
_cell_angle_gamma   20.08944656
_symmetry_Int_Tables_number   1
_chemical_formula_structural   TbBr
_chemical_formula_sum   'Tb2 Br2'
_cell_volume   137.48412663
_cell_formula_units_Z   2
loop_
 _symmetry_equiv_pos_site_id
 _symmetry_equiv_pos_as_xyz
  1  'x, y, z'
loop_
 _atom_site_type_symbol
 _atom_site_label
 _atom_site_symmetry_multiplicity
 _atom_site_fract_x
 _atom_site_fract_y
 _atom_site_fract_z
 _atom_site_occupancy
  Tb  Tb0  1  0.87654000  0.87654000  0.87654000  1
  Tb  Tb1  1  0.12346000  0.12346000  0.12346000  1
  Br  Br2  1  0.60266300  0.60266300  0.60266300  1
  Br  Br3  1  0.39733700  0.39733700  0.39733700  1
