data_image0
_chemical_formula_structural       Ga3Ir3Th3
_chemical_formula_sum              "Ga3 Ir3 Th3"
_cell_length_a       7.22893
_cell_length_b       7.22893
_cell_length_c       4.12327
_cell_angle_alpha    90
_cell_angle_beta     90
_cell_angle_gamma    120

_space_group_name_H-M_alt    "P 1"
_space_group_IT_number       1

loop_
  _space_group_symop_operation_xyz
  'x, y, z'

loop_
  _atom_site_type_symbol
  _atom_site_label
  _atom_site_symmetry_multiplicity
  _atom_site_fract_x
  _atom_site_fract_y
  _atom_site_fract_z
  _atom_site_occupancy
  Ga  Ga1       1.0  0.23400  0.00001  0.00000  1.0000
  Ga  Ga2       1.0  0.00001  0.23400  0.00000  1.0000
  Ga  Ga3       1.0  0.76600  0.76600  0.00000  1.0000
  Ir  Ir1       1.0  0.66700  0.33300  0.00000  1.0000
  Ir  Ir2       1.0  0.33300  0.66700  0.00000  1.0000
  Ir  Ir3       1.0  0.00001  0.00001  0.50000  1.0000
  Th  Th1       1.0  0.58400  0.00001  0.50000  1.0000
  Th  Th2       1.0  0.41600  0.41600  0.50000  1.0000
  Th  Th3       1.0  0.00001  0.58400  0.50000  1.0000
