data_image0
_chemical_formula_structural       Cr2NiS4
_chemical_formula_sum              "Cr2 Ni1 S4"
_cell_length_a       3.40056
_cell_length_b       5.89074
_cell_length_c       6.35567
_cell_angle_alpha    63.6522
_cell_angle_beta     105.517
_cell_angle_gamma    90

_space_group_name_H-M_alt    "P 1"
_space_group_IT_number       1

loop_
  _space_group_symop_operation_xyz
  'x, y, z'

loop_
  _atom_site_type_symbol
  _atom_site_label
  _atom_site_symmetry_multiplicity
  _atom_site_fract_x
  _atom_site_fract_y
  _atom_site_fract_z
  _atom_site_occupancy
  Cr  Cr1       1.0  0.23800  0.77900  0.47600  1.0000
  Cr  Cr2       1.0  0.76200  0.22100  0.52400  1.0000
  Ni  Ni1       1.0  0.50000  0.50000  0.00000  1.0000
  S   S1        1.0  0.62100  0.05000  0.24300  1.0000
  S   S2        1.0  0.13200  0.52700  0.26400  1.0000
  S   S3        1.0  0.86800  0.47300  0.73600  1.0000
  S   S4        1.0  0.37900  0.95000  0.75700  1.0000
