data_image0
_chemical_formula_structural       As2Ba4O
_chemical_formula_sum              "As2 Ba4 O1"
_cell_length_a       5.20304
_cell_length_b       5.20304
_cell_length_c       9.43397
_cell_angle_alpha    106.007
_cell_angle_beta     106.007
_cell_angle_gamma    90

_space_group_name_H-M_alt    "P 1"
_space_group_IT_number       1

loop_
  _space_group_symop_operation_xyz
  'x, y, z'

loop_
  _atom_site_type_symbol
  _atom_site_label
  _atom_site_symmetry_multiplicity
  _atom_site_fract_x
  _atom_site_fract_y
  _atom_site_fract_z
  _atom_site_occupancy
  As  As1       1.0  0.13600  0.13600  0.27200  1.0000
  As  As2       1.0  0.86400  0.86400  0.72800  1.0000
  Ba  Ba1       1.0  0.50000  0.00000  0.00000  1.0000
  Ba  Ba2       1.0  0.00000  0.50000  0.00000  1.0000
  Ba  Ba3       1.0  0.67600  0.67600  0.35200  1.0000
  Ba  Ba4       1.0  0.32400  0.32400  0.64800  1.0000
  O   O1        1.0  0.50000  0.50000  0.00000  1.0000
