data_image0
_chemical_formula_structural       Dy4Ir4Si4
_chemical_formula_sum              "Dy4 Ir4 Si4"
_cell_length_a       6.87305
_cell_length_b       4.24504
_cell_length_c       7.43073
_cell_angle_alpha    90
_cell_angle_beta     90
_cell_angle_gamma    90

_space_group_name_H-M_alt    "P 1"
_space_group_IT_number       1

loop_
  _space_group_symop_operation_xyz
  'x, y, z'

loop_
  _atom_site_type_symbol
  _atom_site_label
  _atom_site_symmetry_multiplicity
  _atom_site_fract_x
  _atom_site_fract_y
  _atom_site_fract_z
  _atom_site_occupancy
  Dy  Dy1       1.0  0.49900  0.75000  0.18700  1.0000
  Dy  Dy2       1.0  0.99900  0.75000  0.31300  1.0000
  Dy  Dy3       1.0  0.00073  0.25000  0.68700  1.0000
  Dy  Dy4       1.0  0.50100  0.25000  0.81300  1.0000
  Ir  Ir1       1.0  0.15700  0.25000  0.06860  1.0000
  Ir  Ir2       1.0  0.65700  0.25000  0.43100  1.0000
  Ir  Ir3       1.0  0.34300  0.75000  0.56900  1.0000
  Ir  Ir4       1.0  0.84300  0.75000  0.93100  1.0000
  Si  Si1       1.0  0.79900  0.25000  0.10900  1.0000
  Si  Si2       1.0  0.29900  0.25000  0.39100  1.0000
  Si  Si3       1.0  0.70100  0.75000  0.60900  1.0000
  Si  Si4       1.0  0.20100  0.75000  0.89100  1.0000
