data_image0
_chemical_formula_structural       Bi2PbTe4
_chemical_formula_sum              "Bi2 Pb1 Te4"
_cell_length_a       4.49873
_cell_length_b       4.49873
_cell_length_c       14.2771
_cell_angle_alpha    90
_cell_angle_beta     99.0647
_cell_angle_gamma    120

_space_group_name_H-M_alt    "P 1"
_space_group_IT_number       1

loop_
  _space_group_symop_operation_xyz
  'x, y, z'

loop_
  _atom_site_type_symbol
  _atom_site_label
  _atom_site_symmetry_multiplicity
  _atom_site_fract_x
  _atom_site_fract_y
  _atom_site_fract_z
  _atom_site_occupancy
  Bi  Bi1       1.0  0.85800  0.42900  0.28700  1.0000
  Bi  Bi2       1.0  0.14200  0.57100  0.71300  1.0000
  Pb  Pb1       1.0  0.00000  0.00000  0.00000  1.0000
  Te  Te1       1.0  0.42800  0.71400  0.14200  1.0000
  Te  Te2       1.0  0.27200  0.13600  0.40800  1.0000
  Te  Te3       1.0  0.72800  0.86400  0.59200  1.0000
  Te  Te4       1.0  0.57200  0.28600  0.85800  1.0000
