# generated using pymatgen
data_H2O2
_symmetry_space_group_name_H-M   'P 1'
_cell_length_a   4.14483900
_cell_length_b   4.14483900
_cell_length_c   7.70503800
_cell_angle_alpha   90.00000000
_cell_angle_beta   90.00000000
_cell_angle_gamma   90.00000000
_symmetry_Int_Tables_number   1
_chemical_formula_structural   H2O2
_chemical_formula_sum   'H8 O8'
_cell_volume   132.37016687
_cell_formula_units_Z   4
loop_
 _symmetry_equiv_pos_site_id
 _symmetry_equiv_pos_as_xyz
  1  'x, y, z'
loop_
 _atom_site_type_symbol
 _atom_site_label
 _atom_site_symmetry_multiplicity
 _atom_site_fract_x
 _atom_site_fract_y
 _atom_site_fract_z
 _atom_site_occupancy
  H  H0  1  0.69649300  0.07380000  0.37485300  1
  H  H1  1  0.30350700  0.92620000  0.87485300  1
  H  H2  1  0.07380000  0.69649300  0.62514700  1
  H  H3  1  0.57380000  0.80350700  0.12485300  1
  H  H4  1  0.42620000  0.19649300  0.62485300  1
  H  H5  1  0.80350700  0.57380000  0.87514700  1
  H  H6  1  0.19649300  0.42620000  0.37514700  1
  H  H7  1  0.92620000  0.30350700  0.12514700  1
  O  O8  1  0.81427900  0.94960100  0.28132500  1
  O  O9  1  0.18572100  0.05039900  0.78132500  1
  O  O10  1  0.94960100  0.81427900  0.71867500  1
  O  O11  1  0.44960100  0.68572100  0.03132500  1
  O  O12  1  0.55039900  0.31427900  0.53132500  1
  O  O13  1  0.68572100  0.44960100  0.96867500  1
  O  O14  1  0.31427900  0.55039900  0.46867500  1
  O  O15  1  0.05039900  0.18572100  0.21867500  1
