data_image0
_chemical_formula_structural       Dy4Ge4Ir4
_chemical_formula_sum              "Dy4 Ge4 Ir4"
_cell_length_a       6.88957
_cell_length_b       4.32017
_cell_length_c       7.61196
_cell_angle_alpha    90
_cell_angle_beta     90
_cell_angle_gamma    90

_space_group_name_H-M_alt    "P 1"
_space_group_IT_number       1

loop_
  _space_group_symop_operation_xyz
  'x, y, z'

loop_
  _atom_site_type_symbol
  _atom_site_label
  _atom_site_symmetry_multiplicity
  _atom_site_fract_x
  _atom_site_fract_y
  _atom_site_fract_z
  _atom_site_occupancy
  Dy  Dy1       1.0  0.49700  0.75000  0.19200  1.0000
  Dy  Dy2       1.0  0.99700  0.75000  0.30800  1.0000
  Dy  Dy3       1.0  0.00327  0.25000  0.69200  1.0000
  Dy  Dy4       1.0  0.50300  0.25000  0.80800  1.0000
  Ge  Ge1       1.0  0.79200  0.25000  0.11000  1.0000
  Ge  Ge2       1.0  0.29200  0.25000  0.39000  1.0000
  Ge  Ge3       1.0  0.70800  0.75000  0.61000  1.0000
  Ge  Ge4       1.0  0.20800  0.75000  0.89000  1.0000
  Ir  Ir1       1.0  0.16100  0.25000  0.06610  1.0000
  Ir  Ir2       1.0  0.66100  0.25000  0.43400  1.0000
  Ir  Ir3       1.0  0.33900  0.75000  0.56600  1.0000
  Ir  Ir4       1.0  0.83900  0.75000  0.93400  1.0000
