data_image0
_chemical_formula_structural       Hg2Ir2O2Te2
_chemical_formula_sum              "Hg2 Ir2 O2 Te2"
_cell_length_a       3.95887
_cell_length_b       7.93483
_cell_length_c       5.48412
_cell_angle_alpha    90
_cell_angle_beta     90
_cell_angle_gamma    90

_space_group_name_H-M_alt    "P 1"
_space_group_IT_number       1

loop_
  _space_group_symop_operation_xyz
  'x, y, z'

loop_
  _atom_site_type_symbol
  _atom_site_label
  _atom_site_symmetry_multiplicity
  _atom_site_fract_x
  _atom_site_fract_y
  _atom_site_fract_z
  _atom_site_occupancy
  Hg  Hg1       1.0  0.00000  0.41000  0.19300  1.0000
  Hg  Hg2       1.0  0.00000  0.59000  0.69300  1.0000
  Ir  Ir1       1.0  0.50000  0.00000  0.43300  1.0000
  Ir  Ir2       1.0  0.50000  0.00000  0.93300  1.0000
  O   O1        1.0  0.50000  0.18900  0.18300  1.0000
  O   O2        1.0  0.50000  0.81100  0.68300  1.0000
  Te  Te1       1.0  0.00000  0.83800  0.18300  1.0000
  Te  Te2       1.0  0.00000  0.16200  0.68300  1.0000
