data_image0
_chemical_formula_structural       K2O2Ru2Te2
_chemical_formula_sum              "K2 O2 Ru2 Te2"
_cell_length_a       4.14522
_cell_length_b       7.71296
_cell_length_c       6.76309
_cell_angle_alpha    90
_cell_angle_beta     90
_cell_angle_gamma    90

_space_group_name_H-M_alt    "P 1"
_space_group_IT_number       1

loop_
  _space_group_symop_operation_xyz
  'x, y, z'

loop_
  _atom_site_type_symbol
  _atom_site_label
  _atom_site_symmetry_multiplicity
  _atom_site_fract_x
  _atom_site_fract_y
  _atom_site_fract_z
  _atom_site_occupancy
  K   K1        1.0  0.00000  0.28900  0.12900  1.0000
  K   K2        1.0  0.00000  0.71100  0.62900  1.0000
  O   O1        1.0  0.50000  0.09030  0.22700  1.0000
  O   O2        1.0  0.50000  0.91000  0.72700  1.0000
  Ru  Ru1       1.0  0.50000  0.93100  0.01110  1.0000
  Ru  Ru2       1.0  0.50000  0.06880  0.51100  1.0000
  Te  Te1       1.0  0.00000  0.75500  0.12400  1.0000
  Te  Te2       1.0  0.00000  0.24500  0.62400  1.0000
