data_image0
_chemical_formula_structural       Cl2Rh2Te2
_chemical_formula_sum              "Cl2 Rh2 Te2"
_cell_length_a       3.71651
_cell_length_b       6.76105
_cell_length_c       6.89444
_cell_angle_alpha    117.287
_cell_angle_beta     105.636
_cell_angle_gamma    90

_space_group_name_H-M_alt    "P 1"
_space_group_IT_number       1

loop_
  _space_group_symop_operation_xyz
  'x, y, z'

loop_
  _atom_site_type_symbol
  _atom_site_label
  _atom_site_symmetry_multiplicity
  _atom_site_fract_x
  _atom_site_fract_y
  _atom_site_fract_z
  _atom_site_occupancy
  Cl  Cl1       1.0  0.63500  0.96600  0.27000  1.0000
  Cl  Cl2       1.0  0.36500  0.03440  0.73000  1.0000
  Rh  Rh1       1.0  0.74900  0.75300  0.49800  1.0000
  Rh  Rh2       1.0  0.25100  0.24700  0.50200  1.0000
  Te  Te1       1.0  0.13700  0.47000  0.27400  1.0000
  Te  Te2       1.0  0.86300  0.53000  0.72600  1.0000
