data_image0
_chemical_formula_structural       Cu2Ir2O2Te2
_chemical_formula_sum              "Cu2 Ir2 O2 Te2"
_cell_length_a       3.81093
_cell_length_b       6.22161
_cell_length_c       5.60149
_cell_angle_alpha    90
_cell_angle_beta     90
_cell_angle_gamma    90

_space_group_name_H-M_alt    "P 1"
_space_group_IT_number       1

loop_
  _space_group_symop_operation_xyz
  'x, y, z'

loop_
  _atom_site_type_symbol
  _atom_site_label
  _atom_site_symmetry_multiplicity
  _atom_site_fract_x
  _atom_site_fract_y
  _atom_site_fract_z
  _atom_site_occupancy
  Cu  Cu1       1.0  0.00000  0.37300  0.17700  1.0000
  Cu  Cu2       1.0  0.00000  0.62700  0.67700  1.0000
  Ir  Ir1       1.0  0.50000  0.00026  0.43900  1.0000
  Ir  Ir2       1.0  0.50000  0.00000  0.93900  1.0000
  O   O1        1.0  0.50000  0.25100  0.18800  1.0000
  O   O2        1.0  0.50000  0.74900  0.68800  1.0000
  Te  Te1       1.0  0.00000  0.78400  0.18700  1.0000
  Te  Te2       1.0  0.00000  0.21600  0.68700  1.0000
