data_image0
_chemical_formula_structural       Ag2Au2O2Te2
_chemical_formula_sum              "Ag2 Au2 O2 Te2"
_cell_length_a       3.65354
_cell_length_b       7.40003
_cell_length_c       5.91002
_cell_angle_alpha    90
_cell_angle_beta     90
_cell_angle_gamma    90

_space_group_name_H-M_alt    "P 1"
_space_group_IT_number       1

loop_
  _space_group_symop_operation_xyz
  'x, y, z'

loop_
  _atom_site_type_symbol
  _atom_site_label
  _atom_site_symmetry_multiplicity
  _atom_site_fract_x
  _atom_site_fract_y
  _atom_site_fract_z
  _atom_site_occupancy
  Ag  Ag1       1.0  0.00000  0.15700  0.21600  1.0000
  Ag  Ag2       1.0  0.00000  0.84300  0.71600  1.0000
  Au  Au1       1.0  0.50000  0.80900  0.09430  1.0000
  Au  Au2       1.0  0.50000  0.19100  0.59400  1.0000
  O   O1        1.0  0.50000  0.08190  0.00574  1.0000
  O   O2        1.0  0.50000  0.91800  0.50600  1.0000
  Te  Te1       1.0  0.00000  0.54600  0.17500  1.0000
  Te  Te2       1.0  0.00000  0.45400  0.67500  1.0000
