data_image0
_chemical_formula_structural       Co2Li2O2Te2
_chemical_formula_sum              "Co2 Li2 O2 Te2"
_cell_length_a       3.23811
_cell_length_b       6.80085
_cell_length_c       6.138
_cell_angle_alpha    90
_cell_angle_beta     90
_cell_angle_gamma    90

_space_group_name_H-M_alt    "P 1"
_space_group_IT_number       1

loop_
  _space_group_symop_operation_xyz
  'x, y, z'

loop_
  _atom_site_type_symbol
  _atom_site_label
  _atom_site_symmetry_multiplicity
  _atom_site_fract_x
  _atom_site_fract_y
  _atom_site_fract_z
  _atom_site_occupancy
  Co  Co1       1.0  0.50000  0.00014  0.43500  1.0000
  Co  Co2       1.0  0.50000  0.00000  0.93500  1.0000
  Li  Li1       1.0  0.00000  0.30000  0.18500  1.0000
  Li  Li2       1.0  0.00000  0.70000  0.68500  1.0000
  O   O1        1.0  0.50000  0.16000  0.18500  1.0000
  O   O2        1.0  0.50000  0.84000  0.68500  1.0000
  Te  Te1       1.0  0.00000  0.71600  0.18500  1.0000
  Te  Te2       1.0  0.00000  0.28400  0.68500  1.0000
