# generated using pymatgen
data_BaP10
_symmetry_space_group_name_H-M   'P 1'
_cell_length_a   7.25865157
_cell_length_b   7.25865157
_cell_length_c   12.14039500
_cell_angle_alpha   90.00000000
_cell_angle_beta   90.00000000
_cell_angle_gamma   126.84662751
_symmetry_Int_Tables_number   1
_chemical_formula_structural   BaP10
_chemical_formula_sum   'Ba2 P20'
_cell_volume   511.87855626
_cell_formula_units_Z   2
loop_
 _symmetry_equiv_pos_site_id
 _symmetry_equiv_pos_as_xyz
  1  'x, y, z'
loop_
 _atom_site_type_symbol
 _atom_site_label
 _atom_site_symmetry_multiplicity
 _atom_site_fract_x
 _atom_site_fract_y
 _atom_site_fract_z
 _atom_site_occupancy
  Ba  Ba0  1  0.18676500  0.81323500  0.50651200  1
  Ba  Ba1  1  0.81323500  0.18676500  0.00651200  1
  P  P2  1  0.77235400  0.72908600  0.31600800  1
  P  P3  1  0.22764600  0.27091400  0.81600800  1
  P  P4  1  0.61089500  0.38910500  0.60550000  1
  P  P5  1  0.38910500  0.61089500  0.10550000  1
  P  P6  1  0.93407400  0.06592600  0.55775800  1
  P  P7  1  0.06592600  0.93407400  0.05775800  1
  P  P8  1  0.59221300  0.40778700  0.78319600  1
  P  P9  1  0.40778700  0.59221300  0.28319600  1
  P  P10  1  0.18705500  0.81294500  0.92981300  1
  P  P11  1  0.81294500  0.18705500  0.42981300  1
  P  P12  1  0.09174300  0.90825700  0.77977100  1
  P  P13  1  0.90825700  0.09174300  0.27977100  1
  P  P14  1  0.44875400  0.55124600  0.56465300  1
  P  P15  1  0.55124600  0.44875400  0.06465300  1
  P  P16  1  0.62144100  0.86863100  0.66509000  1
  P  P17  1  0.37855900  0.13136900  0.16509000  1
  P  P18  1  0.13136900  0.37855900  0.66509000  1
  P  P19  1  0.86863100  0.62144100  0.16509000  1
  P  P20  1  0.72908600  0.77235400  0.81600800  1
  P  P21  1  0.27091400  0.22764600  0.31600800  1
