data_image0
_chemical_formula_structural       F2N2Th2
_chemical_formula_sum              "F2 N2 Th2"
_cell_length_a       7.10964
_cell_length_b       7.10964
_cell_length_c       7.10964
_cell_angle_alpha    32.53
_cell_angle_beta     32.53
_cell_angle_gamma    32.53

_space_group_name_H-M_alt    "P 1"
_space_group_IT_number       1

loop_
  _space_group_symop_operation_xyz
  'x, y, z'

loop_
  _atom_site_type_symbol
  _atom_site_label
  _atom_site_symmetry_multiplicity
  _atom_site_fract_x
  _atom_site_fract_y
  _atom_site_fract_z
  _atom_site_occupancy
  F   F1        1.0  0.13200  0.13200  0.13200  1.0000
  F   F2        1.0  0.86800  0.86800  0.86800  1.0000
  N   N1        1.0  0.37800  0.37800  0.37800  1.0000
  N   N2        1.0  0.62200  0.62200  0.62200  1.0000
  Th  Th1       1.0  0.26100  0.26100  0.26100  1.0000
  Th  Th2       1.0  0.73900  0.73900  0.73900  1.0000
