data_image0
_chemical_formula_structural       Ir4Si4U4
_chemical_formula_sum              "Ir4 Si4 U4"
_cell_length_a       6.70905
_cell_length_b       4.27126
_cell_length_c       7.50071
_cell_angle_alpha    90
_cell_angle_beta     90
_cell_angle_gamma    90

_space_group_name_H-M_alt    "P 1"
_space_group_IT_number       1

loop_
  _space_group_symop_operation_xyz
  'x, y, z'

loop_
  _atom_site_type_symbol
  _atom_site_label
  _atom_site_symmetry_multiplicity
  _atom_site_fract_x
  _atom_site_fract_y
  _atom_site_fract_z
  _atom_site_occupancy
  Ir  Ir1       1.0  0.28300  0.75000  0.08600  1.0000
  Ir  Ir2       1.0  0.78300  0.75000  0.41400  1.0000
  Ir  Ir3       1.0  0.21700  0.25000  0.58600  1.0000
  Ir  Ir4       1.0  0.71700  0.25000  0.91400  1.0000
  Si  Si1       1.0  0.68500  0.75000  0.08530  1.0000
  Si  Si2       1.0  0.18500  0.75000  0.41500  1.0000
  Si  Si3       1.0  0.81500  0.25000  0.58500  1.0000
  Si  Si4       1.0  0.31500  0.25000  0.91500  1.0000
  U   U1        1.0  0.99200  0.25000  0.20300  1.0000
  U   U2        1.0  0.49200  0.25000  0.29700  1.0000
  U   U3        1.0  0.50800  0.75000  0.70300  1.0000
  U   U4        1.0  0.00809  0.75000  0.79700  1.0000
