data_image0
_chemical_formula_structural       Ag8O4Se4
_chemical_formula_sum              "Ag8 O4 Se4"
_cell_length_a       6.40717
_cell_length_b       3.47829
_cell_length_c       12.5761
_cell_angle_alpha    90
_cell_angle_beta     90
_cell_angle_gamma    90

_space_group_name_H-M_alt    "P 1"
_space_group_IT_number       1

loop_
  _space_group_symop_operation_xyz
  'x, y, z'

loop_
  _atom_site_type_symbol
  _atom_site_label
  _atom_site_symmetry_multiplicity
  _atom_site_fract_x
  _atom_site_fract_y
  _atom_site_fract_z
  _atom_site_occupancy
  Ag  Ag1       1.0  0.25800  0.75000  0.03020  1.0000
  Ag  Ag2       1.0  0.02560  0.25000  0.25000  1.0000
  Ag  Ag3       1.0  0.52600  0.25000  0.25000  1.0000
  Ag  Ag4       1.0  0.75800  0.75000  0.47000  1.0000
  Ag  Ag5       1.0  0.24200  0.25000  0.53000  1.0000
  Ag  Ag6       1.0  0.47400  0.75000  0.75000  1.0000
  Ag  Ag7       1.0  0.97400  0.75000  0.75000  1.0000
  Ag  Ag8       1.0  0.74200  0.25000  0.97000  1.0000
  O   O1        1.0  0.27600  0.25000  0.13900  1.0000
  O   O2        1.0  0.77600  0.25000  0.36100  1.0000
  O   O3        1.0  0.22400  0.75000  0.63900  1.0000
  O   O4        1.0  0.72400  0.75000  0.86100  1.0000
  Se  Se1       1.0  0.77300  0.75000  0.11800  1.0000
  Se  Se2       1.0  0.27300  0.75000  0.38200  1.0000
  Se  Se3       1.0  0.72700  0.25000  0.61800  1.0000
  Se  Se4       1.0  0.22700  0.25000  0.88200  1.0000
