# generated using pymatgen
data_Au2Se2O7
_symmetry_space_group_name_H-M   'P 1'
_cell_length_a   4.29759900
_cell_length_b   7.25736000
_cell_length_c   11.58750300
_cell_angle_alpha   90.00000000
_cell_angle_beta   90.00000000
_cell_angle_gamma   90.00000000
_symmetry_Int_Tables_number   1
_chemical_formula_structural   Au2Se2O7
_chemical_formula_sum   'Au4 Se4 O14'
_cell_volume   361.40521599
_cell_formula_units_Z   2
loop_
 _symmetry_equiv_pos_site_id
 _symmetry_equiv_pos_as_xyz
  1  'x, y, z'
loop_
 _atom_site_type_symbol
 _atom_site_label
 _atom_site_symmetry_multiplicity
 _atom_site_fract_x
 _atom_site_fract_y
 _atom_site_fract_z
 _atom_site_occupancy
  Au  Au0  1  0.49238500  0.69367000  0.43660100  1
  Au  Au1  1  0.49238500  0.30633000  0.56339900  1
  Au  Au2  1  0.49238500  0.80633000  0.93660100  1
  Au  Au3  1  0.49238500  0.19367000  0.06339900  1
  Se  Se4  1  0.24834300  0.60197600  0.17166000  1
  Se  Se5  1  0.24834300  0.39802400  0.82834000  1
  Se  Se6  1  0.24834300  0.89802400  0.67166000  1
  Se  Se7  1  0.24834300  0.10197600  0.32834000  1
  O  O8  1  0.77332700  0.50000000  0.50000000  1
  O  O9  1  0.77332700  0.00000000  0.00000000  1
  O  O10  1  0.16535700  0.87936300  0.37457300  1
  O  O11  1  0.16535700  0.12063700  0.62542700  1
  O  O12  1  0.16535700  0.62063700  0.87457300  1
  O  O13  1  0.16535700  0.37936300  0.12542700  1
  O  O14  1  0.47670000  0.53740900  0.29076000  1
  O  O15  1  0.47670000  0.46259100  0.70924000  1
  O  O16  1  0.56575200  0.33654900  0.91509200  1
  O  O17  1  0.56575200  0.66345100  0.08490800  1
  O  O18  1  0.56575200  0.16345100  0.41509200  1
  O  O19  1  0.56575200  0.83654900  0.58490800  1
  O  O20  1  0.47670000  0.03740900  0.20924000  1
  O  O21  1  0.47670000  0.96259100  0.79076000  1
