# generated using pymatgen
data_K3Mn2Cl7
_symmetry_space_group_name_H-M   'P 1'
_cell_length_a   13.33863385
_cell_length_b   13.33863385
_cell_length_c   13.33863385
_cell_angle_alpha   158.09274657
_cell_angle_beta   158.09274657
_cell_angle_gamma   31.17634539
_symmetry_Int_Tables_number   1
_chemical_formula_structural   K3Mn2Cl7
_chemical_formula_sum   'K3 Mn2 Cl7'
_cell_volume   330.13522012
_cell_formula_units_Z   1
loop_
 _symmetry_equiv_pos_site_id
 _symmetry_equiv_pos_as_xyz
  1  'x, y, z'
loop_
 _atom_site_type_symbol
 _atom_site_label
 _atom_site_symmetry_multiplicity
 _atom_site_fract_x
 _atom_site_fract_y
 _atom_site_fract_z
 _atom_site_occupancy
  K  K0  1  0.00000000  0.00000000  0.00000000  1
  K  K1  1  0.18162600  0.18162600  0.00000000  1
  K  K2  1  0.81837400  0.81837400  0.00000000  1
  Mn  Mn3  1  0.39954100  0.39954100  0.00000000  1
  Mn  Mn4  1  0.60045900  0.60045900  0.00000000  1
  Cl  Cl5  1  0.40301000  0.90301000  0.50000000  1
  Cl  Cl6  1  0.90301000  0.40301000  0.50000000  1
  Cl  Cl7  1  0.59699000  0.09699000  0.50000000  1
  Cl  Cl8  1  0.09699000  0.59699000  0.50000000  1
  Cl  Cl9  1  0.69671500  0.69671500  0.00000000  1
  Cl  Cl10  1  0.50000000  0.50000000  0.00000000  1
  Cl  Cl11  1  0.30328500  0.30328500  0.00000000  1
