data_image0
_chemical_formula_structural       Cs2N2O2U2
_chemical_formula_sum              "Cs2 N2 O2 U2"
_cell_length_a       4.11388
_cell_length_b       5.74791
_cell_length_c       8.3468
_cell_angle_alpha    89.9995
_cell_angle_beta     90
_cell_angle_gamma    90

_space_group_name_H-M_alt    "P 1"
_space_group_IT_number       1

loop_
  _space_group_symop_operation_xyz
  'x, y, z'

loop_
  _atom_site_type_symbol
  _atom_site_label
  _atom_site_symmetry_multiplicity
  _atom_site_fract_x
  _atom_site_fract_y
  _atom_site_fract_z
  _atom_site_occupancy
  Cs  Cs1       1.0  0.50000  0.96000  0.14600  1.0000
  Cs  Cs2       1.0  0.50000  0.46000  0.85400  1.0000
  N   N1        1.0  0.00000  0.86200  0.39300  1.0000
  N   N2        1.0  0.00000  0.36200  0.60700  1.0000
  O   O1        1.0  0.50000  0.44600  0.25500  1.0000
  O   O2        1.0  0.50000  0.94600  0.74500  1.0000
  U   U1        1.0  0.00000  0.48600  0.36400  1.0000
  U   U2        1.0  0.00000  0.98600  0.63600  1.0000
