data_image0
_chemical_formula_structural       N2Na2O2W2
_chemical_formula_sum              "N2 Na2 O2 W2"
_cell_length_a       3.57936
_cell_length_b       5.6
_cell_length_c       5.74073
_cell_angle_alpha    90
_cell_angle_beta     90
_cell_angle_gamma    90

_space_group_name_H-M_alt    "P 1"
_space_group_IT_number       1

loop_
  _space_group_symop_operation_xyz
  'x, y, z'

loop_
  _atom_site_type_symbol
  _atom_site_label
  _atom_site_symmetry_multiplicity
  _atom_site_fract_x
  _atom_site_fract_y
  _atom_site_fract_z
  _atom_site_occupancy
  N   N1        1.0  0.00000  0.82000  0.31200  1.0000
  N   N2        1.0  0.00000  0.32000  0.68800  1.0000
  Na  Na1       1.0  0.50000  0.03160  0.12400  1.0000
  Na  Na2       1.0  0.50000  0.53200  0.87600  1.0000
  O   O1        1.0  0.50000  0.42200  0.27100  1.0000
  O   O2        1.0  0.50000  0.92200  0.72900  1.0000
  W   W1        1.0  0.00000  0.48000  0.39700  1.0000
  W   W2        1.0  0.00000  0.98000  0.60300  1.0000
