data_image0
_chemical_formula_structural       Cs2N2O2W2
_chemical_formula_sum              "Cs2 N2 O2 W2"
_cell_length_a       3.77242
_cell_length_b       6.43799
_cell_length_c       6.83605
_cell_angle_alpha    90
_cell_angle_beta     90
_cell_angle_gamma    90

_space_group_name_H-M_alt    "P 1"
_space_group_IT_number       1

loop_
  _space_group_symop_operation_xyz
  'x, y, z'

loop_
  _atom_site_type_symbol
  _atom_site_label
  _atom_site_symmetry_multiplicity
  _atom_site_fract_x
  _atom_site_fract_y
  _atom_site_fract_z
  _atom_site_occupancy
  Cs  Cs1       1.0  0.50000  0.00270  0.17000  1.0000
  Cs  Cs2       1.0  0.50000  0.50300  0.83000  1.0000
  N   N1        1.0  0.00000  0.75200  0.49700  1.0000
  N   N2        1.0  0.00000  0.25200  0.50300  1.0000
  O   O1        1.0  0.50000  0.49700  0.28300  1.0000
  O   O2        1.0  0.50000  0.99700  0.71700  1.0000
  W   W1        1.0  0.00000  0.50200  0.35700  1.0000
  W   W2        1.0  0.00000  0.00203  0.64300  1.0000
