data_image0
_chemical_formula_structural       Fe2N2O2Y2
_chemical_formula_sum              "Fe2 N2 O2 Y2"
_cell_length_a       3.77486
_cell_length_b       4.93755
_cell_length_c       6.10256
_cell_angle_alpha    90
_cell_angle_beta     90
_cell_angle_gamma    90

_space_group_name_H-M_alt    "P 1"
_space_group_IT_number       1

loop_
  _space_group_symop_operation_xyz
  'x, y, z'

loop_
  _atom_site_type_symbol
  _atom_site_label
  _atom_site_symmetry_multiplicity
  _atom_site_fract_x
  _atom_site_fract_y
  _atom_site_fract_z
  _atom_site_occupancy
  Fe  Fe1       1.0  0.50000  0.95900  0.19600  1.0000
  Fe  Fe2       1.0  0.50000  0.45900  0.80400  1.0000
  N   N1        1.0  0.00000  0.93800  0.31800  1.0000
  N   N2        1.0  0.00000  0.43800  0.68200  1.0000
  O   O1        1.0  0.50000  0.40800  0.13900  1.0000
  O   O2        1.0  0.50000  0.90800  0.86100  1.0000
  Y   Y1        1.0  0.00000  0.44900  0.30700  1.0000
  Y   Y2        1.0  0.00000  0.94900  0.69300  1.0000
