# generated using pymatgen
data_WSF4
_symmetry_space_group_name_H-M   'P 1'
_cell_length_a   5.77393100
_cell_length_b   9.84618300
_cell_length_c   17.69127400
_cell_angle_alpha   90.00000000
_cell_angle_beta   90.00000000
_cell_angle_gamma   90.00000000
_symmetry_Int_Tables_number   1
_chemical_formula_structural   WSF4
_chemical_formula_sum   'W8 S8 F32'
_cell_volume   1005.76982481
_cell_formula_units_Z   8
loop_
 _symmetry_equiv_pos_site_id
 _symmetry_equiv_pos_as_xyz
  1  'x, y, z'
loop_
 _atom_site_type_symbol
 _atom_site_label
 _atom_site_symmetry_multiplicity
 _atom_site_fract_x
 _atom_site_fract_y
 _atom_site_fract_z
 _atom_site_occupancy
  W  W0  1  0.46465900  0.99595300  0.34724400  1
  W  W1  1  0.53534100  0.49595300  0.65275600  1
  W  W2  1  0.53534100  0.99595300  0.84724400  1
  W  W3  1  0.46465900  0.49595300  0.15275600  1
  W  W4  1  0.15786600  0.60374700  0.37086900  1
  W  W5  1  0.84213400  0.10374700  0.62913100  1
  W  W6  1  0.84213400  0.60374700  0.87086900  1
  W  W7  1  0.15786600  0.10374700  0.12913100  1
  S  S8  1  0.59179600  0.19589600  0.36334200  1
  S  S9  1  0.40820400  0.69589600  0.63665800  1
  S  S10  1  0.40820400  0.19589600  0.86334200  1
  S  S11  1  0.59179600  0.69589600  0.13665800  1
  S  S12  1  0.01259600  0.68974300  0.46997600  1
  S  S13  1  0.98740400  0.18974300  0.53002400  1
  S  S14  1  0.98740400  0.68974300  0.96997600  1
  S  S15  1  0.01259600  0.18974300  0.03002400  1
  F  F16  1  0.30844000  0.76435700  0.32681500  1
  F  F17  1  0.69156000  0.26435700  0.67318500  1
  F  F18  1  0.69156000  0.76435700  0.82681500  1
  F  F19  1  0.30844000  0.26435700  0.17318500  1
  F  F20  1  0.32619400  0.51062600  0.25361500  1
  F  F21  1  0.67380600  0.01062600  0.74638500  1
  F  F22  1  0.67380600  0.51062600  0.75361500  1
  F  F23  1  0.32619400  0.01062600  0.24638500  1
  F  F24  1  0.55211700  0.91122400  0.43876000  1
  F  F25  1  0.44788300  0.41122400  0.56124000  1
  F  F26  1  0.44788300  0.91122400  0.93876000  1
  F  F27  1  0.55211700  0.41122400  0.06124000  1
  F  F28  1  0.15735200  0.00870300  0.38464300  1
  F  F29  1  0.84264800  0.50870300  0.61535700  1
  F  F30  1  0.84264800  0.00870300  0.88464300  1
  F  F31  1  0.15735200  0.50870300  0.11535700  1
  F  F32  1  0.06774200  0.91995000  0.12038700  1
  F  F33  1  0.93225800  0.41995000  0.87961300  1
  F  F34  1  0.93225800  0.91995000  0.62038700  1
  F  F35  1  0.06774200  0.41995000  0.37961300  1
  F  F36  1  0.46007700  0.05418000  0.09758100  1
  F  F37  1  0.53992300  0.55418000  0.90241900  1
  F  F38  1  0.53992300  0.05418000  0.59758100  1
  F  F39  1  0.46007700  0.55418000  0.40241900  1
  F  F40  1  0.92201000  0.13146600  0.20142000  1
  F  F41  1  0.07799000  0.63146600  0.79858000  1
  F  F42  1  0.07799000  0.13146600  0.70142000  1
  F  F43  1  0.92201000  0.63146600  0.29858000  1
  F  F44  1  0.71314100  0.40765500  0.20170300  1
  F  F45  1  0.28685900  0.90765500  0.79829700  1
  F  F46  1  0.28685900  0.40765500  0.70170300  1
  F  F47  1  0.71314100  0.90765500  0.29829700  1
