data_image0
_chemical_formula_structural       Cs2In2O2Te2
_chemical_formula_sum              "Cs2 In2 O2 Te2"
_cell_length_a       4.50166
_cell_length_b       8.90249
_cell_length_c       7.13521
_cell_angle_alpha    90
_cell_angle_beta     90
_cell_angle_gamma    90

_space_group_name_H-M_alt    "P 1"
_space_group_IT_number       1

loop_
  _space_group_symop_operation_xyz
  'x, y, z'

loop_
  _atom_site_type_symbol
  _atom_site_label
  _atom_site_symmetry_multiplicity
  _atom_site_fract_x
  _atom_site_fract_y
  _atom_site_fract_z
  _atom_site_occupancy
  Cs  Cs1       1.0  0.00000  0.27500  0.11300  1.0000
  Cs  Cs2       1.0  0.00000  0.72500  0.61300  1.0000
  In  In1       1.0  0.50000  0.90200  0.03170  1.0000
  In  In2       1.0  0.50000  0.09810  0.53200  1.0000
  O   O1        1.0  0.50000  0.07320  0.23500  1.0000
  O   O2        1.0  0.50000  0.92700  0.73500  1.0000
  Te  Te1       1.0  0.00000  0.71800  0.11100  1.0000
  Te  Te2       1.0  0.00000  0.28200  0.61100  1.0000
