data_image0
_chemical_formula_structural       Li8O4Se4
_chemical_formula_sum              "Li8 O4 Se4"
_cell_length_a       4.29832
_cell_length_b       5.6387
_cell_length_c       9.82348
_cell_angle_alpha    89.9988
_cell_angle_beta     83.8502
_cell_angle_gamma    89.9971

_space_group_name_H-M_alt    "P 1"
_space_group_IT_number       1

loop_
  _space_group_symop_operation_xyz
  'x, y, z'

loop_
  _atom_site_type_symbol
  _atom_site_label
  _atom_site_symmetry_multiplicity
  _atom_site_fract_x
  _atom_site_fract_y
  _atom_site_fract_z
  _atom_site_occupancy
  Li  Li1       1.0  0.79400  0.03410  0.03630  1.0000
  Li  Li2       1.0  0.59600  0.78400  0.33800  1.0000
  Li  Li3       1.0  0.50400  0.27900  0.37800  1.0000
  Li  Li4       1.0  0.03020  0.77800  0.48300  1.0000
  Li  Li5       1.0  0.97000  0.27800  0.51700  1.0000
  Li  Li6       1.0  0.49600  0.77900  0.62200  1.0000
  Li  Li7       1.0  0.40400  0.28400  0.66200  1.0000
  Li  Li8       1.0  0.20600  0.53400  0.96400  1.0000
  O   O1        1.0  0.68200  0.53400  0.46700  1.0000
  O   O2        1.0  0.66500  0.02490  0.47600  1.0000
  O   O3        1.0  0.33500  0.52500  0.52400  1.0000
  O   O4        1.0  0.31900  0.03410  0.53300  1.0000
  Se  Se1       1.0  0.27300  0.19300  0.16200  1.0000
  Se  Se2       1.0  0.13200  0.77200  0.19600  1.0000
  Se  Se3       1.0  0.86800  0.27200  0.80400  1.0000
  Se  Se4       1.0  0.72700  0.69300  0.83800  1.0000
