data_image0
_chemical_formula_structural       Na8O4Se4
_chemical_formula_sum              "Na8 O4 Se4"
_cell_length_a       4.83637
_cell_length_b       6.39684
_cell_length_c       10.6126
_cell_angle_alpha    90
_cell_angle_beta     101.866
_cell_angle_gamma    90

_space_group_name_H-M_alt    "P 1"
_space_group_IT_number       1

loop_
  _space_group_symop_operation_xyz
  'x, y, z'

loop_
  _atom_site_type_symbol
  _atom_site_label
  _atom_site_symmetry_multiplicity
  _atom_site_fract_x
  _atom_site_fract_y
  _atom_site_fract_z
  _atom_site_occupancy
  Na  Na1       1.0  0.50400  0.27100  0.00047  1.0000
  Na  Na2       1.0  0.07760  0.27400  0.15100  1.0000
  Na  Na3       1.0  0.06100  0.76300  0.15100  1.0000
  Na  Na4       1.0  0.22100  0.51100  0.46600  1.0000
  Na  Na5       1.0  0.77900  0.01110  0.53400  1.0000
  Na  Na6       1.0  0.93900  0.26300  0.84900  1.0000
  Na  Na7       1.0  0.92200  0.77400  0.84900  1.0000
  Na  Na8       1.0  0.49600  0.77100  0.00000  1.0000
  O   O1        1.0  0.84600  0.02000  0.00726  1.0000
  O   O2        1.0  0.16100  0.01990  0.00766  1.0000
  O   O3        1.0  0.83900  0.52000  0.99200  1.0000
  O   O4        1.0  0.15400  0.52000  0.99300  1.0000
  Se  Se1       1.0  0.63000  0.71100  0.31500  1.0000
  Se  Se2       1.0  0.66700  0.32900  0.31600  1.0000
  Se  Se3       1.0  0.33300  0.82900  0.68400  1.0000
  Se  Se4       1.0  0.37000  0.21100  0.68500  1.0000
