# generated using pymatgen
data_Li6Mn2OF11
_symmetry_space_group_name_H-M   'P 1'
_cell_length_a   5.10698400
_cell_length_b   5.54054491
_cell_length_c   8.86631894
_cell_angle_alpha   85.94374385
_cell_angle_beta   73.26179623
_cell_angle_gamma   117.44350677
_symmetry_Int_Tables_number   1
_chemical_formula_structural   Li6Mn2OF11
_chemical_formula_sum   'Li6 Mn2 O1 F11'
_cell_volume   207.01060814
_cell_formula_units_Z   1
loop_
 _symmetry_equiv_pos_site_id
 _symmetry_equiv_pos_as_xyz
  1  'x, y, z'
loop_
 _atom_site_type_symbol
 _atom_site_label
 _atom_site_symmetry_multiplicity
 _atom_site_fract_x
 _atom_site_fract_y
 _atom_site_fract_z
 _atom_site_occupancy
  Li  Li0  1  0.14462000  0.34327800  0.06028700  1
  Li  Li1  1  0.36162900  0.40672200  0.68971300  1
  Li  Li2  1  0.63301000  0.60246300  0.33755700  1
  Li  Li3  1  0.86810500  0.14753700  0.41244300  1
  Li  Li4  1  0.81879100  0.61553300  0.93047800  1
  Li  Li5  1  0.63373600  0.13446700  0.81952200  1
  Mn  Mn6  1  0.16432600  0.89458700  0.56863800  1
  Mn  Mn7  1  0.33837700  0.85541300  0.18136200  1
  O  O8  1  0.41627700  0.87500000  0.37500000  1
  F  F9  1  0.08003200  0.02683300  0.21979600  1
  F  F10  1  0.07322100  0.54976300  0.70652900  1
  F  F11  1  0.55501700  0.64417000  0.13587000  1
  F  F12  1  0.24476800  0.26604300  0.47068600  1
  F  F13  1  0.26007800  0.78843700  0.98370200  1
  F  F14  1  0.77299400  0.72316700  0.53020400  1
  F  F15  1  0.72998800  0.20023700  0.04347100  1
  F  F16  1  0.45355900  0.37500000  0.87500000  1
  F  F17  1  0.54671800  0.10583000  0.61413000  1
  F  F18  1  0.94941000  0.48395700  0.27931400  1
  F  F19  1  0.95534300  0.96156300  0.76629800  1
