data_image0
_chemical_formula_structural       Mo4N4O4
_chemical_formula_sum              "Mo4 N4 O4"
_cell_length_a       5.57858
_cell_length_b       4.77806
_cell_length_c       5.58592
_cell_angle_alpha    90
_cell_angle_beta     115.517
_cell_angle_gamma    90

_space_group_name_H-M_alt    "P 1"
_space_group_IT_number       1

loop_
  _space_group_symop_operation_xyz
  'x, y, z'

loop_
  _atom_site_type_symbol
  _atom_site_label
  _atom_site_symmetry_multiplicity
  _atom_site_fract_x
  _atom_site_fract_y
  _atom_site_fract_z
  _atom_site_occupancy
  Mo  Mo1       1.0  0.70800  0.79000  0.19900  1.0000
  Mo  Mo2       1.0  0.24900  0.26300  0.28100  1.0000
  Mo  Mo3       1.0  0.70800  0.21000  0.69900  1.0000
  Mo  Mo4       1.0  0.24900  0.73700  0.78100  1.0000
  N   N1        1.0  0.33400  0.97000  0.07880  1.0000
  N   N2        1.0  0.87600  0.05760  0.10900  1.0000
  N   N3        1.0  0.33400  0.02990  0.57900  1.0000
  N   N4        1.0  0.87600  0.94200  0.60900  1.0000
  O   O1        1.0  0.06010  0.55200  0.37400  1.0000
  O   O2        1.0  0.58700  0.47800  0.40200  1.0000
  O   O3        1.0  0.06010  0.44800  0.87400  1.0000
  O   O4        1.0  0.58700  0.52200  0.90200  1.0000
