data_image0
_chemical_formula_structural       Ho4Ir4Si4
_chemical_formula_sum              "Ho4 Ir4 Si4"
_cell_length_a       6.83428
_cell_length_b       4.2282
_cell_length_c       7.4338
_cell_angle_alpha    90
_cell_angle_beta     90
_cell_angle_gamma    90

_space_group_name_H-M_alt    "P 1"
_space_group_IT_number       1

loop_
  _space_group_symop_operation_xyz
  'x, y, z'

loop_
  _atom_site_type_symbol
  _atom_site_label
  _atom_site_symmetry_multiplicity
  _atom_site_fract_x
  _atom_site_fract_y
  _atom_site_fract_z
  _atom_site_occupancy
  Ho  Ho1       1.0  0.50200  0.75000  0.18700  1.0000
  Ho  Ho2       1.0  0.00202  0.75000  0.31300  1.0000
  Ho  Ho3       1.0  0.99800  0.25000  0.68700  1.0000
  Ho  Ho4       1.0  0.49800  0.25000  0.81300  1.0000
  Ir  Ir1       1.0  0.84300  0.25000  0.06720  1.0000
  Ir  Ir2       1.0  0.34300  0.25000  0.43300  1.0000
  Ir  Ir3       1.0  0.65700  0.75000  0.56700  1.0000
  Ir  Ir4       1.0  0.15700  0.75000  0.93300  1.0000
  Si  Si1       1.0  0.20300  0.25000  0.11000  1.0000
  Si  Si2       1.0  0.70300  0.25000  0.39000  1.0000
  Si  Si3       1.0  0.29700  0.75000  0.61000  1.0000
  Si  Si4       1.0  0.79700  0.75000  0.89000  1.0000
