data_image0
_chemical_formula_structural       Os2Pd2Sn4V4
_chemical_formula_sum              "Os2 Pd2 Sn4 V4"
_cell_length_a       7.45162
_cell_length_b       7.45162
_cell_length_c       7.45162
_cell_angle_alpha    131.636
_cell_angle_beta     131.636
_cell_angle_gamma    70.8048

_space_group_name_H-M_alt    "P 1"
_space_group_IT_number       1

loop_
  _space_group_symop_operation_xyz
  'x, y, z'

loop_
  _atom_site_type_symbol
  _atom_site_label
  _atom_site_symmetry_multiplicity
  _atom_site_fract_x
  _atom_site_fract_y
  _atom_site_fract_z
  _atom_site_occupancy
  Os  Os1       1.0  0.00000  0.00000  0.00000  1.0000
  Os  Os2       1.0  0.75000  0.25000  0.50000  1.0000
  Pd  Pd1       1.0  0.50000  0.50000  0.00000  1.0000
  Pd  Pd2       1.0  0.25000  0.75000  0.50000  1.0000
  Sn  Sn1       1.0  0.13600  0.62500  0.01070  1.0000
  Sn  Sn2       1.0  0.87500  0.86400  0.48900  1.0000
  Sn  Sn3       1.0  0.37500  0.38600  0.51100  1.0000
  Sn  Sn4       1.0  0.61400  0.12500  0.98900  1.0000
  V   V1        1.0  0.37500  0.89600  0.02100  1.0000
  V   V2        1.0  0.10400  0.12500  0.47900  1.0000
  V   V3        1.0  0.64600  0.62500  0.52100  1.0000
  V   V4        1.0  0.87500  0.35400  0.97900  1.0000
