data_image0
_chemical_formula_structural       Bi4Ni2Os2Ti4
_chemical_formula_sum              "Bi4 Ni2 Os2 Ti4"
_cell_length_a       7.58142
_cell_length_b       7.58142
_cell_length_c       7.58142
_cell_angle_alpha    131.648
_cell_angle_beta     131.648
_cell_angle_gamma    70.7862

_space_group_name_H-M_alt    "P 1"
_space_group_IT_number       1

loop_
  _space_group_symop_operation_xyz
  'x, y, z'

loop_
  _atom_site_type_symbol
  _atom_site_label
  _atom_site_symmetry_multiplicity
  _atom_site_fract_x
  _atom_site_fract_y
  _atom_site_fract_z
  _atom_site_occupancy
  Bi  Bi1       1.0  0.14600  0.62500  0.02100  1.0000
  Bi  Bi2       1.0  0.87500  0.85400  0.47900  1.0000
  Bi  Bi3       1.0  0.37500  0.39600  0.52100  1.0000
  Bi  Bi4       1.0  0.60400  0.12500  0.97900  1.0000
  Ni  Ni1       1.0  0.50000  0.50000  0.00000  1.0000
  Ni  Ni2       1.0  0.25000  0.75000  0.50000  1.0000
  Os  Os1       1.0  0.00000  0.00000  0.00000  1.0000
  Os  Os2       1.0  0.75000  0.25000  0.50000  1.0000
  Ti  Ti1       1.0  0.37500  0.89000  0.01450  1.0000
  Ti  Ti2       1.0  0.11000  0.12500  0.48500  1.0000
  Ti  Ti3       1.0  0.64000  0.62500  0.51500  1.0000
  Ti  Ti4       1.0  0.87500  0.36000  0.98500  1.0000
