data_image0
_chemical_formula_structural       Lu2Pd4Sn4V2
_chemical_formula_sum              "Lu2 Pd4 Sn4 V2"
_cell_length_a       6.34548
_cell_length_b       4.44396
_cell_length_c       8.853
_cell_angle_alpha    90
_cell_angle_beta     90
_cell_angle_gamma    90

_space_group_name_H-M_alt    "P 1"
_space_group_IT_number       1

loop_
  _space_group_symop_operation_xyz
  'x, y, z'

loop_
  _atom_site_type_symbol
  _atom_site_label
  _atom_site_symmetry_multiplicity
  _atom_site_fract_x
  _atom_site_fract_y
  _atom_site_fract_z
  _atom_site_occupancy
  Lu  Lu1       1.0  0.00192  0.50000  0.37800  1.0000
  Lu  Lu2       1.0  0.50200  0.00000  0.62200  1.0000
  Pd  Pd1       1.0  0.74300  0.50000  0.11200  1.0000
  Pd  Pd2       1.0  0.26200  0.00000  0.35600  1.0000
  Pd  Pd3       1.0  0.76200  0.50000  0.64400  1.0000
  Pd  Pd4       1.0  0.24300  0.00000  0.88800  1.0000
  Sn  Sn1       1.0  0.98400  0.00000  0.11800  1.0000
  Sn  Sn2       1.0  0.51000  0.50000  0.36500  1.0000
  Sn  Sn3       1.0  0.00957  0.00000  0.63500  1.0000
  Sn  Sn4       1.0  0.48400  0.50000  0.88200  1.0000
  V   V1        1.0  0.49900  0.00000  0.12500  1.0000
  V   V2        1.0  0.99900  0.50000  0.87500  1.0000
