# generated using pymatgen
data_Sb4F15
_symmetry_space_group_name_H-M   'P 1'
_cell_length_a   11.18202800
_cell_length_b   11.41240100
_cell_length_c   19.65754300
_cell_angle_alpha   90.00000000
_cell_angle_beta   90.00000000
_cell_angle_gamma   90.00000000
_symmetry_Int_Tables_number   1
_chemical_formula_structural   Sb4F15
_chemical_formula_sum   'Sb32 F120'
_cell_volume   2508.57351575
_cell_formula_units_Z   8
loop_
 _symmetry_equiv_pos_site_id
 _symmetry_equiv_pos_as_xyz
  1  'x, y, z'
loop_
 _atom_site_type_symbol
 _atom_site_label
 _atom_site_symmetry_multiplicity
 _atom_site_fract_x
 _atom_site_fract_y
 _atom_site_fract_z
 _atom_site_occupancy
  Sb  Sb0  1  0.64032900  0.08368400  0.94608300  1
  Sb  Sb1  1  0.35967100  0.91631600  0.44608300  1
  Sb  Sb2  1  0.35967100  0.58368400  0.94608300  1
  Sb  Sb3  1  0.64032900  0.41631600  0.44608300  1
  Sb  Sb4  1  0.91497100  0.07091900  0.11443100  1
  Sb  Sb5  1  0.08502900  0.92908100  0.61443100  1
  Sb  Sb6  1  0.08502900  0.57091900  0.11443100  1
  Sb  Sb7  1  0.91497100  0.42908100  0.61443100  1
  Sb  Sb8  1  0.88422800  0.07190700  0.77936900  1
  Sb  Sb9  1  0.11577200  0.92809300  0.27936900  1
  Sb  Sb10  1  0.11577200  0.57190700  0.77936900  1
  Sb  Sb11  1  0.88422800  0.42809300  0.27936900  1
  Sb  Sb12  1  0.89585100  0.34236400  0.94402400  1
  Sb  Sb13  1  0.10414900  0.65763600  0.44402400  1
  Sb  Sb14  1  0.10414900  0.84236400  0.94402400  1
  Sb  Sb15  1  0.89585100  0.15763600  0.44402400  1
  Sb  Sb16  1  0.21508000  0.25477700  0.19042500  1
  Sb  Sb17  1  0.78492000  0.74522300  0.69042500  1
  Sb  Sb18  1  0.78492000  0.75477700  0.19042500  1
  Sb  Sb19  1  0.21508000  0.24522300  0.69042500  1
  Sb  Sb20  1  0.25781900  0.24182400  0.94332500  1
  Sb  Sb21  1  0.74218100  0.75817600  0.44332500  1
  Sb  Sb22  1  0.74218100  0.74182400  0.94332500  1
  Sb  Sb23  1  0.25781900  0.25817600  0.44332500  1
  Sb  Sb24  1  0.61798200  0.09992500  0.59465800  1
  Sb  Sb25  1  0.38201800  0.90007500  0.09465800  1
  Sb  Sb26  1  0.38201800  0.59992500  0.59465800  1
  Sb  Sb27  1  0.61798200  0.40007500  0.09465800  1
  Sb  Sb28  1  0.64857100  0.08519400  0.27899500  1
  Sb  Sb29  1  0.35142900  0.91480600  0.77899500  1
  Sb  Sb30  1  0.35142900  0.58519400  0.27899500  1
  Sb  Sb31  1  0.64857100  0.41480600  0.77899500  1
  F  F32  1  0.73340100  0.24466800  0.93985600  1
  F  F33  1  0.26659900  0.75533200  0.43985600  1
  F  F34  1  0.26659900  0.74466800  0.93985600  1
  F  F35  1  0.73340100  0.25533200  0.43985600  1
  F  F36  1  0.75878000  0.04616100  0.86947600  1
  F  F37  1  0.24122000  0.95383900  0.36947600  1
  F  F38  1  0.24122000  0.54616100  0.86947600  1
  F  F39  1  0.75878000  0.45383900  0.36947600  1
  F  F40  1  0.75600200  0.04809700  0.01792300  1
  F  F41  1  0.24399800  0.95190300  0.51792300  1
  F  F42  1  0.24399800  0.54809700  0.01792300  1
  F  F43  1  0.75600200  0.45190300  0.51792300  1
  F  F44  1  0.81856200  0.91094300  0.13368600  1
  F  F45  1  0.18143800  0.08905700  0.63368600  1
  F  F46  1  0.18143800  0.41094300  0.13368600  1
  F  F47  1  0.81856200  0.58905700  0.63368600  1
  F  F48  1  0.00926600  0.98105200  0.05114200  1
  F  F49  1  0.99073400  0.01894800  0.55114200  1
  F  F50  1  0.99073400  0.48105200  0.05114200  1
  F  F51  1  0.00926600  0.51894800  0.55114200  1
  F  F52  1  0.01394000  0.99103900  0.19035000  1
  F  F53  1  0.98606000  0.00896100  0.69035000  1
  F  F54  1  0.98606000  0.49103900  0.19035000  1
  F  F55  1  0.01394000  0.50896100  0.69035000  1
  F  F56  1  0.80054100  0.92136500  0.75272200  1
  F  F57  1  0.19945900  0.07863500  0.25272200  1
  F  F58  1  0.19945900  0.42136500  0.75272200  1
  F  F59  1  0.80054100  0.57863500  0.25272200  1
  F  F60  1  0.99565600  0.98320500  0.83295100  1
  F  F61  1  0.00434400  0.01679500  0.33295100  1
  F  F62  1  0.00434400  0.48320500  0.83295100  1
  F  F63  1  0.99565600  0.51679500  0.33295100  1
  F  F64  1  0.93132000  0.22856700  0.01713500  1
  F  F65  1  0.06868000  0.77143300  0.51713500  1
  F  F66  1  0.06868000  0.72856700  0.01713500  1
  F  F67  1  0.93132000  0.27143300  0.51713500  1
  F  F68  1  0.93693700  0.22789600  0.87160500  1
  F  F69  1  0.06306300  0.77210400  0.37160500  1
  F  F70  1  0.06306300  0.72789600  0.87160500  1
  F  F71  1  0.93693700  0.27210400  0.37160500  1
  F  F72  1  0.08608300  0.18528000  0.13027700  1
  F  F73  1  0.91391700  0.81472000  0.63027700  1
  F  F74  1  0.91391700  0.68528000  0.13027700  1
  F  F75  1  0.08608300  0.31472000  0.63027700  1
  F  F76  1  0.08069500  0.29955100  0.24799300  1
  F  F77  1  0.91930500  0.70044900  0.74799300  1
  F  F78  1  0.91930500  0.79955100  0.24799300  1
  F  F79  1  0.08069500  0.20044900  0.74799300  1
  F  F80  1  0.27541800  0.24828000  0.03962100  1
  F  F81  1  0.72458200  0.75172000  0.53962100  1
  F  F82  1  0.72458200  0.74828000  0.03962100  1
  F  F83  1  0.27541800  0.25172000  0.53962100  1
  F  F84  1  0.25298300  0.25169700  0.84709200  1
  F  F85  1  0.74701700  0.74830300  0.34709200  1
  F  F86  1  0.74701700  0.75169700  0.84709200  1
  F  F87  1  0.25298300  0.24830300  0.34709200  1
  F  F88  1  0.12081400  0.34719600  0.94839000  1
  F  F89  1  0.87918600  0.65280400  0.44839000  1
  F  F90  1  0.87918600  0.84719600  0.94839000  1
  F  F91  1  0.12081400  0.15280400  0.44839000  1
  F  F92  1  0.36083400  0.38357300  0.94015100  1
  F  F93  1  0.63916600  0.61642700  0.44015100  1
  F  F94  1  0.63916600  0.88357300  0.94015100  1
  F  F95  1  0.36083400  0.11642700  0.44015100  1
  F  F96  1  0.15242800  0.11207400  0.94714500  1
  F  F97  1  0.84757200  0.88792600  0.44714500  1
  F  F98  1  0.84757200  0.61207400  0.94714500  1
  F  F99  1  0.15242800  0.38792600  0.44714500  1
  F  F100  1  0.40008300  0.14956200  0.93684000  1
  F  F101  1  0.59991700  0.85043800  0.43684000  1
  F  F102  1  0.59991700  0.64956200  0.93684000  1
  F  F103  1  0.40008300  0.35043800  0.43684000  1
  F  F104  1  0.49911300  0.13355700  0.66070600  1
  F  F105  1  0.50088700  0.86644300  0.16070600  1
  F  F106  1  0.50088700  0.63355700  0.66070600  1
  F  F107  1  0.49911300  0.36644300  0.16070600  1
  F  F108  1  0.66034100  0.95258400  0.63476400  1
  F  F109  1  0.33965900  0.04741600  0.13476400  1
  F  F110  1  0.33965900  0.45258400  0.63476400  1
  F  F111  1  0.66034100  0.54741600  0.13476400  1
  F  F112  1  0.50195000  0.01975100  0.53854700  1
  F  F113  1  0.49805000  0.98024900  0.03854700  1
  F  F114  1  0.49805000  0.51975100  0.53854700  1
  F  F115  1  0.50195000  0.48024900  0.03854700  1
  F  F116  1  0.58304000  0.24634600  0.54955400  1
  F  F117  1  0.41696000  0.75365400  0.04955400  1
  F  F118  1  0.41696000  0.74634600  0.54955400  1
  F  F119  1  0.58304000  0.25365400  0.04955400  1
  F  F120  1  0.74119400  0.17266500  0.64849800  1
  F  F121  1  0.25880600  0.82733500  0.14849800  1
  F  F122  1  0.25880600  0.67266500  0.64849800  1
  F  F123  1  0.74119400  0.32733500  0.14849800  1
  F  F124  1  0.73755900  0.07070900  0.52504800  1
  F  F125  1  0.26244100  0.92929100  0.02504800  1
  F  F126  1  0.26244100  0.57070900  0.52504800  1
  F  F127  1  0.73755900  0.42929100  0.02504800  1
  F  F128  1  0.68528900  0.92425300  0.25386300  1
  F  F129  1  0.31471100  0.07574700  0.75386300  1
  F  F130  1  0.31471100  0.42425300  0.25386300  1
  F  F131  1  0.68528900  0.57574700  0.75386300  1
  F  F132  1  0.56509700  0.11010000  0.19653900  1
  F  F133  1  0.43490300  0.88990000  0.69653900  1
  F  F134  1  0.43490300  0.61010000  0.19653900  1
  F  F135  1  0.56509700  0.38990000  0.69653900  1
  F  F136  1  0.74172100  0.06003200  0.36069000  1
  F  F137  1  0.25827900  0.93996800  0.86069000  1
  F  F138  1  0.25827900  0.56003200  0.36069000  1
  F  F139  1  0.74172100  0.43996800  0.86069000  1
  F  F140  1  0.50839800  0.03240100  0.32553400  1
  F  F141  1  0.49160200  0.96759900  0.82553400  1
  F  F142  1  0.49160200  0.53240100  0.32553400  1
  F  F143  1  0.50839800  0.46759900  0.82553400  1
  F  F144  1  0.62386200  0.24437300  0.30695000  1
  F  F145  1  0.37613800  0.75562700  0.80695000  1
  F  F146  1  0.37613800  0.74437300  0.30695000  1
  F  F147  1  0.62386200  0.25562700  0.80695000  1
  F  F148  1  0.79720800  0.12973400  0.23474300  1
  F  F149  1  0.20279200  0.87026600  0.73474300  1
  F  F150  1  0.20279200  0.62973400  0.23474300  1
  F  F151  1  0.79720800  0.37026600  0.73474300  1
