data_image0
_chemical_formula_structural       Nb4Ni2Os2Sn4
_chemical_formula_sum              "Nb4 Ni2 Os2 Sn4"
_cell_length_a       6.14842
_cell_length_b       6.14842
_cell_length_c       7.50595
_cell_angle_alpha    65.8222
_cell_angle_beta     65.8222
_cell_angle_gamma    90

_space_group_name_H-M_alt    "P 1"
_space_group_IT_number       1

loop_
  _space_group_symop_operation_xyz
  'x, y, z'

loop_
  _atom_site_type_symbol
  _atom_site_label
  _atom_site_symmetry_multiplicity
  _atom_site_fract_x
  _atom_site_fract_y
  _atom_site_fract_z
  _atom_site_occupancy
  Nb  Nb1       1.0  0.12500  0.12200  0.25000  1.0000
  Nb  Nb2       1.0  0.62500  0.62800  0.25000  1.0000
  Nb  Nb3       1.0  0.37200  0.87500  0.75000  1.0000
  Nb  Nb4       1.0  0.87800  0.37500  0.75000  1.0000
  Ni  Ni1       1.0  0.50000  0.50000  0.00000  1.0000
  Ni  Ni2       1.0  0.75000  0.25000  0.50000  1.0000
  Os  Os1       1.0  0.00000  0.00000  0.00000  1.0000
  Os  Os2       1.0  0.25000  0.75000  0.50000  1.0000
  Sn  Sn1       1.0  0.62500  0.14000  0.25000  1.0000
  Sn  Sn2       1.0  0.12500  0.61000  0.25000  1.0000
  Sn  Sn3       1.0  0.39000  0.37500  0.75000  1.0000
  Sn  Sn4       1.0  0.86000  0.87500  0.75000  1.0000
