data_image0
_chemical_formula_structural       Fe2Pd2Sn4Ta4
_chemical_formula_sum              "Fe2 Pd2 Sn4 Ta4"
_cell_length_a       6.12799
_cell_length_b       6.12799
_cell_length_c       7.46559
_cell_angle_alpha    65.769
_cell_angle_beta     65.769
_cell_angle_gamma    90

_space_group_name_H-M_alt    "P 1"
_space_group_IT_number       1

loop_
  _space_group_symop_operation_xyz
  'x, y, z'

loop_
  _atom_site_type_symbol
  _atom_site_label
  _atom_site_symmetry_multiplicity
  _atom_site_fract_x
  _atom_site_fract_y
  _atom_site_fract_z
  _atom_site_occupancy
  Fe  Fe1       1.0  0.00000  0.00000  0.00000  1.0000
  Fe  Fe2       1.0  0.25000  0.75000  0.50000  1.0000
  Pd  Pd1       1.0  0.50000  0.50000  0.00000  1.0000
  Pd  Pd2       1.0  0.75000  0.25000  0.50000  1.0000
  Sn  Sn1       1.0  0.12500  0.63300  0.25000  1.0000
  Sn  Sn2       1.0  0.62500  0.11700  0.25000  1.0000
  Sn  Sn3       1.0  0.88300  0.87500  0.75000  1.0000
  Sn  Sn4       1.0  0.36700  0.37500  0.75000  1.0000
  Ta  Ta1       1.0  0.62500  0.64300  0.25000  1.0000
  Ta  Ta2       1.0  0.12500  0.10700  0.25000  1.0000
  Ta  Ta3       1.0  0.89300  0.37500  0.75000  1.0000
  Ta  Ta4       1.0  0.35700  0.87500  0.75000  1.0000
