data_image0
_chemical_formula_structural       Al2Bi2Rh4V4
_chemical_formula_sum              "Al2 Bi2 Rh4 V4"
_cell_length_a       7.34076
_cell_length_b       7.34076
_cell_length_c       7.34076
_cell_angle_alpha    131.733
_cell_angle_beta     131.733
_cell_angle_gamma    70.6508

_space_group_name_H-M_alt    "P 1"
_space_group_IT_number       1

loop_
  _space_group_symop_operation_xyz
  'x, y, z'

loop_
  _atom_site_type_symbol
  _atom_site_label
  _atom_site_symmetry_multiplicity
  _atom_site_fract_x
  _atom_site_fract_y
  _atom_site_fract_z
  _atom_site_occupancy
  Al  Al1       1.0  0.00000  0.00000  0.00000  1.0000
  Al  Al2       1.0  0.75000  0.25000  0.50000  1.0000
  Bi  Bi1       1.0  0.50000  0.50000  0.00000  1.0000
  Bi  Bi2       1.0  0.25000  0.75000  0.50000  1.0000
  Rh  Rh1       1.0  0.65200  0.12500  0.02700  1.0000
  Rh  Rh2       1.0  0.37500  0.34800  0.47300  1.0000
  Rh  Rh3       1.0  0.87500  0.90200  0.52700  1.0000
  Rh  Rh4       1.0  0.09800  0.62500  0.97300  1.0000
  V   V1        1.0  0.24100  0.24100  0.00000  1.0000
  V   V2        1.0  0.75900  0.75900  0.00000  1.0000
  V   V3        1.0  0.50900  0.00887  0.50000  1.0000
  V   V4        1.0  0.99100  0.49100  0.50000  1.0000
