data_image0
_chemical_formula_structural       Nb4Os2Pt2Sn4
_chemical_formula_sum              "Nb4 Os2 Pt2 Sn4"
_cell_length_a       6.25633
_cell_length_b       6.25633
_cell_length_c       7.64322
_cell_angle_alpha    65.8408
_cell_angle_beta     65.8408
_cell_angle_gamma    90

_space_group_name_H-M_alt    "P 1"
_space_group_IT_number       1

loop_
  _space_group_symop_operation_xyz
  'x, y, z'

loop_
  _atom_site_type_symbol
  _atom_site_label
  _atom_site_symmetry_multiplicity
  _atom_site_fract_x
  _atom_site_fract_y
  _atom_site_fract_z
  _atom_site_occupancy
  Nb  Nb1       1.0  0.12500  0.11600  0.25000  1.0000
  Nb  Nb2       1.0  0.62500  0.63400  0.25000  1.0000
  Nb  Nb3       1.0  0.36600  0.87500  0.75000  1.0000
  Nb  Nb4       1.0  0.88400  0.37500  0.75000  1.0000
  Os  Os1       1.0  0.00000  0.00000  0.00000  1.0000
  Os  Os2       1.0  0.25000  0.75000  0.50000  1.0000
  Pt  Pt1       1.0  0.50000  0.50000  0.00000  1.0000
  Pt  Pt2       1.0  0.75000  0.25000  0.50000  1.0000
  Sn  Sn1       1.0  0.62500  0.12400  0.25000  1.0000
  Sn  Sn2       1.0  0.12500  0.62600  0.25000  1.0000
  Sn  Sn3       1.0  0.37400  0.37500  0.75000  1.0000
  Sn  Sn4       1.0  0.87600  0.87500  0.75000  1.0000
