data_image0
_chemical_formula_structural       Al2Te5
_chemical_formula_sum              "Al2 Te5"
_cell_length_a       4.19831
_cell_length_b       7.51374
_cell_length_c       8.47336
_cell_angle_alpha    92.2275
_cell_angle_beta     104.344
_cell_angle_gamma    106.223

_space_group_name_H-M_alt    "P 1"
_space_group_IT_number       1

loop_
  _space_group_symop_operation_xyz
  'x, y, z'

loop_
  _atom_site_type_symbol
  _atom_site_label
  _atom_site_symmetry_multiplicity
  _atom_site_fract_x
  _atom_site_fract_y
  _atom_site_fract_z
  _atom_site_occupancy
  Al  Al1       1.0  0.77000  0.13800  0.40200  1.0000
  Al  Al2       1.0  0.23000  0.86200  0.59800  1.0000
  Te  Te1       1.0  0.00000  0.00000  0.00000  1.0000
  Te  Te2       1.0  0.70600  0.28500  0.12800  1.0000
  Te  Te3       1.0  0.58100  0.76500  0.39800  1.0000
  Te  Te4       1.0  0.41900  0.23500  0.60200  1.0000
  Te  Te5       1.0  0.29400  0.71500  0.87200  1.0000
