data_image0
_chemical_formula_structural       Ir4Lu2Nb2Sb4
_chemical_formula_sum              "Ir4 Lu2 Nb2 Sb4"
_cell_length_a       4.49395
_cell_length_b       6.33796
_cell_length_c       8.95696
_cell_angle_alpha    90
_cell_angle_beta     90
_cell_angle_gamma    90

_space_group_name_H-M_alt    "P 1"
_space_group_IT_number       1

loop_
  _space_group_symop_operation_xyz
  'x, y, z'

loop_
  _atom_site_type_symbol
  _atom_site_label
  _atom_site_symmetry_multiplicity
  _atom_site_fract_x
  _atom_site_fract_y
  _atom_site_fract_z
  _atom_site_occupancy
  Ir  Ir1       1.0  0.00000  0.73500  0.11300  1.0000
  Ir  Ir2       1.0  0.50000  0.26800  0.35800  1.0000
  Ir  Ir3       1.0  0.00000  0.76800  0.64200  1.0000
  Ir  Ir4       1.0  0.50000  0.23500  0.88700  1.0000
  Lu  Lu1       1.0  0.00000  0.00527  0.37500  1.0000
  Lu  Lu2       1.0  0.50000  0.50500  0.62500  1.0000
  Nb  Nb1       1.0  0.50000  0.49500  0.12200  1.0000
  Nb  Nb2       1.0  0.00000  0.99500  0.87800  1.0000
  Sb  Sb1       1.0  0.50000  0.98800  0.12800  1.0000
  Sb  Sb2       1.0  0.00000  0.51000  0.37700  1.0000
  Sb  Sb3       1.0  0.50000  0.00967  0.62300  1.0000
  Sb  Sb4       1.0  0.00000  0.48800  0.87200  1.0000
