data_image0
_chemical_formula_structural       Fe2Nb4Pd2Sn4
_chemical_formula_sum              "Fe2 Nb4 Pd2 Sn4"
_cell_length_a       7.46687
_cell_length_b       7.46687
_cell_length_c       7.46687
_cell_angle_alpha    131.46
_cell_angle_beta     131.46
_cell_angle_gamma    71.0838

_space_group_name_H-M_alt    "P 1"
_space_group_IT_number       1

loop_
  _space_group_symop_operation_xyz
  'x, y, z'

loop_
  _atom_site_type_symbol
  _atom_site_label
  _atom_site_symmetry_multiplicity
  _atom_site_fract_x
  _atom_site_fract_y
  _atom_site_fract_z
  _atom_site_occupancy
  Fe  Fe1       1.0  0.00000  0.00000  0.00000  1.0000
  Fe  Fe2       1.0  0.75000  0.25000  0.50000  1.0000
  Nb  Nb1       1.0  0.37500  0.89500  0.02030  1.0000
  Nb  Nb2       1.0  0.10500  0.12500  0.48000  1.0000
  Nb  Nb3       1.0  0.64500  0.62500  0.52000  1.0000
  Nb  Nb4       1.0  0.87500  0.35500  0.98000  1.0000
  Pd  Pd1       1.0  0.50000  0.50000  0.00000  1.0000
  Pd  Pd2       1.0  0.25000  0.75000  0.50000  1.0000
  Sn  Sn1       1.0  0.63100  0.12500  0.00633  1.0000
  Sn  Sn2       1.0  0.37500  0.36900  0.49400  1.0000
  Sn  Sn3       1.0  0.87500  0.88100  0.50600  1.0000
  Sn  Sn4       1.0  0.11900  0.62500  0.99400  1.0000
