data_image0
_chemical_formula_structural       Ir4Sb4Sc2Ta2
_chemical_formula_sum              "Ir4 Sb4 Sc2 Ta2"
_cell_length_a       4.44115
_cell_length_b       6.27256
_cell_length_c       8.86857
_cell_angle_alpha    90
_cell_angle_beta     90
_cell_angle_gamma    90

_space_group_name_H-M_alt    "P 1"
_space_group_IT_number       1

loop_
  _space_group_symop_operation_xyz
  'x, y, z'

loop_
  _atom_site_type_symbol
  _atom_site_label
  _atom_site_symmetry_multiplicity
  _atom_site_fract_x
  _atom_site_fract_y
  _atom_site_fract_z
  _atom_site_occupancy
  Ir  Ir1       1.0  0.00000  0.73500  0.11400  1.0000
  Ir  Ir2       1.0  0.50000  0.26500  0.36300  1.0000
  Ir  Ir3       1.0  0.00000  0.76500  0.63700  1.0000
  Ir  Ir4       1.0  0.50000  0.23500  0.88600  1.0000
  Sb  Sb1       1.0  0.50000  0.98900  0.13200  1.0000
  Sb  Sb2       1.0  0.00000  0.50900  0.38100  1.0000
  Sb  Sb3       1.0  0.50000  0.00936  0.61900  1.0000
  Sb  Sb4       1.0  0.00000  0.48900  0.86800  1.0000
  Sc  Sc1       1.0  0.00000  0.00645  0.37500  1.0000
  Sc  Sc2       1.0  0.50000  0.50600  0.62500  1.0000
  Ta  Ta1       1.0  0.50000  0.49500  0.12300  1.0000
  Ta  Ta2       1.0  0.00000  0.99500  0.87700  1.0000
