data_image0
_chemical_formula_structural       Fe2Pd2Sb4Zr4
_chemical_formula_sum              "Fe2 Pd2 Sb4 Zr4"
_cell_length_a       7.62767
_cell_length_b       7.62767
_cell_length_c       7.62767
_cell_angle_alpha    131.477
_cell_angle_beta     131.477
_cell_angle_gamma    71.0558

_space_group_name_H-M_alt    "P 1"
_space_group_IT_number       1

loop_
  _space_group_symop_operation_xyz
  'x, y, z'

loop_
  _atom_site_type_symbol
  _atom_site_label
  _atom_site_symmetry_multiplicity
  _atom_site_fract_x
  _atom_site_fract_y
  _atom_site_fract_z
  _atom_site_occupancy
  Fe  Fe1       1.0  0.00000  0.00000  0.00000  1.0000
  Fe  Fe2       1.0  0.75000  0.25000  0.50000  1.0000
  Pd  Pd1       1.0  0.50000  0.50000  0.00000  1.0000
  Pd  Pd2       1.0  0.25000  0.75000  0.50000  1.0000
  Sb  Sb1       1.0  0.63900  0.12500  0.01430  1.0000
  Sb  Sb2       1.0  0.37500  0.36100  0.48600  1.0000
  Sb  Sb3       1.0  0.87500  0.88900  0.51400  1.0000
  Sb  Sb4       1.0  0.11100  0.62500  0.98600  1.0000
  Zr  Zr1       1.0  0.37500  0.88700  0.01240  1.0000
  Zr  Zr2       1.0  0.11300  0.12500  0.48800  1.0000
  Zr  Zr3       1.0  0.63700  0.62500  0.51200  1.0000
  Zr  Zr4       1.0  0.87500  0.36300  0.98800  1.0000
