data_image0
_chemical_formula_structural       Co4Nb2Sb4Sc2
_chemical_formula_sum              "Co4 Nb2 Sb4 Sc2"
_cell_length_a       5.99438
_cell_length_b       4.23408
_cell_length_c       8.47592
_cell_angle_alpha    90
_cell_angle_beta     90
_cell_angle_gamma    90

_space_group_name_H-M_alt    "P 1"
_space_group_IT_number       1

loop_
  _space_group_symop_operation_xyz
  'x, y, z'

loop_
  _atom_site_type_symbol
  _atom_site_label
  _atom_site_symmetry_multiplicity
  _atom_site_fract_x
  _atom_site_fract_y
  _atom_site_fract_z
  _atom_site_occupancy
  Co  Co1       1.0  0.73700  0.50000  0.11500  1.0000
  Co  Co2       1.0  0.26400  0.00000  0.36200  1.0000
  Co  Co3       1.0  0.76400  0.50000  0.63800  1.0000
  Co  Co4       1.0  0.23700  0.00000  0.88500  1.0000
  Nb  Nb1       1.0  0.49200  0.00000  0.12500  1.0000
  Nb  Nb2       1.0  0.99200  0.50000  0.87500  1.0000
  Sb  Sb1       1.0  0.99000  0.00000  0.12700  1.0000
  Sb  Sb2       1.0  0.50900  0.50000  0.37700  1.0000
  Sb  Sb3       1.0  0.00889  0.00000  0.62300  1.0000
  Sb  Sb4       1.0  0.49000  0.50000  0.87300  1.0000
  Sc  Sc1       1.0  0.00765  0.50000  0.37600  1.0000
  Sc  Sc2       1.0  0.50800  0.00000  0.62400  1.0000
