data_image0
_chemical_formula_structural       Bi4Fe2Pt2Ti4
_chemical_formula_sum              "Bi4 Fe2 Pt2 Ti4"
_cell_length_a       7.56394
_cell_length_b       7.56394
_cell_length_c       6.22228
_cell_angle_alpha    114.287
_cell_angle_beta     114.287
_cell_angle_gamma    48.5746

_space_group_name_H-M_alt    "P 1"
_space_group_IT_number       1

loop_
  _space_group_symop_operation_xyz
  'x, y, z'

loop_
  _atom_site_type_symbol
  _atom_site_label
  _atom_site_symmetry_multiplicity
  _atom_site_fract_x
  _atom_site_fract_y
  _atom_site_fract_z
  _atom_site_occupancy
  Bi  Bi1       1.0  0.10400  0.89600  0.00000  1.0000
  Bi  Bi2       1.0  0.87500  0.62500  0.27100  1.0000
  Bi  Bi3       1.0  0.64600  0.35400  0.50000  1.0000
  Bi  Bi4       1.0  0.37500  0.12500  0.72900  1.0000
  Fe  Fe1       1.0  0.00000  0.25000  0.37500  1.0000
  Fe  Fe2       1.0  0.75000  0.00000  0.62500  1.0000
  Pt  Pt1       1.0  0.25000  0.50000  0.12500  1.0000
  Pt  Pt2       1.0  0.50000  0.75000  0.87500  1.0000
  Ti  Ti1       1.0  0.63400  0.36600  0.00000  1.0000
  Ti  Ti2       1.0  0.37500  0.12500  0.25900  1.0000
  Ti  Ti3       1.0  0.11600  0.88400  0.50000  1.0000
  Ti  Ti4       1.0  0.87500  0.62500  0.74100  1.0000
