data_image0
_chemical_formula_structural       Fe2Pt2Sb4Ti4
_chemical_formula_sum              "Fe2 Pt2 Sb4 Ti4"
_cell_length_a       6.08951
_cell_length_b       6.08951
_cell_length_c       7.39087
_cell_angle_alpha    65.6719
_cell_angle_beta     65.6719
_cell_angle_gamma    90

_space_group_name_H-M_alt    "P 1"
_space_group_IT_number       1

loop_
  _space_group_symop_operation_xyz
  'x, y, z'

loop_
  _atom_site_type_symbol
  _atom_site_label
  _atom_site_symmetry_multiplicity
  _atom_site_fract_x
  _atom_site_fract_y
  _atom_site_fract_z
  _atom_site_occupancy
  Fe  Fe1       1.0  0.00000  0.00000  0.00000  1.0000
  Fe  Fe2       1.0  0.25000  0.75000  0.50000  1.0000
  Pt  Pt1       1.0  0.50000  0.50000  0.00000  1.0000
  Pt  Pt2       1.0  0.75000  0.25000  0.50000  1.0000
  Sb  Sb1       1.0  0.62500  0.10600  0.25000  1.0000
  Sb  Sb2       1.0  0.12500  0.64400  0.25000  1.0000
  Sb  Sb3       1.0  0.35600  0.37500  0.75000  1.0000
  Sb  Sb4       1.0  0.89400  0.87500  0.75000  1.0000
  Ti  Ti1       1.0  0.12500  0.11200  0.25000  1.0000
  Ti  Ti2       1.0  0.62500  0.63800  0.25000  1.0000
  Ti  Ti3       1.0  0.36200  0.87500  0.75000  1.0000
  Ti  Ti4       1.0  0.88800  0.37500  0.75000  1.0000
