data_image0
_chemical_formula_structural       Pt4Sn4Ta2Y2
_chemical_formula_sum              "Pt4 Sn4 Ta2 Y2"
_cell_length_a       6.43699
_cell_length_b       4.52946
_cell_length_c       9.09099
_cell_angle_alpha    90
_cell_angle_beta     90
_cell_angle_gamma    90

_space_group_name_H-M_alt    "P 1"
_space_group_IT_number       1

loop_
  _space_group_symop_operation_xyz
  'x, y, z'

loop_
  _atom_site_type_symbol
  _atom_site_label
  _atom_site_symmetry_multiplicity
  _atom_site_fract_x
  _atom_site_fract_y
  _atom_site_fract_z
  _atom_site_occupancy
  Pt  Pt1       1.0  0.73400  0.00000  0.11000  1.0000
  Pt  Pt2       1.0  0.26900  0.50000  0.35400  1.0000
  Pt  Pt3       1.0  0.76900  0.00000  0.64600  1.0000
  Pt  Pt4       1.0  0.23400  0.50000  0.89000  1.0000
  Sn  Sn1       1.0  0.98400  0.50000  0.12600  1.0000
  Sn  Sn2       1.0  0.51100  0.00000  0.37200  1.0000
  Sn  Sn3       1.0  0.01150  0.50000  0.62800  1.0000
  Sn  Sn4       1.0  0.48400  0.00000  0.87400  1.0000
  Ta  Ta1       1.0  0.49700  0.50000  0.12200  1.0000
  Ta  Ta2       1.0  0.99700  0.00000  0.87800  1.0000
  Y   Y1        1.0  0.00403  0.00000  0.37600  1.0000
  Y   Y2        1.0  0.50400  0.50000  0.62400  1.0000
