data_image0
_chemical_formula_structural       Os2Pt2Sb4Zr4
_chemical_formula_sum              "Os2 Pt2 Sb4 Zr4"
_cell_length_a       7.80767
_cell_length_b       7.80767
_cell_length_c       6.38533
_cell_angle_alpha    114.137
_cell_angle_beta     114.137
_cell_angle_gamma    109.339

_space_group_name_H-M_alt    "P 1"
_space_group_IT_number       1

loop_
  _space_group_symop_operation_xyz
  'x, y, z'

loop_
  _atom_site_type_symbol
  _atom_site_label
  _atom_site_symmetry_multiplicity
  _atom_site_fract_x
  _atom_site_fract_y
  _atom_site_fract_z
  _atom_site_occupancy
  Os  Os1       1.0  0.00000  0.00000  0.00000  1.0000
  Os  Os2       1.0  0.25000  0.75000  0.50000  1.0000
  Pt  Pt1       1.0  0.50000  0.50000  0.00000  1.0000
  Pt  Pt2       1.0  0.75000  0.25000  0.50000  1.0000
  Sb  Sb1       1.0  0.88500  0.63500  0.00984  1.0000
  Sb  Sb2       1.0  0.12500  0.37500  0.49000  1.0000
  Sb  Sb3       1.0  0.62500  0.87500  0.51000  1.0000
  Sb  Sb4       1.0  0.36500  0.11500  0.99000  1.0000
  Zr  Zr1       1.0  0.12500  0.37500  0.00106  1.0000
  Zr  Zr2       1.0  0.37400  0.12400  0.49900  1.0000
  Zr  Zr3       1.0  0.87600  0.62600  0.50100  1.0000
  Zr  Zr4       1.0  0.62500  0.87500  0.99900  1.0000
