data_image0
_chemical_formula_structural       Bi4Lu2Rh4V2
_chemical_formula_sum              "Bi4 Lu2 Rh4 V2"
_cell_length_a       6.36261
_cell_length_b       4.54911
_cell_length_c       8.88822
_cell_angle_alpha    90
_cell_angle_beta     90
_cell_angle_gamma    90

_space_group_name_H-M_alt    "P 1"
_space_group_IT_number       1

loop_
  _space_group_symop_operation_xyz
  'x, y, z'

loop_
  _atom_site_type_symbol
  _atom_site_label
  _atom_site_symmetry_multiplicity
  _atom_site_fract_x
  _atom_site_fract_y
  _atom_site_fract_z
  _atom_site_occupancy
  Bi  Bi1       1.0  0.97300  0.50000  0.12400  1.0000
  Bi  Bi2       1.0  0.51800  0.00000  0.37400  1.0000
  Bi  Bi3       1.0  0.01780  0.50000  0.62600  1.0000
  Bi  Bi4       1.0  0.47300  0.00000  0.87600  1.0000
  Lu  Lu1       1.0  0.01310  0.00000  0.37400  1.0000
  Lu  Lu2       1.0  0.51300  0.50000  0.62600  1.0000
  Rh  Rh1       1.0  0.73500  0.00000  0.10800  1.0000
  Rh  Rh2       1.0  0.27600  0.50000  0.34800  1.0000
  Rh  Rh3       1.0  0.77600  0.00000  0.65200  1.0000
  Rh  Rh4       1.0  0.23500  0.50000  0.89200  1.0000
  V   V1        1.0  0.48600  0.50000  0.12100  1.0000
  V   V2        1.0  0.98600  0.00000  0.87900  1.0000
