data_image0
_chemical_formula_structural       Ni2Ru2Sb4Zr4
_chemical_formula_sum              "Ni2 Ru2 Sb4 Zr4"
_cell_length_a       6.24605
_cell_length_b       6.24605
_cell_length_c       7.63774
_cell_angle_alpha    65.8647
_cell_angle_beta     65.8647
_cell_angle_gamma    90

_space_group_name_H-M_alt    "P 1"
_space_group_IT_number       1

loop_
  _space_group_symop_operation_xyz
  'x, y, z'

loop_
  _atom_site_type_symbol
  _atom_site_label
  _atom_site_symmetry_multiplicity
  _atom_site_fract_x
  _atom_site_fract_y
  _atom_site_fract_z
  _atom_site_occupancy
  Ni  Ni1       1.0  0.50000  0.50000  0.00000  1.0000
  Ni  Ni2       1.0  0.75000  0.25000  0.50000  1.0000
  Ru  Ru1       1.0  0.00000  0.00000  0.00000  1.0000
  Ru  Ru2       1.0  0.25000  0.75000  0.50000  1.0000
  Sb  Sb1       1.0  0.62500  0.12900  0.25000  1.0000
  Sb  Sb2       1.0  0.12500  0.62100  0.25000  1.0000
  Sb  Sb3       1.0  0.37900  0.37500  0.75000  1.0000
  Sb  Sb4       1.0  0.87100  0.87500  0.75000  1.0000
  Zr  Zr1       1.0  0.62500  0.62300  0.25000  1.0000
  Zr  Zr2       1.0  0.12500  0.12700  0.25000  1.0000
  Zr  Zr3       1.0  0.37700  0.87500  0.75000  1.0000
  Zr  Zr4       1.0  0.87300  0.37500  0.75000  1.0000
