data_image0
_chemical_formula_structural       Os2Pd2Sb4Ti4
_chemical_formula_sum              "Os2 Pd2 Sb4 Ti4"
_cell_length_a       6.19125
_cell_length_b       6.19125
_cell_length_c       7.56058
_cell_angle_alpha    65.8302
_cell_angle_beta     65.8302
_cell_angle_gamma    90

_space_group_name_H-M_alt    "P 1"
_space_group_IT_number       1

loop_
  _space_group_symop_operation_xyz
  'x, y, z'

loop_
  _atom_site_type_symbol
  _atom_site_label
  _atom_site_symmetry_multiplicity
  _atom_site_fract_x
  _atom_site_fract_y
  _atom_site_fract_z
  _atom_site_occupancy
  Os  Os1       1.0  0.00000  0.00000  0.00000  1.0000
  Os  Os2       1.0  0.25000  0.75000  0.50000  1.0000
  Pd  Pd1       1.0  0.50000  0.50000  0.00000  1.0000
  Pd  Pd2       1.0  0.75000  0.25000  0.50000  1.0000
  Sb  Sb1       1.0  0.12500  0.62700  0.25000  1.0000
  Sb  Sb2       1.0  0.62500  0.12300  0.25000  1.0000
  Sb  Sb3       1.0  0.87700  0.87500  0.75000  1.0000
  Sb  Sb4       1.0  0.37300  0.37500  0.75000  1.0000
  Ti  Ti1       1.0  0.62500  0.63500  0.25000  1.0000
  Ti  Ti2       1.0  0.12500  0.11500  0.25000  1.0000
  Ti  Ti3       1.0  0.88500  0.37500  0.75000  1.0000
  Ti  Ti4       1.0  0.36500  0.87500  0.75000  1.0000
