data_image0
_chemical_formula_structural       Fe2Hf4Ni2Sb4
_chemical_formula_sum              "Fe2 Hf4 Ni2 Sb4"
_cell_length_a       7.44219
_cell_length_b       7.44219
_cell_length_c       7.44219
_cell_angle_alpha    131.764
_cell_angle_beta     131.764
_cell_angle_gamma    70.6024

_space_group_name_H-M_alt    "P 1"
_space_group_IT_number       1

loop_
  _space_group_symop_operation_xyz
  'x, y, z'

loop_
  _atom_site_type_symbol
  _atom_site_label
  _atom_site_symmetry_multiplicity
  _atom_site_fract_x
  _atom_site_fract_y
  _atom_site_fract_z
  _atom_site_occupancy
  Fe  Fe1       1.0  0.00000  0.00000  0.00000  1.0000
  Fe  Fe2       1.0  0.75000  0.25000  0.50000  1.0000
  Hf  Hf1       1.0  0.37500  0.88100  0.00569  1.0000
  Hf  Hf2       1.0  0.11900  0.12500  0.49400  1.0000
  Hf  Hf3       1.0  0.63100  0.62500  0.50600  1.0000
  Hf  Hf4       1.0  0.87500  0.36900  0.99400  1.0000
  Ni  Ni1       1.0  0.50000  0.50000  0.00000  1.0000
  Ni  Ni2       1.0  0.25000  0.75000  0.50000  1.0000
  Sb  Sb1       1.0  0.62700  0.12500  0.00195  1.0000
  Sb  Sb2       1.0  0.37500  0.37300  0.49800  1.0000
  Sb  Sb3       1.0  0.87500  0.87700  0.50200  1.0000
  Sb  Sb4       1.0  0.12300  0.62500  0.99800  1.0000
