data_image0
_chemical_formula_structural       Co4Lu2Sb4V2
_chemical_formula_sum              "Co4 Lu2 Sb4 V2"
_cell_length_a       6.0199
_cell_length_b       4.25209
_cell_length_c       8.45566
_cell_angle_alpha    90
_cell_angle_beta     90
_cell_angle_gamma    90

_space_group_name_H-M_alt    "P 1"
_space_group_IT_number       1

loop_
  _space_group_symop_operation_xyz
  'x, y, z'

loop_
  _atom_site_type_symbol
  _atom_site_label
  _atom_site_symmetry_multiplicity
  _atom_site_fract_x
  _atom_site_fract_y
  _atom_site_fract_z
  _atom_site_occupancy
  Co  Co1       1.0  0.73600  0.00000  0.10900  1.0000
  Co  Co2       1.0  0.27700  0.50000  0.34200  1.0000
  Co  Co3       1.0  0.77700  0.00000  0.65800  1.0000
  Co  Co4       1.0  0.23600  0.50000  0.89100  1.0000
  Lu  Lu1       1.0  0.01010  0.00000  0.37700  1.0000
  Lu  Lu2       1.0  0.51000  0.50000  0.62300  1.0000
  Sb  Sb1       1.0  0.98000  0.50000  0.11900  1.0000
  Sb  Sb2       1.0  0.51200  0.00000  0.36400  1.0000
  Sb  Sb3       1.0  0.01230  0.50000  0.63600  1.0000
  Sb  Sb4       1.0  0.48000  0.00000  0.88100  1.0000
  V   V1        1.0  0.48500  0.50000  0.12100  1.0000
  V   V2        1.0  0.98500  0.00000  0.87900  1.0000
