data_image0
_chemical_formula_structural       Rh4Sb4Sc2Ta2
_chemical_formula_sum              "Rh4 Sb4 Sc2 Ta2"
_cell_length_a       6.23617
_cell_length_b       4.41021
_cell_length_c       8.80756
_cell_angle_alpha    90
_cell_angle_beta     90
_cell_angle_gamma    90

_space_group_name_H-M_alt    "P 1"
_space_group_IT_number       1

loop_
  _space_group_symop_operation_xyz
  'x, y, z'

loop_
  _atom_site_type_symbol
  _atom_site_label
  _atom_site_symmetry_multiplicity
  _atom_site_fract_x
  _atom_site_fract_y
  _atom_site_fract_z
  _atom_site_occupancy
  Rh  Rh1       1.0  0.73700  0.00000  0.11400  1.0000
  Rh  Rh2       1.0  0.26300  0.50000  0.36300  1.0000
  Rh  Rh3       1.0  0.76300  0.00000  0.63700  1.0000
  Rh  Rh4       1.0  0.23700  0.50000  0.88600  1.0000
  Sb  Sb1       1.0  0.98900  0.50000  0.13000  1.0000
  Sb  Sb2       1.0  0.50900  0.00000  0.37900  1.0000
  Sb  Sb3       1.0  0.00912  0.50000  0.62100  1.0000
  Sb  Sb4       1.0  0.48900  0.00000  0.87000  1.0000
  Sc  Sc1       1.0  0.00654  0.00000  0.37600  1.0000
  Sc  Sc2       1.0  0.50700  0.50000  0.62400  1.0000
  Ta  Ta1       1.0  0.49500  0.50000  0.12400  1.0000
  Ta  Ta2       1.0  0.99500  0.00000  0.87600  1.0000
