data_image0
_chemical_formula_structural       Nb2Pd4Sc2Sn4
_chemical_formula_sum              "Nb2 Pd4 Sc2 Sn4"
_cell_length_a       4.43815
_cell_length_b       6.29563
_cell_length_c       8.91942
_cell_angle_alpha    90
_cell_angle_beta     90
_cell_angle_gamma    90

_space_group_name_H-M_alt    "P 1"
_space_group_IT_number       1

loop_
  _space_group_symop_operation_xyz
  'x, y, z'

loop_
  _atom_site_type_symbol
  _atom_site_label
  _atom_site_symmetry_multiplicity
  _atom_site_fract_x
  _atom_site_fract_y
  _atom_site_fract_z
  _atom_site_occupancy
  Nb  Nb1       1.0  0.50000  0.49800  0.12700  1.0000
  Nb  Nb2       1.0  0.00000  0.99800  0.87300  1.0000
  Pd  Pd1       1.0  0.00000  0.74400  0.11800  1.0000
  Pd  Pd2       1.0  0.50000  0.25600  0.36700  1.0000
  Pd  Pd3       1.0  0.00000  0.75600  0.63300  1.0000
  Pd  Pd4       1.0  0.50000  0.24400  0.88200  1.0000
  Sc  Sc1       1.0  0.00000  0.00154  0.37800  1.0000
  Sc  Sc2       1.0  0.50000  0.50200  0.62200  1.0000
  Sn  Sn1       1.0  0.50000  0.99500  0.12500  1.0000
  Sn  Sn2       1.0  0.00000  0.50600  0.37500  1.0000
  Sn  Sn3       1.0  0.50000  0.00649  0.62500  1.0000
  Sn  Sn4       1.0  0.00000  0.49500  0.87500  1.0000
