data_image0
_chemical_formula_structural       Ga2Rh4Sb2V4
_chemical_formula_sum              "Ga2 Rh4 Sb2 V4"
_cell_length_a       5.97405
_cell_length_b       5.97405
_cell_length_c       7.3305
_cell_angle_alpha    65.9534
_cell_angle_beta     65.9534
_cell_angle_gamma    90

_space_group_name_H-M_alt    "P 1"
_space_group_IT_number       1

loop_
  _space_group_symop_operation_xyz
  'x, y, z'

loop_
  _atom_site_type_symbol
  _atom_site_label
  _atom_site_symmetry_multiplicity
  _atom_site_fract_x
  _atom_site_fract_y
  _atom_site_fract_z
  _atom_site_occupancy
  Ga  Ga1       1.0  0.00000  0.00000  0.00000  1.0000
  Ga  Ga2       1.0  0.25000  0.75000  0.50000  1.0000
  Rh  Rh1       1.0  0.62500  0.12900  0.25000  1.0000
  Rh  Rh2       1.0  0.12500  0.62100  0.25000  1.0000
  Rh  Rh3       1.0  0.37900  0.37500  0.75000  1.0000
  Rh  Rh4       1.0  0.87100  0.87500  0.75000  1.0000
  Sb  Sb1       1.0  0.50000  0.50000  0.00000  1.0000
  Sb  Sb2       1.0  0.75000  0.25000  0.50000  1.0000
  V   V1        1.0  0.49600  0.99600  0.00806  1.0000
  V   V2        1.0  0.75400  0.75400  0.49200  1.0000
  V   V3        1.0  0.24600  0.24600  0.50800  1.0000
  V   V4        1.0  0.00403  0.50400  0.99200  1.0000
