data_image0
_chemical_formula_structural       Pt2Ru2Sn4Ta4
_chemical_formula_sum              "Pt2 Ru2 Sn4 Ta4"
_cell_length_a       7.61723
_cell_length_b       7.61723
_cell_length_c       7.61723
_cell_angle_alpha    131.702
_cell_angle_beta     131.702
_cell_angle_gamma    70.6998

_space_group_name_H-M_alt    "P 1"
_space_group_IT_number       1

loop_
  _space_group_symop_operation_xyz
  'x, y, z'

loop_
  _atom_site_type_symbol
  _atom_site_label
  _atom_site_symmetry_multiplicity
  _atom_site_fract_x
  _atom_site_fract_y
  _atom_site_fract_z
  _atom_site_occupancy
  Pt  Pt1       1.0  0.37500  0.12500  0.25000  1.0000
  Pt  Pt2       1.0  0.12500  0.37500  0.75000  1.0000
  Ru  Ru1       1.0  0.87500  0.62500  0.25000  1.0000
  Ru  Ru2       1.0  0.62500  0.87500  0.75000  1.0000
  Sn  Sn1       1.0  0.75000  0.99600  0.24600  1.0000
  Sn  Sn2       1.0  0.25000  0.50400  0.25400  1.0000
  Sn  Sn3       1.0  0.99600  0.75000  0.74600  1.0000
  Sn  Sn4       1.0  0.50400  0.25000  0.75400  1.0000
  Ta  Ta1       1.0  0.99200  0.25000  0.24200  1.0000
  Ta  Ta2       1.0  0.50800  0.75000  0.25800  1.0000
  Ta  Ta3       1.0  0.25000  0.99200  0.74200  1.0000
  Ta  Ta4       1.0  0.75000  0.50800  0.75800  1.0000
