data_image0
_chemical_formula_structural       Al2Pt4Sb2Ti4
_chemical_formula_sum              "Al2 Pt4 Sb2 Ti4"
_cell_length_a       7.48637
_cell_length_b       7.48637
_cell_length_c       6.11341
_cell_angle_alpha    114.098
_cell_angle_beta     114.098
_cell_angle_gamma    109.46

_space_group_name_H-M_alt    "P 1"
_space_group_IT_number       1

loop_
  _space_group_symop_operation_xyz
  'x, y, z'

loop_
  _atom_site_type_symbol
  _atom_site_label
  _atom_site_symmetry_multiplicity
  _atom_site_fract_x
  _atom_site_fract_y
  _atom_site_fract_z
  _atom_site_occupancy
  Al  Al1       1.0  0.00000  0.00000  0.00000  1.0000
  Al  Al2       1.0  0.25000  0.75000  0.50000  1.0000
  Pt  Pt1       1.0  0.88900  0.63900  0.01430  1.0000
  Pt  Pt2       1.0  0.12500  0.37500  0.48600  1.0000
  Pt  Pt3       1.0  0.62500  0.87500  0.51400  1.0000
  Pt  Pt4       1.0  0.36100  0.11100  0.98600  1.0000
  Sb  Sb1       1.0  0.50000  0.50000  0.00000  1.0000
  Sb  Sb2       1.0  0.75000  0.25000  0.50000  1.0000
  Ti  Ti1       1.0  0.75500  0.24500  0.00000  1.0000
  Ti  Ti2       1.0  0.24500  0.75500  0.00000  1.0000
  Ti  Ti3       1.0  0.49500  0.50500  0.50000  1.0000
  Ti  Ti4       1.0  0.00524  0.99500  0.50000  1.0000
