data_image0
_chemical_formula_structural       Bi2Co4In2V4
_chemical_formula_sum              "Bi2 Co4 In2 V4"
_cell_length_a       7.19164
_cell_length_b       7.19164
_cell_length_c       5.86412
_cell_angle_alpha    65.9393
_cell_angle_beta     65.9393
_cell_angle_gamma    48.1214

_space_group_name_H-M_alt    "P 1"
_space_group_IT_number       1

loop_
  _space_group_symop_operation_xyz
  'x, y, z'

loop_
  _atom_site_type_symbol
  _atom_site_label
  _atom_site_symmetry_multiplicity
  _atom_site_fract_x
  _atom_site_fract_y
  _atom_site_fract_z
  _atom_site_occupancy
  Bi  Bi1       1.0  0.50000  0.50000  0.50000  1.0000
  Bi  Bi2       1.0  0.75000  0.75000  0.75000  1.0000
  Co  Co1       1.0  0.87800  0.37200  0.12500  1.0000
  Co  Co2       1.0  0.12500  0.62500  0.37200  1.0000
  Co  Co3       1.0  0.37200  0.87800  0.62500  1.0000
  Co  Co4       1.0  0.62500  0.12500  0.87800  1.0000
  In  In1       1.0  0.00000  0.00000  0.00000  1.0000
  In  In2       1.0  0.25000  0.25000  0.25000  1.0000
  V   V1        1.0  0.49400  0.49400  0.00614  1.0000
  V   V2        1.0  0.75600  0.75600  0.24400  1.0000
  V   V3        1.0  0.00614  0.00614  0.49400  1.0000
  V   V4        1.0  0.24400  0.24400  0.75600  1.0000
