data_image0
_chemical_formula_structural       La2Ni4Sn4V2
_chemical_formula_sum              "La2 Ni4 Sn4 V2"
_cell_length_a       6.36212
_cell_length_b       4.33721
_cell_length_c       8.85434
_cell_angle_alpha    90
_cell_angle_beta     90
_cell_angle_gamma    90

_space_group_name_H-M_alt    "P 1"
_space_group_IT_number       1

loop_
  _space_group_symop_operation_xyz
  'x, y, z'

loop_
  _atom_site_type_symbol
  _atom_site_label
  _atom_site_symmetry_multiplicity
  _atom_site_fract_x
  _atom_site_fract_y
  _atom_site_fract_z
  _atom_site_occupancy
  La  La1       1.0  0.00000  0.50000  0.38400  1.0000
  La  La2       1.0  0.50000  0.00000  0.61600  1.0000
  Ni  Ni1       1.0  0.74400  0.50000  0.10200  1.0000
  Ni  Ni2       1.0  0.27800  0.00000  0.32100  1.0000
  Ni  Ni3       1.0  0.77800  0.50000  0.67900  1.0000
  Ni  Ni4       1.0  0.24400  0.00000  0.89800  1.0000
  Sn  Sn1       1.0  0.97500  0.00000  0.10500  1.0000
  Sn  Sn2       1.0  0.50400  0.50000  0.33600  1.0000
  Sn  Sn3       1.0  0.00367  0.00000  0.66400  1.0000
  Sn  Sn4       1.0  0.47500  0.50000  0.89500  1.0000
  V   V1        1.0  0.50000  0.00000  0.11700  1.0000
  V   V2        1.0  0.00000  0.50000  0.88300  1.0000
