data_image0
_chemical_formula_structural       Lu2Nb2Rh4Sb4
_chemical_formula_sum              "Lu2 Nb2 Rh4 Sb4"
_cell_length_a       6.31404
_cell_length_b       4.46687
_cell_length_c       8.90951
_cell_angle_alpha    90
_cell_angle_beta     90
_cell_angle_gamma    90

_space_group_name_H-M_alt    "P 1"
_space_group_IT_number       1

loop_
  _space_group_symop_operation_xyz
  'x, y, z'

loop_
  _atom_site_type_symbol
  _atom_site_label
  _atom_site_symmetry_multiplicity
  _atom_site_fract_x
  _atom_site_fract_y
  _atom_site_fract_z
  _atom_site_occupancy
  Lu  Lu1       1.0  0.00462  0.50000  0.37600  1.0000
  Lu  Lu2       1.0  0.50500  0.00000  0.62400  1.0000
  Nb  Nb1       1.0  0.49600  0.00000  0.12300  1.0000
  Nb  Nb2       1.0  0.99600  0.50000  0.87700  1.0000
  Rh  Rh1       1.0  0.73700  0.50000  0.11300  1.0000
  Rh  Rh2       1.0  0.26500  0.00000  0.35800  1.0000
  Rh  Rh3       1.0  0.76500  0.50000  0.64200  1.0000
  Rh  Rh4       1.0  0.23700  0.00000  0.88700  1.0000
  Sb  Sb1       1.0  0.98800  0.00000  0.12600  1.0000
  Sb  Sb2       1.0  0.50900  0.50000  0.37400  1.0000
  Sb  Sb3       1.0  0.00904  0.00000  0.62600  1.0000
  Sb  Sb4       1.0  0.48800  0.50000  0.87400  1.0000
