data_image0
_chemical_formula_structural       Fe2Hf4Pt2Sb4
_chemical_formula_sum              "Fe2 Hf4 Pt2 Sb4"
_cell_length_a       6.25072
_cell_length_b       6.25072
_cell_length_c       7.59787
_cell_angle_alpha    65.7105
_cell_angle_beta     65.7105
_cell_angle_gamma    90

_space_group_name_H-M_alt    "P 1"
_space_group_IT_number       1

loop_
  _space_group_symop_operation_xyz
  'x, y, z'

loop_
  _atom_site_type_symbol
  _atom_site_label
  _atom_site_symmetry_multiplicity
  _atom_site_fract_x
  _atom_site_fract_y
  _atom_site_fract_z
  _atom_site_occupancy
  Fe  Fe1       1.0  0.00000  0.00000  0.00000  1.0000
  Fe  Fe2       1.0  0.25000  0.75000  0.50000  1.0000
  Hf  Hf1       1.0  0.12500  0.11600  0.25000  1.0000
  Hf  Hf2       1.0  0.62500  0.63400  0.25000  1.0000
  Hf  Hf3       1.0  0.36600  0.87500  0.75000  1.0000
  Hf  Hf4       1.0  0.88400  0.37500  0.75000  1.0000
  Pt  Pt1       1.0  0.50000  0.50000  0.00000  1.0000
  Pt  Pt2       1.0  0.75000  0.25000  0.50000  1.0000
  Sb  Sb1       1.0  0.62500  0.10400  0.25000  1.0000
  Sb  Sb2       1.0  0.12500  0.64600  0.25000  1.0000
  Sb  Sb3       1.0  0.35400  0.37500  0.75000  1.0000
  Sb  Sb4       1.0  0.89600  0.87500  0.75000  1.0000
