data_image0
_chemical_formula_structural       Nb4Ni2Ru2Sn4
_chemical_formula_sum              "Nb4 Ni2 Ru2 Sn4"
_cell_length_a       7.47887
_cell_length_b       7.47887
_cell_length_c       7.47887
_cell_angle_alpha    131.655
_cell_angle_beta     131.655
_cell_angle_gamma    70.7737

_space_group_name_H-M_alt    "P 1"
_space_group_IT_number       1

loop_
  _space_group_symop_operation_xyz
  'x, y, z'

loop_
  _atom_site_type_symbol
  _atom_site_label
  _atom_site_symmetry_multiplicity
  _atom_site_fract_x
  _atom_site_fract_y
  _atom_site_fract_z
  _atom_site_occupancy
  Nb  Nb1       1.0  0.99800  0.25000  0.24800  1.0000
  Nb  Nb2       1.0  0.50200  0.75000  0.25200  1.0000
  Nb  Nb3       1.0  0.25000  0.99800  0.74800  1.0000
  Nb  Nb4       1.0  0.75000  0.50200  0.75200  1.0000
  Ni  Ni1       1.0  0.37500  0.12500  0.25000  1.0000
  Ni  Ni2       1.0  0.12500  0.37500  0.75000  1.0000
  Ru  Ru1       1.0  0.87500  0.62500  0.25000  1.0000
  Ru  Ru2       1.0  0.62500  0.87500  0.75000  1.0000
  Sn  Sn1       1.0  0.25000  0.48800  0.23800  1.0000
  Sn  Sn2       1.0  0.75000  0.01170  0.26200  1.0000
  Sn  Sn3       1.0  0.48800  0.25000  0.73800  1.0000
  Sn  Sn4       1.0  0.01170  0.75000  0.76200  1.0000
