data_image0
_chemical_formula_structural       Lu2Nb2Pt4Sn4
_chemical_formula_sum              "Lu2 Nb2 Pt4 Sn4"
_cell_length_a       6.39365
_cell_length_b       4.50875
_cell_length_c       9.03308
_cell_angle_alpha    90
_cell_angle_beta     90
_cell_angle_gamma    90

_space_group_name_H-M_alt    "P 1"
_space_group_IT_number       1

loop_
  _space_group_symop_operation_xyz
  'x, y, z'

loop_
  _atom_site_type_symbol
  _atom_site_label
  _atom_site_symmetry_multiplicity
  _atom_site_fract_x
  _atom_site_fract_y
  _atom_site_fract_z
  _atom_site_occupancy
  Lu  Lu1       1.0  0.00160  0.00000  0.37600  1.0000
  Lu  Lu2       1.0  0.50200  0.50000  0.62400  1.0000
  Nb  Nb1       1.0  0.49800  0.50000  0.12500  1.0000
  Nb  Nb2       1.0  0.99800  0.00000  0.87500  1.0000
  Pt  Pt1       1.0  0.74000  0.00000  0.11400  1.0000
  Pt  Pt2       1.0  0.26100  0.50000  0.36200  1.0000
  Pt  Pt3       1.0  0.76100  0.00000  0.63800  1.0000
  Pt  Pt4       1.0  0.24000  0.50000  0.88600  1.0000
  Sn  Sn1       1.0  0.99000  0.50000  0.12500  1.0000
  Sn  Sn2       1.0  0.50800  0.00000  0.37400  1.0000
  Sn  Sn3       1.0  0.00833  0.50000  0.62600  1.0000
  Sn  Sn4       1.0  0.49000  0.00000  0.87500  1.0000
