data_image0
_chemical_formula_structural       Al2Pd4Sb2Ti4
_chemical_formula_sum              "Al2 Pd4 Sb2 Ti4"
_cell_length_a       6.0864
_cell_length_b       6.0864
_cell_length_c       7.4523
_cell_angle_alpha    65.8983
_cell_angle_beta     65.8983
_cell_angle_gamma    90

_space_group_name_H-M_alt    "P 1"
_space_group_IT_number       1

loop_
  _space_group_symop_operation_xyz
  'x, y, z'

loop_
  _atom_site_type_symbol
  _atom_site_label
  _atom_site_symmetry_multiplicity
  _atom_site_fract_x
  _atom_site_fract_y
  _atom_site_fract_z
  _atom_site_occupancy
  Al  Al1       1.0  0.00000  0.00000  0.00000  1.0000
  Al  Al2       1.0  0.25000  0.75000  0.50000  1.0000
  Pd  Pd1       1.0  0.62500  0.11300  0.25000  1.0000
  Pd  Pd2       1.0  0.12500  0.63700  0.25000  1.0000
  Pd  Pd3       1.0  0.88700  0.87500  0.75000  1.0000
  Pd  Pd4       1.0  0.36300  0.37500  0.75000  1.0000
  Sb  Sb1       1.0  0.50000  0.50000  0.00000  1.0000
  Sb  Sb2       1.0  0.75000  0.25000  0.50000  1.0000
  Ti  Ti1       1.0  0.49500  0.99500  0.00929  1.0000
  Ti  Ti2       1.0  0.75500  0.75500  0.49100  1.0000
  Ti  Ti3       1.0  0.24500  0.24500  0.50900  1.0000
  Ti  Ti4       1.0  0.00464  0.50500  0.99100  1.0000
