data_image0
_chemical_formula_structural       Er4Ir4Si4
_chemical_formula_sum              "Er4 Ir4 Si4"
_cell_length_a       6.79382
_cell_length_b       4.21105
_cell_length_c       7.44094
_cell_angle_alpha    90
_cell_angle_beta     90
_cell_angle_gamma    90

_space_group_name_H-M_alt    "P 1"
_space_group_IT_number       1

loop_
  _space_group_symop_operation_xyz
  'x, y, z'

loop_
  _atom_site_type_symbol
  _atom_site_label
  _atom_site_symmetry_multiplicity
  _atom_site_fract_x
  _atom_site_fract_y
  _atom_site_fract_z
  _atom_site_occupancy
  Er  Er1       1.0  0.50500  0.75000  0.18700  1.0000
  Er  Er2       1.0  0.00471  0.75000  0.31300  1.0000
  Er  Er3       1.0  0.99500  0.25000  0.68700  1.0000
  Er  Er4       1.0  0.49500  0.25000  0.81300  1.0000
  Ir  Ir1       1.0  0.84200  0.25000  0.06570  1.0000
  Ir  Ir2       1.0  0.34200  0.25000  0.43400  1.0000
  Ir  Ir3       1.0  0.65800  0.75000  0.56600  1.0000
  Ir  Ir4       1.0  0.15800  0.75000  0.93400  1.0000
  Si  Si1       1.0  0.20400  0.25000  0.11200  1.0000
  Si  Si2       1.0  0.70400  0.25000  0.38800  1.0000
  Si  Si3       1.0  0.29600  0.75000  0.61200  1.0000
  Si  Si4       1.0  0.79600  0.75000  0.88800  1.0000
