data_image0
_chemical_formula_structural       Ir4Nb2Sb4Sc2
_chemical_formula_sum              "Ir4 Nb2 Sb4 Sc2"
_cell_length_a       4.44465
_cell_length_b       6.27519
_cell_length_c       8.86745
_cell_angle_alpha    90
_cell_angle_beta     90
_cell_angle_gamma    90

_space_group_name_H-M_alt    "P 1"
_space_group_IT_number       1

loop_
  _space_group_symop_operation_xyz
  'x, y, z'

loop_
  _atom_site_type_symbol
  _atom_site_label
  _atom_site_symmetry_multiplicity
  _atom_site_fract_x
  _atom_site_fract_y
  _atom_site_fract_z
  _atom_site_occupancy
  Ir  Ir1       1.0  0.00000  0.73700  0.11600  1.0000
  Ir  Ir2       1.0  0.50000  0.26300  0.36400  1.0000
  Ir  Ir3       1.0  0.00000  0.76300  0.63600  1.0000
  Ir  Ir4       1.0  0.50000  0.23700  0.88400  1.0000
  Nb  Nb1       1.0  0.50000  0.49500  0.12400  1.0000
  Nb  Nb2       1.0  0.00000  0.99500  0.87600  1.0000
  Sb  Sb1       1.0  0.50000  0.99000  0.13100  1.0000
  Sb  Sb2       1.0  0.00000  0.50900  0.38100  1.0000
  Sb  Sb3       1.0  0.50000  0.00909  0.61900  1.0000
  Sb  Sb4       1.0  0.00000  0.49000  0.86900  1.0000
  Sc  Sc1       1.0  0.00000  0.00592  0.37500  1.0000
  Sc  Sc2       1.0  0.50000  0.50600  0.62500  1.0000
