data_image0
_chemical_formula_structural       Lu2Rh4Sb4Ta2
_chemical_formula_sum              "Lu2 Rh4 Sb4 Ta2"
_cell_length_a       6.3098
_cell_length_b       4.46222
_cell_length_c       8.90842
_cell_angle_alpha    90
_cell_angle_beta     90
_cell_angle_gamma    90

_space_group_name_H-M_alt    "P 1"
_space_group_IT_number       1

loop_
  _space_group_symop_operation_xyz
  'x, y, z'

loop_
  _atom_site_type_symbol
  _atom_site_label
  _atom_site_symmetry_multiplicity
  _atom_site_fract_x
  _atom_site_fract_y
  _atom_site_fract_z
  _atom_site_occupancy
  Lu  Lu1       1.0  0.00498  0.50000  0.37600  1.0000
  Lu  Lu2       1.0  0.50500  0.00000  0.62400  1.0000
  Rh  Rh1       1.0  0.73600  0.50000  0.11100  1.0000
  Rh  Rh2       1.0  0.26600  0.00000  0.35700  1.0000
  Rh  Rh3       1.0  0.76600  0.50000  0.64300  1.0000
  Rh  Rh4       1.0  0.23600  0.00000  0.88900  1.0000
  Sb  Sb1       1.0  0.98700  0.00000  0.12600  1.0000
  Sb  Sb2       1.0  0.50900  0.50000  0.37400  1.0000
  Sb  Sb3       1.0  0.00911  0.00000  0.62600  1.0000
  Sb  Sb4       1.0  0.48700  0.50000  0.87400  1.0000
  Ta  Ta1       1.0  0.49600  0.00000  0.12300  1.0000
  Ta  Ta2       1.0  0.99600  0.50000  0.87700  1.0000
