data_image0
_chemical_formula_structural       Fe2Nb4Ni2Sn4
_chemical_formula_sum              "Fe2 Nb4 Ni2 Sn4"
_cell_length_a       7.32368
_cell_length_b       7.32368
_cell_length_c       5.98901
_cell_angle_alpha    114.135
_cell_angle_beta     114.135
_cell_angle_gamma    109.346

_space_group_name_H-M_alt    "P 1"
_space_group_IT_number       1

loop_
  _space_group_symop_operation_xyz
  'x, y, z'

loop_
  _atom_site_type_symbol
  _atom_site_label
  _atom_site_symmetry_multiplicity
  _atom_site_fract_x
  _atom_site_fract_y
  _atom_site_fract_z
  _atom_site_occupancy
  Fe  Fe1       1.0  0.00000  0.00000  0.00000  1.0000
  Fe  Fe2       1.0  0.25000  0.75000  0.50000  1.0000
  Nb  Nb1       1.0  0.12500  0.37500  0.01170  1.0000
  Nb  Nb2       1.0  0.36300  0.11300  0.48800  1.0000
  Nb  Nb3       1.0  0.88700  0.63700  0.51200  1.0000
  Nb  Nb4       1.0  0.62500  0.87500  0.98800  1.0000
  Ni  Ni1       1.0  0.50000  0.50000  0.00000  1.0000
  Ni  Ni2       1.0  0.75000  0.25000  0.50000  1.0000
  Sn  Sn1       1.0  0.37900  0.12900  0.00444  1.0000
  Sn  Sn2       1.0  0.62500  0.87500  0.49600  1.0000
  Sn  Sn3       1.0  0.12500  0.37500  0.50400  1.0000
  Sn  Sn4       1.0  0.87100  0.62100  0.99600  1.0000
