data_image0
_chemical_formula_structural       Pt4Sc2Sn4V2
_chemical_formula_sum              "Pt4 Sc2 Sn4 V2"
_cell_length_a       6.25242
_cell_length_b       4.42533
_cell_length_c       8.7994
_cell_angle_alpha    90
_cell_angle_beta     90
_cell_angle_gamma    90

_space_group_name_H-M_alt    "P 1"
_space_group_IT_number       1

loop_
  _space_group_symop_operation_xyz
  'x, y, z'

loop_
  _atom_site_type_symbol
  _atom_site_label
  _atom_site_symmetry_multiplicity
  _atom_site_fract_x
  _atom_site_fract_y
  _atom_site_fract_z
  _atom_site_occupancy
  Pt  Pt1       1.0  0.73700  0.50000  0.11300  1.0000
  Pt  Pt2       1.0  0.26500  0.00000  0.36000  1.0000
  Pt  Pt3       1.0  0.76500  0.50000  0.64000  1.0000
  Pt  Pt4       1.0  0.23700  0.00000  0.88700  1.0000
  Sc  Sc1       1.0  0.00661  0.50000  0.37600  1.0000
  Sc  Sc2       1.0  0.50700  0.00000  0.62400  1.0000
  Sn  Sn1       1.0  0.98300  0.00000  0.12600  1.0000
  Sn  Sn2       1.0  0.51400  0.50000  0.37600  1.0000
  Sn  Sn3       1.0  0.01360  0.00000  0.62400  1.0000
  Sn  Sn4       1.0  0.48300  0.50000  0.87400  1.0000
  V   V1        1.0  0.49500  0.00000  0.12400  1.0000
  V   V2        1.0  0.99500  0.50000  0.87600  1.0000
