data_image0
_chemical_formula_structural       Pt2Ru2Sn4V4
_chemical_formula_sum              "Pt2 Ru2 Sn4 V4"
_cell_length_a       7.44798
_cell_length_b       7.44798
_cell_length_c       6.10034
_cell_angle_alpha    114.175
_cell_angle_beta     114.175
_cell_angle_gamma    109.217

_space_group_name_H-M_alt    "P 1"
_space_group_IT_number       1

loop_
  _space_group_symop_operation_xyz
  'x, y, z'

loop_
  _atom_site_type_symbol
  _atom_site_label
  _atom_site_symmetry_multiplicity
  _atom_site_fract_x
  _atom_site_fract_y
  _atom_site_fract_z
  _atom_site_occupancy
  Pt  Pt1       1.0  0.50000  0.50000  0.00000  1.0000
  Pt  Pt2       1.0  0.75000  0.25000  0.50000  1.0000
  Ru  Ru1       1.0  0.00000  0.00000  0.00000  1.0000
  Ru  Ru2       1.0  0.25000  0.75000  0.50000  1.0000
  Sn  Sn1       1.0  0.87800  0.62800  0.00261  1.0000
  Sn  Sn2       1.0  0.12500  0.37500  0.49700  1.0000
  Sn  Sn3       1.0  0.62500  0.87500  0.50300  1.0000
  Sn  Sn4       1.0  0.37200  0.12200  0.99700  1.0000
  V   V1        1.0  0.12500  0.37500  0.01090  1.0000
  V   V2        1.0  0.36400  0.11400  0.48900  1.0000
  V   V3        1.0  0.88600  0.63600  0.51100  1.0000
  V   V4        1.0  0.62500  0.87500  0.98900  1.0000
