data_image0
_chemical_formula_structural       Ir4La2Sb4V2
_chemical_formula_sum              "Ir4 La2 Sb4 V2"
_cell_length_a       6.47977
_cell_length_b       4.49036
_cell_length_c       9.26623
_cell_angle_alpha    90
_cell_angle_beta     90
_cell_angle_gamma    90

_space_group_name_H-M_alt    "P 1"
_space_group_IT_number       1

loop_
  _space_group_symop_operation_xyz
  'x, y, z'

loop_
  _atom_site_type_symbol
  _atom_site_label
  _atom_site_symmetry_multiplicity
  _atom_site_fract_x
  _atom_site_fract_y
  _atom_site_fract_z
  _atom_site_occupancy
  Ir  Ir1       1.0  0.73400  0.50000  0.10100  1.0000
  Ir  Ir2       1.0  0.28900  0.00000  0.31700  1.0000
  Ir  Ir3       1.0  0.78900  0.50000  0.68300  1.0000
  Ir  Ir4       1.0  0.23400  0.00000  0.89900  1.0000
  La  La1       1.0  0.00305  0.50000  0.38200  1.0000
  La  La2       1.0  0.50300  0.00000  0.61800  1.0000
  Sb  Sb1       1.0  0.97400  0.00000  0.11700  1.0000
  Sb  Sb2       1.0  0.50900  0.50000  0.34600  1.0000
  Sb  Sb3       1.0  0.00854  0.00000  0.65400  1.0000
  Sb  Sb4       1.0  0.47400  0.50000  0.88300  1.0000
  V   V1        1.0  0.49100  0.00000  0.10900  1.0000
  V   V2        1.0  0.99100  0.50000  0.89100  1.0000
