data_image0
_chemical_formula_structural       Ir4La2Nb2Sb4
_chemical_formula_sum              "Ir4 La2 Nb2 Sb4"
_cell_length_a       6.53614
_cell_length_b       4.53634
_cell_length_c       9.37765
_cell_angle_alpha    90
_cell_angle_beta     90
_cell_angle_gamma    90

_space_group_name_H-M_alt    "P 1"
_space_group_IT_number       1

loop_
  _space_group_symop_operation_xyz
  'x, y, z'

loop_
  _atom_site_type_symbol
  _atom_site_label
  _atom_site_symmetry_multiplicity
  _atom_site_fract_x
  _atom_site_fract_y
  _atom_site_fract_z
  _atom_site_occupancy
  Ir  Ir1       1.0  0.73300  0.50000  0.10500  1.0000
  Ir  Ir2       1.0  0.28100  0.00000  0.33300  1.0000
  Ir  Ir3       1.0  0.78100  0.50000  0.66700  1.0000
  Ir  Ir4       1.0  0.23300  0.00000  0.89500  1.0000
  La  La1       1.0  0.00041  0.50000  0.38100  1.0000
  La  La2       1.0  0.50000  0.00000  0.61900  1.0000
  Nb  Nb1       1.0  0.49600  0.00000  0.11300  1.0000
  Nb  Nb2       1.0  0.99600  0.50000  0.88700  1.0000
  Sb  Sb1       1.0  0.98500  0.00000  0.12100  1.0000
  Sb  Sb2       1.0  0.50600  0.50000  0.35300  1.0000
  Sb  Sb3       1.0  0.00556  0.00000  0.64700  1.0000
  Sb  Sb4       1.0  0.48500  0.50000  0.87900  1.0000
