data_image0
_chemical_formula_structural       Ni4Sc2Sn4Ta2
_chemical_formula_sum              "Ni4 Sc2 Sn4 Ta2"
_cell_length_a       6.05517
_cell_length_b       4.26969
_cell_length_c       8.57369
_cell_angle_alpha    90
_cell_angle_beta     90
_cell_angle_gamma    90

_space_group_name_H-M_alt    "P 1"
_space_group_IT_number       1

loop_
  _space_group_symop_operation_xyz
  'x, y, z'

loop_
  _atom_site_type_symbol
  _atom_site_label
  _atom_site_symmetry_multiplicity
  _atom_site_fract_x
  _atom_site_fract_y
  _atom_site_fract_z
  _atom_site_occupancy
  Ni  Ni1       1.0  0.73900  0.00000  0.11500  1.0000
  Ni  Ni2       1.0  0.26100  0.50000  0.36400  1.0000
  Ni  Ni3       1.0  0.76100  0.00000  0.63600  1.0000
  Ni  Ni4       1.0  0.23900  0.50000  0.88500  1.0000
  Sc  Sc1       1.0  0.00604  0.00000  0.37800  1.0000
  Sc  Sc2       1.0  0.50600  0.50000  0.62200  1.0000
  Sn  Sn1       1.0  0.99100  0.50000  0.12600  1.0000
  Sn  Sn2       1.0  0.50800  0.00000  0.37500  1.0000
  Sn  Sn3       1.0  0.00844  0.50000  0.62500  1.0000
  Sn  Sn4       1.0  0.49100  0.00000  0.87400  1.0000
  Ta  Ta1       1.0  0.49500  0.50000  0.12600  1.0000
  Ta  Ta2       1.0  0.99500  0.00000  0.87400  1.0000
