data_image0
_chemical_formula_structural       Lu2Rh4Sb4V2
_chemical_formula_sum              "Lu2 Rh4 Sb4 V2"
_cell_length_a       6.24404
_cell_length_b       4.43309
_cell_length_c       8.75922
_cell_angle_alpha    90
_cell_angle_beta     90
_cell_angle_gamma    90

_space_group_name_H-M_alt    "P 1"
_space_group_IT_number       1

loop_
  _space_group_symop_operation_xyz
  'x, y, z'

loop_
  _atom_site_type_symbol
  _atom_site_label
  _atom_site_symmetry_multiplicity
  _atom_site_fract_x
  _atom_site_fract_y
  _atom_site_fract_z
  _atom_site_occupancy
  Lu  Lu1       1.0  0.00857  0.00000  0.37500  1.0000
  Lu  Lu2       1.0  0.50900  0.50000  0.62500  1.0000
  Rh  Rh1       1.0  0.73500  0.00000  0.10800  1.0000
  Rh  Rh2       1.0  0.27400  0.50000  0.34800  1.0000
  Rh  Rh3       1.0  0.77400  0.00000  0.65200  1.0000
  Rh  Rh4       1.0  0.23500  0.50000  0.89200  1.0000
  Sb  Sb1       1.0  0.97600  0.50000  0.12300  1.0000
  Sb  Sb2       1.0  0.51500  0.00000  0.37100  1.0000
  Sb  Sb3       1.0  0.01480  0.50000  0.62900  1.0000
  Sb  Sb4       1.0  0.47600  0.00000  0.87700  1.0000
  V   V1        1.0  0.49100  0.50000  0.12000  1.0000
  V   V2        1.0  0.99100  0.00000  0.88000  1.0000
