data_image0
_chemical_formula_structural       Fe2N2O2Zr2
_chemical_formula_sum              "Fe2 N2 O2 Zr2"
_cell_length_a       3.36372
_cell_length_b       3.36372
_cell_length_c       7.68883
_cell_angle_alpha    90
_cell_angle_beta     90
_cell_angle_gamma    90

_space_group_name_H-M_alt    "P 1"
_space_group_IT_number       1

loop_
  _space_group_symop_operation_xyz
  'x, y, z'

loop_
  _atom_site_type_symbol
  _atom_site_label
  _atom_site_symmetry_multiplicity
  _atom_site_fract_x
  _atom_site_fract_y
  _atom_site_fract_z
  _atom_site_occupancy
  Fe  Fe1       1.0  0.75000  0.25000  0.50000  1.0000
  Fe  Fe2       1.0  0.25000  0.75000  0.50000  1.0000
  N   N1        1.0  0.75000  0.75000  0.30500  1.0000
  N   N2        1.0  0.25000  0.25000  0.69500  1.0000
  O   O1        1.0  0.75000  0.25000  0.00000  1.0000
  O   O2        1.0  0.25000  0.75000  0.00000  1.0000
  Zr  Zr1       1.0  0.25000  0.25000  0.17100  1.0000
  Zr  Zr2       1.0  0.75000  0.75000  0.82900  1.0000
