data_image0
_chemical_formula_structural       Nb4Pd2Ru2Sn4
_chemical_formula_sum              "Nb4 Pd2 Ru2 Sn4"
_cell_length_a       7.61746
_cell_length_b       7.61746
_cell_length_c       6.23333
_cell_angle_alpha    114.151
_cell_angle_beta     114.151
_cell_angle_gamma    48.3025

_space_group_name_H-M_alt    "P 1"
_space_group_IT_number       1

loop_
  _space_group_symop_operation_xyz
  'x, y, z'

loop_
  _atom_site_type_symbol
  _atom_site_label
  _atom_site_symmetry_multiplicity
  _atom_site_fract_x
  _atom_site_fract_y
  _atom_site_fract_z
  _atom_site_occupancy
  Nb  Nb1       1.0  0.63600  0.36400  0.00000  1.0000
  Nb  Nb2       1.0  0.37500  0.12500  0.26100  1.0000
  Nb  Nb3       1.0  0.11400  0.88600  0.50000  1.0000
  Nb  Nb4       1.0  0.87500  0.62500  0.73900  1.0000
  Pd  Pd1       1.0  0.25000  0.50000  0.12500  1.0000
  Pd  Pd2       1.0  0.50000  0.75000  0.87500  1.0000
  Ru  Ru1       1.0  0.00000  0.25000  0.37500  1.0000
  Ru  Ru2       1.0  0.75000  0.00000  0.62500  1.0000
  Sn  Sn1       1.0  0.12600  0.87400  0.00000  1.0000
  Sn  Sn2       1.0  0.87500  0.62500  0.24900  1.0000
  Sn  Sn3       1.0  0.62400  0.37600  0.50000  1.0000
  Sn  Sn4       1.0  0.37500  0.12500  0.75100  1.0000
