data_image0
_chemical_formula_structural       K8O4Se4
_chemical_formula_sum              "K8 O4 Se4"
_cell_length_a       5.43997
_cell_length_b       6.95416
_cell_length_c       11.7531
_cell_angle_alpha    90
_cell_angle_beta     79.5502
_cell_angle_gamma    90

_space_group_name_H-M_alt    "P 1"
_space_group_IT_number       1

loop_
  _space_group_symop_operation_xyz
  'x, y, z'

loop_
  _atom_site_type_symbol
  _atom_site_label
  _atom_site_symmetry_multiplicity
  _atom_site_fract_x
  _atom_site_fract_y
  _atom_site_fract_z
  _atom_site_occupancy
  K   K1        1.0  0.49500  0.33800  0.01550  1.0000
  K   K2        1.0  0.93500  0.32900  0.16000  1.0000
  K   K3        1.0  0.93200  0.84300  0.16200  1.0000
  K   K4        1.0  0.78800  0.23800  0.47100  1.0000
  K   K5        1.0  0.21200  0.73800  0.52900  1.0000
  K   K6        1.0  0.06820  0.34300  0.83800  1.0000
  K   K7        1.0  0.06460  0.82900  0.84000  1.0000
  K   K8        1.0  0.50500  0.83800  0.98500  1.0000
  O   O1        1.0  0.86000  0.58700  0.00505  1.0000
  O   O2        1.0  0.13600  0.58700  0.00751  1.0000
  O   O3        1.0  0.86400  0.08750  0.99200  1.0000
  O   O4        1.0  0.14000  0.08700  0.99500  1.0000
  Se  Se1       1.0  0.35800  0.06400  0.31500  1.0000
  Se  Se2       1.0  0.36500  0.41300  0.32200  1.0000
  Se  Se3       1.0  0.63500  0.91300  0.67800  1.0000
  Se  Se4       1.0  0.64200  0.56400  0.68500  1.0000
