data_image0
_chemical_formula_structural       Bi2Ga2Rh4V4
_chemical_formula_sum              "Bi2 Ga2 Rh4 V4"
_cell_length_a       7.34442
_cell_length_b       7.34442
_cell_length_c       6.01531
_cell_angle_alpha    114.174
_cell_angle_beta     114.174
_cell_angle_gamma    109.22

_space_group_name_H-M_alt    "P 1"
_space_group_IT_number       1

loop_
  _space_group_symop_operation_xyz
  'x, y, z'

loop_
  _atom_site_type_symbol
  _atom_site_label
  _atom_site_symmetry_multiplicity
  _atom_site_fract_x
  _atom_site_fract_y
  _atom_site_fract_z
  _atom_site_occupancy
  Bi  Bi1       1.0  0.50000  0.50000  0.00000  1.0000
  Bi  Bi2       1.0  0.75000  0.25000  0.50000  1.0000
  Ga  Ga1       1.0  0.00000  0.00000  0.00000  1.0000
  Ga  Ga2       1.0  0.25000  0.75000  0.50000  1.0000
  Rh  Rh1       1.0  0.89800  0.64800  0.02300  1.0000
  Rh  Rh2       1.0  0.12500  0.37500  0.47700  1.0000
  Rh  Rh3       1.0  0.62500  0.87500  0.52300  1.0000
  Rh  Rh4       1.0  0.35200  0.10200  0.97700  1.0000
  V   V1        1.0  0.75900  0.24100  0.00000  1.0000
  V   V2        1.0  0.24100  0.75900  0.00000  1.0000
  V   V3        1.0  0.49100  0.50900  0.50000  1.0000
  V   V4        1.0  0.00934  0.99100  0.50000  1.0000
