data_image0
_chemical_formula_structural       Co4Lu2Sb4Ta2
_chemical_formula_sum              "Co4 Lu2 Sb4 Ta2"
_cell_length_a       6.08449
_cell_length_b       4.29112
_cell_length_c       8.61031
_cell_angle_alpha    90
_cell_angle_beta     90
_cell_angle_gamma    90

_space_group_name_H-M_alt    "P 1"
_space_group_IT_number       1

loop_
  _space_group_symop_operation_xyz
  'x, y, z'

loop_
  _atom_site_type_symbol
  _atom_site_label
  _atom_site_symmetry_multiplicity
  _atom_site_fract_x
  _atom_site_fract_y
  _atom_site_fract_z
  _atom_site_occupancy
  Co  Co1       1.0  0.73500  0.00000  0.11200  1.0000
  Co  Co2       1.0  0.26900  0.50000  0.35400  1.0000
  Co  Co3       1.0  0.76900  0.00000  0.64600  1.0000
  Co  Co4       1.0  0.23500  0.50000  0.88800  1.0000
  Lu  Lu1       1.0  0.00662  0.00000  0.37700  1.0000
  Lu  Lu2       1.0  0.50700  0.50000  0.62300  1.0000
  Sb  Sb1       1.0  0.98900  0.50000  0.12400  1.0000
  Sb  Sb2       1.0  0.50800  0.00000  0.37000  1.0000
  Sb  Sb3       1.0  0.00796  0.50000  0.63000  1.0000
  Sb  Sb4       1.0  0.48900  0.00000  0.87600  1.0000
  Ta  Ta1       1.0  0.49300  0.50000  0.12300  1.0000
  Ta  Ta2       1.0  0.99300  0.00000  0.87700  1.0000
