data_image0
_chemical_formula_structural       Co4La2Nb2Sb4
_chemical_formula_sum              "Co4 La2 Nb2 Sb4"
_cell_length_a       6.2978
_cell_length_b       4.3321
_cell_length_c       9.05489
_cell_angle_alpha    90
_cell_angle_beta     90
_cell_angle_gamma    90

_space_group_name_H-M_alt    "P 1"
_space_group_IT_number       1

loop_
  _space_group_symop_operation_xyz
  'x, y, z'

loop_
  _atom_site_type_symbol
  _atom_site_label
  _atom_site_symmetry_multiplicity
  _atom_site_fract_x
  _atom_site_fract_y
  _atom_site_fract_z
  _atom_site_occupancy
  Co  Co1       1.0  0.73600  0.00000  0.10600  1.0000
  Co  Co2       1.0  0.28000  0.50000  0.32700  1.0000
  Co  Co3       1.0  0.78000  0.00000  0.67300  1.0000
  Co  Co4       1.0  0.23600  0.50000  0.89400  1.0000
  La  La1       1.0  0.00044  0.00000  0.38300  1.0000
  La  La2       1.0  0.50000  0.50000  0.61700  1.0000
  Nb  Nb1       1.0  0.49500  0.50000  0.11400  1.0000
  Nb  Nb2       1.0  0.99500  0.00000  0.88600  1.0000
  Sb  Sb1       1.0  0.98800  0.50000  0.11500  1.0000
  Sb  Sb2       1.0  0.50100  0.00000  0.34400  1.0000
  Sb  Sb3       1.0  0.00114  0.50000  0.65600  1.0000
  Sb  Sb4       1.0  0.48800  0.00000  0.88500  1.0000
