data_image0
_chemical_formula_structural       Bi4Ir4Sc2Ta2
_chemical_formula_sum              "Bi4 Ir4 Sc2 Ta2"
_cell_length_a       6.3963
_cell_length_b       4.52639
_cell_length_c       9.04803
_cell_angle_alpha    90
_cell_angle_beta     90
_cell_angle_gamma    90

_space_group_name_H-M_alt    "P 1"
_space_group_IT_number       1

loop_
  _space_group_symop_operation_xyz
  'x, y, z'

loop_
  _atom_site_type_symbol
  _atom_site_label
  _atom_site_symmetry_multiplicity
  _atom_site_fract_x
  _atom_site_fract_y
  _atom_site_fract_z
  _atom_site_occupancy
  Bi  Bi1       1.0  0.98300  0.50000  0.13400  1.0000
  Bi  Bi2       1.0  0.51500  0.00000  0.38200  1.0000
  Bi  Bi3       1.0  0.01480  0.50000  0.61800  1.0000
  Bi  Bi4       1.0  0.48300  0.00000  0.86600  1.0000
  Ir  Ir1       1.0  0.73100  0.00000  0.11200  1.0000
  Ir  Ir2       1.0  0.26900  0.50000  0.36000  1.0000
  Ir  Ir3       1.0  0.76900  0.00000  0.64000  1.0000
  Ir  Ir4       1.0  0.23100  0.50000  0.88800  1.0000
  Sc  Sc1       1.0  0.01110  0.00000  0.37500  1.0000
  Sc  Sc2       1.0  0.51100  0.50000  0.62500  1.0000
  Ta  Ta1       1.0  0.49100  0.50000  0.12200  1.0000
  Ta  Ta2       1.0  0.99100  0.00000  0.87800  1.0000
