data_image0
_chemical_formula_structural       Pd4Sc2Sn4V2
_chemical_formula_sum              "Pd4 Sc2 Sn4 V2"
_cell_length_a       4.40549
_cell_length_b       6.23577
_cell_length_c       8.7797
_cell_angle_alpha    90
_cell_angle_beta     90
_cell_angle_gamma    90

_space_group_name_H-M_alt    "P 1"
_space_group_IT_number       1

loop_
  _space_group_symop_operation_xyz
  'x, y, z'

loop_
  _atom_site_type_symbol
  _atom_site_label
  _atom_site_symmetry_multiplicity
  _atom_site_fract_x
  _atom_site_fract_y
  _atom_site_fract_z
  _atom_site_occupancy
  Pd  Pd1       1.0  0.00000  0.74100  0.11400  1.0000
  Pd  Pd2       1.0  0.50000  0.26100  0.36100  1.0000
  Pd  Pd3       1.0  0.00000  0.76100  0.63900  1.0000
  Pd  Pd4       1.0  0.50000  0.24100  0.88600  1.0000
  Sc  Sc1       1.0  0.00000  0.00426  0.37700  1.0000
  Sc  Sc2       1.0  0.50000  0.50400  0.62300  1.0000
  Sn  Sn1       1.0  0.50000  0.98500  0.12300  1.0000
  Sn  Sn2       1.0  0.00000  0.51100  0.37100  1.0000
  Sn  Sn3       1.0  0.50000  0.01080  0.62900  1.0000
  Sn  Sn4       1.0  0.00000  0.48500  0.87700  1.0000
  V   V1        1.0  0.50000  0.49700  0.12500  1.0000
  V   V2        1.0  0.00000  0.99700  0.87500  1.0000
