data_image0
_chemical_formula_structural       Bi4La2Rh4Ta2
_chemical_formula_sum              "Bi4 La2 Rh4 Ta2"
_cell_length_a       6.62791
_cell_length_b       4.62275
_cell_length_c       9.33343
_cell_angle_alpha    90
_cell_angle_beta     90
_cell_angle_gamma    90

_space_group_name_H-M_alt    "P 1"
_space_group_IT_number       1

loop_
  _space_group_symop_operation_xyz
  'x, y, z'

loop_
  _atom_site_type_symbol
  _atom_site_label
  _atom_site_symmetry_multiplicity
  _atom_site_fract_x
  _atom_site_fract_y
  _atom_site_fract_z
  _atom_site_occupancy
  Bi  Bi1       1.0  0.97500  0.50000  0.12200  1.0000
  Bi  Bi2       1.0  0.51400  0.00000  0.36200  1.0000
  Bi  Bi3       1.0  0.01440  0.50000  0.63800  1.0000
  Bi  Bi4       1.0  0.47500  0.00000  0.87800  1.0000
  La  La1       1.0  0.00955  0.00000  0.37700  1.0000
  La  La2       1.0  0.51000  0.50000  0.62300  1.0000
  Rh  Rh1       1.0  0.73000  0.00000  0.10300  1.0000
  Rh  Rh2       1.0  0.27900  0.50000  0.33800  1.0000
  Rh  Rh3       1.0  0.77900  0.00000  0.66200  1.0000
  Rh  Rh4       1.0  0.23000  0.50000  0.89700  1.0000
  Ta  Ta1       1.0  0.49100  0.50000  0.11600  1.0000
  Ta  Ta2       1.0  0.99100  0.00000  0.88400  1.0000
