data_image0
_chemical_formula_structural       Ir4Nb2Sb4Y2
_chemical_formula_sum              "Ir4 Nb2 Sb4 Y2"
_cell_length_a       6.37903
_cell_length_b       4.51298
_cell_length_c       9.03835
_cell_angle_alpha    90
_cell_angle_beta     90
_cell_angle_gamma    90

_space_group_name_H-M_alt    "P 1"
_space_group_IT_number       1

loop_
  _space_group_symop_operation_xyz
  'x, y, z'

loop_
  _atom_site_type_symbol
  _atom_site_label
  _atom_site_symmetry_multiplicity
  _atom_site_fract_x
  _atom_site_fract_y
  _atom_site_fract_z
  _atom_site_occupancy
  Ir  Ir1       1.0  0.73200  0.00000  0.11000  1.0000
  Ir  Ir2       1.0  0.27200  0.50000  0.35300  1.0000
  Ir  Ir3       1.0  0.77200  0.00000  0.64700  1.0000
  Ir  Ir4       1.0  0.23200  0.50000  0.89000  1.0000
  Nb  Nb1       1.0  0.49400  0.50000  0.12000  1.0000
  Nb  Nb2       1.0  0.99400  0.00000  0.88000  1.0000
  Sb  Sb1       1.0  0.98500  0.50000  0.12600  1.0000
  Sb  Sb2       1.0  0.51100  0.00000  0.37300  1.0000
  Sb  Sb3       1.0  0.01090  0.50000  0.62700  1.0000
  Sb  Sb4       1.0  0.48500  0.00000  0.87400  1.0000
  Y   Y1        1.0  0.00576  0.00000  0.37500  1.0000
  Y   Y2        1.0  0.50600  0.50000  0.62500  1.0000
