data_image0
_chemical_formula_structural       Bi2Co4Ga2Ta4
_chemical_formula_sum              "Bi2 Co4 Ga2 Ta4"
_cell_length_a       7.2254
_cell_length_b       7.2254
_cell_length_c       7.2254
_cell_angle_alpha    131.61
_cell_angle_beta     131.61
_cell_angle_gamma    70.8451

_space_group_name_H-M_alt    "P 1"
_space_group_IT_number       1

loop_
  _space_group_symop_operation_xyz
  'x, y, z'

loop_
  _atom_site_type_symbol
  _atom_site_label
  _atom_site_symmetry_multiplicity
  _atom_site_fract_x
  _atom_site_fract_y
  _atom_site_fract_z
  _atom_site_occupancy
  Bi  Bi1       1.0  0.37500  0.12500  0.25000  1.0000
  Bi  Bi2       1.0  0.12500  0.37500  0.75000  1.0000
  Co  Co1       1.0  0.75000  0.99000  0.24000  1.0000
  Co  Co2       1.0  0.25000  0.51000  0.26000  1.0000
  Co  Co3       1.0  0.99000  0.75000  0.74000  1.0000
  Co  Co4       1.0  0.51000  0.25000  0.76000  1.0000
  Ga  Ga1       1.0  0.87500  0.62500  0.25000  1.0000
  Ga  Ga2       1.0  0.62500  0.87500  0.75000  1.0000
  Ta  Ta1       1.0  0.63400  0.38400  0.25000  1.0000
  Ta  Ta2       1.0  0.11600  0.86600  0.25000  1.0000
  Ta  Ta3       1.0  0.86600  0.11600  0.75000  1.0000
  Ta  Ta4       1.0  0.38400  0.63400  0.75000  1.0000
