data_image0
_chemical_formula_structural       Ni4Sn4Ta2Y2
_chemical_formula_sum              "Ni4 Sn4 Ta2 Y2"
_cell_length_a       6.19369
_cell_length_b       4.34239
_cell_length_c       8.7535
_cell_angle_alpha    90
_cell_angle_beta     90
_cell_angle_gamma    90

_space_group_name_H-M_alt    "P 1"
_space_group_IT_number       1

loop_
  _space_group_symop_operation_xyz
  'x, y, z'

loop_
  _atom_site_type_symbol
  _atom_site_label
  _atom_site_symmetry_multiplicity
  _atom_site_fract_x
  _atom_site_fract_y
  _atom_site_fract_z
  _atom_site_occupancy
  Ni  Ni1       1.0  0.73800  0.00000  0.11000  1.0000
  Ni  Ni2       1.0  0.26700  0.50000  0.35300  1.0000
  Ni  Ni3       1.0  0.76700  0.00000  0.64700  1.0000
  Ni  Ni4       1.0  0.23800  0.50000  0.89000  1.0000
  Sn  Sn1       1.0  0.98800  0.50000  0.12000  1.0000
  Sn  Sn2       1.0  0.50800  0.00000  0.36400  1.0000
  Sn  Sn3       1.0  0.00804  0.50000  0.63600  1.0000
  Sn  Sn4       1.0  0.48800  0.00000  0.88000  1.0000
  Ta  Ta1       1.0  0.49600  0.50000  0.12300  1.0000
  Ta  Ta2       1.0  0.99600  0.00000  0.87700  1.0000
  Y   Y1        1.0  0.00386  0.00000  0.37900  1.0000
  Y   Y2        1.0  0.50400  0.50000  0.62100  1.0000
