data_image0
_chemical_formula_structural       Bi2Co4Ga2Nb4
_chemical_formula_sum              "Bi2 Co4 Ga2 Nb4"
_cell_length_a       7.24017
_cell_length_b       7.24017
_cell_length_c       5.93069
_cell_angle_alpha    114.178
_cell_angle_beta     114.178
_cell_angle_gamma    48.3554

_space_group_name_H-M_alt    "P 1"
_space_group_IT_number       1

loop_
  _space_group_symop_operation_xyz
  'x, y, z'

loop_
  _atom_site_type_symbol
  _atom_site_label
  _atom_site_symmetry_multiplicity
  _atom_site_fract_x
  _atom_site_fract_y
  _atom_site_fract_z
  _atom_site_occupancy
  Bi  Bi1       1.0  0.75000  0.50000  0.37500  1.0000
  Bi  Bi2       1.0  0.50000  0.25000  0.62500  1.0000
  Co  Co1       1.0  0.36200  0.63800  0.00000  1.0000
  Co  Co2       1.0  0.12500  0.37500  0.23700  1.0000
  Co  Co3       1.0  0.88800  0.11200  0.50000  1.0000
  Co  Co4       1.0  0.62500  0.87500  0.76300  1.0000
  Ga  Ga1       1.0  0.00000  0.75000  0.12500  1.0000
  Ga  Ga2       1.0  0.25000  0.00000  0.87500  1.0000
  Nb  Nb1       1.0  0.49100  0.24100  0.11600  1.0000
  Nb  Nb2       1.0  0.24100  0.99100  0.36600  1.0000
  Nb  Nb3       1.0  0.00925  0.75900  0.63400  1.0000
  Nb  Nb4       1.0  0.75900  0.50900  0.88400  1.0000
