data_image0
_chemical_formula_structural       Fe2Pd2Sb4Ti4
_chemical_formula_sum              "Fe2 Pd2 Sb4 Ti4"
_cell_length_a       7.37362
_cell_length_b       7.37362
_cell_length_c       6.07917
_cell_angle_alpha    114.345
_cell_angle_beta     114.345
_cell_angle_gamma    108.68

_space_group_name_H-M_alt    "P 1"
_space_group_IT_number       1

loop_
  _space_group_symop_operation_xyz
  'x, y, z'

loop_
  _atom_site_type_symbol
  _atom_site_label
  _atom_site_symmetry_multiplicity
  _atom_site_fract_x
  _atom_site_fract_y
  _atom_site_fract_z
  _atom_site_occupancy
  Fe  Fe1       1.0  0.00000  0.00000  0.00000  1.0000
  Fe  Fe2       1.0  0.25000  0.75000  0.50000  1.0000
  Pd  Pd1       1.0  0.50000  0.50000  0.00000  1.0000
  Pd  Pd2       1.0  0.75000  0.25000  0.50000  1.0000
  Sb  Sb1       1.0  0.88800  0.63800  0.01330  1.0000
  Sb  Sb2       1.0  0.12500  0.37500  0.48700  1.0000
  Sb  Sb3       1.0  0.62500  0.87500  0.51300  1.0000
  Sb  Sb4       1.0  0.36200  0.11200  0.98700  1.0000
  Ti  Ti1       1.0  0.12500  0.37500  0.01750  1.0000
  Ti  Ti2       1.0  0.35700  0.10700  0.48200  1.0000
  Ti  Ti3       1.0  0.89300  0.64300  0.51800  1.0000
  Ti  Ti4       1.0  0.62500  0.87500  0.98200  1.0000
