data_image0
_chemical_formula_structural       Pt4Sn4V2Y2
_chemical_formula_sum              "Pt4 Sn4 V2 Y2"
_cell_length_a       6.40004
_cell_length_b       4.50027
_cell_length_c       8.9392
_cell_angle_alpha    90
_cell_angle_beta     90
_cell_angle_gamma    90

_space_group_name_H-M_alt    "P 1"
_space_group_IT_number       1

loop_
  _space_group_symop_operation_xyz
  'x, y, z'

loop_
  _atom_site_type_symbol
  _atom_site_label
  _atom_site_symmetry_multiplicity
  _atom_site_fract_x
  _atom_site_fract_y
  _atom_site_fract_z
  _atom_site_occupancy
  Pt  Pt1       1.0  0.73500  0.00000  0.10800  1.0000
  Pt  Pt2       1.0  0.27400  0.50000  0.34700  1.0000
  Pt  Pt3       1.0  0.77400  0.00000  0.65300  1.0000
  Pt  Pt4       1.0  0.23500  0.50000  0.89200  1.0000
  Sn  Sn1       1.0  0.97500  0.50000  0.12100  1.0000
  Sn  Sn2       1.0  0.51400  0.00000  0.36800  1.0000
  Sn  Sn3       1.0  0.01420  0.50000  0.63200  1.0000
  Sn  Sn4       1.0  0.47500  0.00000  0.87900  1.0000
  V   V1        1.0  0.49500  0.50000  0.12100  1.0000
  V   V2        1.0  0.99500  0.00000  0.87900  1.0000
  Y   Y1        1.0  0.00645  0.00000  0.37600  1.0000
  Y   Y2        1.0  0.50600  0.50000  0.62400  1.0000
