data_image0
_chemical_formula_structural       Lu2Pt4Sn4Ta2
_chemical_formula_sum              "Lu2 Pt4 Sn4 Ta2"
_cell_length_a       6.38631
_cell_length_b       4.50509
_cell_length_c       9.01524
_cell_angle_alpha    90
_cell_angle_beta     90
_cell_angle_gamma    90

_space_group_name_H-M_alt    "P 1"
_space_group_IT_number       1

loop_
  _space_group_symop_operation_xyz
  'x, y, z'

loop_
  _atom_site_type_symbol
  _atom_site_label
  _atom_site_symmetry_multiplicity
  _atom_site_fract_x
  _atom_site_fract_y
  _atom_site_fract_z
  _atom_site_occupancy
  Lu  Lu1       1.0  0.00273  0.00000  0.37600  1.0000
  Lu  Lu2       1.0  0.50300  0.50000  0.62400  1.0000
  Pt  Pt1       1.0  0.73800  0.00000  0.11300  1.0000
  Pt  Pt2       1.0  0.26300  0.50000  0.36000  1.0000
  Pt  Pt3       1.0  0.76300  0.00000  0.64000  1.0000
  Pt  Pt4       1.0  0.23800  0.50000  0.88700  1.0000
  Sn  Sn1       1.0  0.98900  0.50000  0.12700  1.0000
  Sn  Sn2       1.0  0.50900  0.00000  0.37500  1.0000
  Sn  Sn3       1.0  0.00914  0.50000  0.62500  1.0000
  Sn  Sn4       1.0  0.48900  0.00000  0.87300  1.0000
  Ta  Ta1       1.0  0.49800  0.50000  0.12400  1.0000
  Ta  Ta2       1.0  0.99800  0.00000  0.87600  1.0000
