data_image0
_chemical_formula_structural       Al2Bi2Ir4V4
_chemical_formula_sum              "Al2 Bi2 Ir4 V4"
_cell_length_a       7.38958
_cell_length_b       7.38958
_cell_length_c       7.38958
_cell_angle_alpha    131.713
_cell_angle_beta     131.713
_cell_angle_gamma    70.6829

_space_group_name_H-M_alt    "P 1"
_space_group_IT_number       1

loop_
  _space_group_symop_operation_xyz
  'x, y, z'

loop_
  _atom_site_type_symbol
  _atom_site_label
  _atom_site_symmetry_multiplicity
  _atom_site_fract_x
  _atom_site_fract_y
  _atom_site_fract_z
  _atom_site_occupancy
  Al  Al1       1.0  0.87500  0.62500  0.25000  1.0000
  Al  Al2       1.0  0.62500  0.87500  0.75000  1.0000
  Bi  Bi1       1.0  0.37500  0.12500  0.25000  1.0000
  Bi  Bi2       1.0  0.12500  0.37500  0.75000  1.0000
  Ir  Ir1       1.0  0.75000  0.97200  0.22200  1.0000
  Ir  Ir2       1.0  0.25000  0.52800  0.27800  1.0000
  Ir  Ir3       1.0  0.97200  0.75000  0.72200  1.0000
  Ir  Ir4       1.0  0.52800  0.25000  0.77800  1.0000
  V   V1        1.0  0.63400  0.38400  0.25000  1.0000
  V   V2        1.0  0.11600  0.86600  0.25000  1.0000
  V   V3        1.0  0.86600  0.11600  0.75000  1.0000
  V   V4        1.0  0.38400  0.63400  0.75000  1.0000
