data_image0
_chemical_formula_structural       Bi4Fe2Ni2Zr4
_chemical_formula_sum              "Bi4 Fe2 Ni2 Zr4"
_cell_length_a       7.64313
_cell_length_b       7.64313
_cell_length_c       6.24897
_cell_angle_alpha    114.129
_cell_angle_beta     114.129
_cell_angle_gamma    48.2585

_space_group_name_H-M_alt    "P 1"
_space_group_IT_number       1

loop_
  _space_group_symop_operation_xyz
  'x, y, z'

loop_
  _atom_site_type_symbol
  _atom_site_label
  _atom_site_symmetry_multiplicity
  _atom_site_fract_x
  _atom_site_fract_y
  _atom_site_fract_z
  _atom_site_occupancy
  Bi  Bi1       1.0  0.12400  0.87600  0.00000  1.0000
  Bi  Bi2       1.0  0.87500  0.62500  0.25100  1.0000
  Bi  Bi3       1.0  0.62600  0.37400  0.50000  1.0000
  Bi  Bi4       1.0  0.37500  0.12500  0.74900  1.0000
  Fe  Fe1       1.0  0.00000  0.25000  0.37500  1.0000
  Fe  Fe2       1.0  0.75000  0.00000  0.62500  1.0000
  Ni  Ni1       1.0  0.25000  0.50000  0.12500  1.0000
  Ni  Ni2       1.0  0.50000  0.75000  0.87500  1.0000
  Zr  Zr1       1.0  0.63200  0.36800  0.00000  1.0000
  Zr  Zr2       1.0  0.37500  0.12500  0.25700  1.0000
  Zr  Zr3       1.0  0.11800  0.88200  0.50000  1.0000
  Zr  Zr4       1.0  0.87500  0.62500  0.74300  1.0000
