data_image0
_chemical_formula_structural       Bi4Ir4Lu2V2
_chemical_formula_sum              "Bi4 Ir4 Lu2 V2"
_cell_length_a       6.38837
_cell_length_b       4.58491
_cell_length_c       8.94827
_cell_angle_alpha    90
_cell_angle_beta     90
_cell_angle_gamma    90

_space_group_name_H-M_alt    "P 1"
_space_group_IT_number       1

loop_
  _space_group_symop_operation_xyz
  'x, y, z'

loop_
  _atom_site_type_symbol
  _atom_site_label
  _atom_site_symmetry_multiplicity
  _atom_site_fract_x
  _atom_site_fract_y
  _atom_site_fract_z
  _atom_site_occupancy
  Bi  Bi1       1.0  0.97000  0.50000  0.12600  1.0000
  Bi  Bi2       1.0  0.52100  0.00000  0.37600  1.0000
  Bi  Bi3       1.0  0.02080  0.50000  0.62400  1.0000
  Bi  Bi4       1.0  0.47000  0.00000  0.87400  1.0000
  Ir  Ir1       1.0  0.73200  0.00000  0.10700  1.0000
  Ir  Ir2       1.0  0.27900  0.50000  0.34700  1.0000
  Ir  Ir3       1.0  0.77900  0.00000  0.65300  1.0000
  Ir  Ir4       1.0  0.23200  0.50000  0.89300  1.0000
  Lu  Lu1       1.0  0.01530  0.00000  0.37200  1.0000
  Lu  Lu2       1.0  0.51500  0.50000  0.62800  1.0000
  V   V1        1.0  0.48300  0.50000  0.11900  1.0000
  V   V2        1.0  0.98300  0.00000  0.88100  1.0000
