data_image0
_chemical_formula_structural       Hf4Ni2Ru2Sb4
_chemical_formula_sum              "Hf4 Ni2 Ru2 Sb4"
_cell_length_a       7.59573
_cell_length_b       7.59573
_cell_length_c       7.59573
_cell_angle_alpha    131.72
_cell_angle_beta     131.72
_cell_angle_gamma    70.671

_space_group_name_H-M_alt    "P 1"
_space_group_IT_number       1

loop_
  _space_group_symop_operation_xyz
  'x, y, z'

loop_
  _atom_site_type_symbol
  _atom_site_label
  _atom_site_symmetry_multiplicity
  _atom_site_fract_x
  _atom_site_fract_y
  _atom_site_fract_z
  _atom_site_occupancy
  Hf  Hf1       1.0  0.37500  0.87600  0.00086  1.0000
  Hf  Hf2       1.0  0.12400  0.12500  0.49900  1.0000
  Hf  Hf3       1.0  0.62600  0.62500  0.50100  1.0000
  Hf  Hf4       1.0  0.87500  0.37400  0.99900  1.0000
  Ni  Ni1       1.0  0.00000  0.00000  0.00000  1.0000
  Ni  Ni2       1.0  0.75000  0.25000  0.50000  1.0000
  Ru  Ru1       1.0  0.50000  0.50000  0.00000  1.0000
  Ru  Ru2       1.0  0.25000  0.75000  0.50000  1.0000
  Sb  Sb1       1.0  0.63100  0.12500  0.00635  1.0000
  Sb  Sb2       1.0  0.37500  0.36900  0.49400  1.0000
  Sb  Sb3       1.0  0.87500  0.88100  0.50600  1.0000
  Sb  Sb4       1.0  0.11900  0.62500  0.99400  1.0000
