data_image0
_chemical_formula_structural       Lu2Nb2Pd4Sn4
_chemical_formula_sum              "Lu2 Nb2 Pd4 Sn4"
_cell_length_a       4.48053
_cell_length_b       6.37087
_cell_length_c       8.99596
_cell_angle_alpha    90.0001
_cell_angle_beta     90
_cell_angle_gamma    90

_space_group_name_H-M_alt    "P 1"
_space_group_IT_number       1

loop_
  _space_group_symop_operation_xyz
  'x, y, z'

loop_
  _atom_site_type_symbol
  _atom_site_label
  _atom_site_symmetry_multiplicity
  _atom_site_fract_x
  _atom_site_fract_y
  _atom_site_fract_z
  _atom_site_occupancy
  Lu  Lu1       1.0  0.00000  0.00000  0.37800  1.0000
  Lu  Lu2       1.0  0.50000  0.50000  0.62200  1.0000
  Nb  Nb1       1.0  0.50000  0.49900  0.12600  1.0000
  Nb  Nb2       1.0  0.00000  0.99900  0.87400  1.0000
  Pd  Pd1       1.0  0.00000  0.74500  0.11600  1.0000
  Pd  Pd2       1.0  0.50000  0.25600  0.36400  1.0000
  Pd  Pd3       1.0  0.00000  0.75600  0.63600  1.0000
  Pd  Pd4       1.0  0.50000  0.24500  0.88400  1.0000
  Sn  Sn1       1.0  0.50000  0.99300  0.12200  1.0000
  Sn  Sn2       1.0  0.00000  0.50600  0.37000  1.0000
  Sn  Sn3       1.0  0.50000  0.00631  0.63000  1.0000
  Sn  Sn4       1.0  0.00000  0.49300  0.87800  1.0000
