data_image0
_chemical_formula_structural       La2Nb2Rh4Sb4
_chemical_formula_sum              "La2 Nb2 Rh4 Sb4"
_cell_length_a       4.51255
_cell_length_b       6.51532
_cell_length_c       9.26213
_cell_angle_alpha    90
_cell_angle_beta     90
_cell_angle_gamma    90

_space_group_name_H-M_alt    "P 1"
_space_group_IT_number       1

loop_
  _space_group_symop_operation_xyz
  'x, y, z'

loop_
  _atom_site_type_symbol
  _atom_site_label
  _atom_site_symmetry_multiplicity
  _atom_site_fract_x
  _atom_site_fract_y
  _atom_site_fract_z
  _atom_site_occupancy
  La  La1       1.0  0.00000  0.00112  0.38000  1.0000
  La  La2       1.0  0.50000  0.50100  0.62000  1.0000
  Nb  Nb1       1.0  0.50000  0.49700  0.11600  1.0000
  Nb  Nb2       1.0  0.00000  0.99700  0.88400  1.0000
  Rh  Rh1       1.0  0.00000  0.73500  0.10500  1.0000
  Rh  Rh2       1.0  0.50000  0.27600  0.33500  1.0000
  Rh  Rh3       1.0  0.00000  0.77600  0.66500  1.0000
  Rh  Rh4       1.0  0.50000  0.23500  0.89500  1.0000
  Sb  Sb1       1.0  0.50000  0.98400  0.11800  1.0000
  Sb  Sb2       1.0  0.00000  0.50600  0.35300  1.0000
  Sb  Sb3       1.0  0.50000  0.00621  0.64700  1.0000
  Sb  Sb4       1.0  0.00000  0.48400  0.88200  1.0000
