data_image0
_chemical_formula_structural       Bi2Ga2Hf4Pt4
_chemical_formula_sum              "Bi2 Ga2 Hf4 Pt4"
_cell_length_a       7.77081
_cell_length_b       7.77081
_cell_length_c       6.36443
_cell_angle_alpha    114.174
_cell_angle_beta     114.174
_cell_angle_gamma    109.221

_space_group_name_H-M_alt    "P 1"
_space_group_IT_number       1

loop_
  _space_group_symop_operation_xyz
  'x, y, z'

loop_
  _atom_site_type_symbol
  _atom_site_label
  _atom_site_symmetry_multiplicity
  _atom_site_fract_x
  _atom_site_fract_y
  _atom_site_fract_z
  _atom_site_occupancy
  Bi  Bi1       1.0  0.50000  0.50000  0.00000  1.0000
  Bi  Bi2       1.0  0.75000  0.25000  0.50000  1.0000
  Ga  Ga1       1.0  0.00000  0.00000  0.00000  1.0000
  Ga  Ga2       1.0  0.25000  0.75000  0.50000  1.0000
  Hf  Hf1       1.0  0.75600  0.24400  0.00000  1.0000
  Hf  Hf2       1.0  0.24400  0.75600  0.00000  1.0000
  Hf  Hf3       1.0  0.49400  0.50600  0.50000  1.0000
  Hf  Hf4       1.0  0.00581  0.99400  0.50000  1.0000
  Pt  Pt1       1.0  0.89100  0.64100  0.01560  1.0000
  Pt  Pt2       1.0  0.12500  0.37500  0.48400  1.0000
  Pt  Pt3       1.0  0.62500  0.87500  0.51600  1.0000
  Pt  Pt4       1.0  0.35900  0.10900  0.98400  1.0000
