data_image0
_chemical_formula_structural       Nb2Ni4Sn4Y2
_chemical_formula_sum              "Nb2 Ni4 Sn4 Y2"
_cell_length_a       4.35207
_cell_length_b       6.19785
_cell_length_c       8.75286
_cell_angle_alpha    90
_cell_angle_beta     90
_cell_angle_gamma    90

_space_group_name_H-M_alt    "P 1"
_space_group_IT_number       1

loop_
  _space_group_symop_operation_xyz
  'x, y, z'

loop_
  _atom_site_type_symbol
  _atom_site_label
  _atom_site_symmetry_multiplicity
  _atom_site_fract_x
  _atom_site_fract_y
  _atom_site_fract_z
  _atom_site_occupancy
  Nb  Nb1       1.0  0.50000  0.49500  0.12400  1.0000
  Nb  Nb2       1.0  0.00000  0.99500  0.87600  1.0000
  Ni  Ni1       1.0  0.00000  0.73800  0.11200  1.0000
  Ni  Ni2       1.0  0.50000  0.26700  0.35400  1.0000
  Ni  Ni3       1.0  0.00000  0.76700  0.64600  1.0000
  Ni  Ni4       1.0  0.50000  0.23800  0.88800  1.0000
  Sn  Sn1       1.0  0.50000  0.98800  0.12000  1.0000
  Sn  Sn2       1.0  0.00000  0.50800  0.36500  1.0000
  Sn  Sn3       1.0  0.50000  0.00831  0.63500  1.0000
  Sn  Sn4       1.0  0.00000  0.48800  0.88000  1.0000
  Y   Y1        1.0  0.00000  0.00411  0.37800  1.0000
  Y   Y2        1.0  0.50000  0.50400  0.62200  1.0000
