data_image0
_chemical_formula_structural       Al2Bi2Ni4Ti4
_chemical_formula_sum              "Al2 Bi2 Ni4 Ti4"
_cell_length_a       7.23123
_cell_length_b       7.23123
_cell_length_c       5.90369
_cell_angle_alpha    114.092
_cell_angle_beta     114.092
_cell_angle_gamma    109.479

_space_group_name_H-M_alt    "P 1"
_space_group_IT_number       1

loop_
  _space_group_symop_operation_xyz
  'x, y, z'

loop_
  _atom_site_type_symbol
  _atom_site_label
  _atom_site_symmetry_multiplicity
  _atom_site_fract_x
  _atom_site_fract_y
  _atom_site_fract_z
  _atom_site_occupancy
  Al  Al1       1.0  0.00000  0.00000  0.00000  1.0000
  Al  Al2       1.0  0.25000  0.75000  0.50000  1.0000
  Bi  Bi1       1.0  0.50000  0.50000  0.00000  1.0000
  Bi  Bi2       1.0  0.75000  0.25000  0.50000  1.0000
  Ni  Ni1       1.0  0.89600  0.64600  0.02080  1.0000
  Ni  Ni2       1.0  0.12500  0.37500  0.47900  1.0000
  Ni  Ni3       1.0  0.62500  0.87500  0.52100  1.0000
  Ni  Ni4       1.0  0.35400  0.10400  0.97900  1.0000
  Ti  Ti1       1.0  0.75900  0.24100  0.00000  1.0000
  Ti  Ti2       1.0  0.24100  0.75900  0.00000  1.0000
  Ti  Ti3       1.0  0.49100  0.50900  0.50000  1.0000
  Ti  Ti4       1.0  0.00913  0.99100  0.50000  1.0000
