data_image0
_chemical_formula_structural       Ir4Lu2Sb4Ta2
_chemical_formula_sum              "Ir4 Lu2 Sb4 Ta2"
_cell_length_a       4.49519
_cell_length_b       6.34207
_cell_length_c       8.97785
_cell_angle_alpha    90
_cell_angle_beta     90
_cell_angle_gamma    90

_space_group_name_H-M_alt    "P 1"
_space_group_IT_number       1

loop_
  _space_group_symop_operation_xyz
  'x, y, z'

loop_
  _atom_site_type_symbol
  _atom_site_label
  _atom_site_symmetry_multiplicity
  _atom_site_fract_x
  _atom_site_fract_y
  _atom_site_fract_z
  _atom_site_occupancy
  Ir  Ir1       1.0  0.00000  0.73300  0.11100  1.0000
  Ir  Ir2       1.0  0.50000  0.26900  0.35600  1.0000
  Ir  Ir3       1.0  0.00000  0.76900  0.64400  1.0000
  Ir  Ir4       1.0  0.50000  0.23300  0.88900  1.0000
  Lu  Lu1       1.0  0.00000  0.00564  0.37500  1.0000
  Lu  Lu2       1.0  0.50000  0.50600  0.62500  1.0000
  Sb  Sb1       1.0  0.50000  0.98700  0.12900  1.0000
  Sb  Sb2       1.0  0.00000  0.51000  0.37700  1.0000
  Sb  Sb3       1.0  0.50000  0.01000  0.62300  1.0000
  Sb  Sb4       1.0  0.00000  0.48700  0.87100  1.0000
  Ta  Ta1       1.0  0.50000  0.49500  0.12100  1.0000
  Ta  Ta2       1.0  0.00000  0.99500  0.87900  1.0000
