data_image0
_chemical_formula_structural       Bi4Co4Sc2V2
_chemical_formula_sum              "Bi4 Co4 Sc2 V2"
_cell_length_a       4.32479
_cell_length_b       6.06993
_cell_length_c       8.50512
_cell_angle_alpha    90
_cell_angle_beta     90
_cell_angle_gamma    90

_space_group_name_H-M_alt    "P 1"
_space_group_IT_number       1

loop_
  _space_group_symop_operation_xyz
  'x, y, z'

loop_
  _atom_site_type_symbol
  _atom_site_label
  _atom_site_symmetry_multiplicity
  _atom_site_fract_x
  _atom_site_fract_y
  _atom_site_fract_z
  _atom_site_occupancy
  Bi  Bi1       1.0  0.50000  0.97500  0.12300  1.0000
  Bi  Bi2       1.0  0.00000  0.51900  0.37600  1.0000
  Bi  Bi3       1.0  0.50000  0.01870  0.62400  1.0000
  Bi  Bi4       1.0  0.00000  0.47500  0.87700  1.0000
  Co  Co1       1.0  0.00000  0.73400  0.11000  1.0000
  Co  Co2       1.0  0.50000  0.27500  0.34900  1.0000
  Co  Co3       1.0  0.00000  0.77500  0.65100  1.0000
  Co  Co4       1.0  0.50000  0.23400  0.89000  1.0000
  Sc  Sc1       1.0  0.00000  0.01690  0.37200  1.0000
  Sc  Sc2       1.0  0.50000  0.51700  0.62800  1.0000
  V   V1        1.0  0.50000  0.48000  0.12400  1.0000
  V   V2        1.0  0.00000  0.98000  0.87600  1.0000
