data_image0
_chemical_formula_structural       Bi4Ir4Nb2Sc2
_chemical_formula_sum              "Bi4 Ir4 Nb2 Sc2"
_cell_length_a       6.40167
_cell_length_b       4.53549
_cell_length_c       9.04148
_cell_angle_alpha    90
_cell_angle_beta     90
_cell_angle_gamma    90

_space_group_name_H-M_alt    "P 1"
_space_group_IT_number       1

loop_
  _space_group_symop_operation_xyz
  'x, y, z'

loop_
  _atom_site_type_symbol
  _atom_site_label
  _atom_site_symmetry_multiplicity
  _atom_site_fract_x
  _atom_site_fract_y
  _atom_site_fract_z
  _atom_site_occupancy
  Bi  Bi1       1.0  0.98500  0.50000  0.13200  1.0000
  Bi  Bi2       1.0  0.51300  0.00000  0.38100  1.0000
  Bi  Bi3       1.0  0.01270  0.50000  0.61900  1.0000
  Bi  Bi4       1.0  0.48500  0.00000  0.86800  1.0000
  Ir  Ir1       1.0  0.73300  0.00000  0.11400  1.0000
  Ir  Ir2       1.0  0.26700  0.50000  0.36200  1.0000
  Ir  Ir3       1.0  0.76700  0.00000  0.63800  1.0000
  Ir  Ir4       1.0  0.23300  0.50000  0.88600  1.0000
  Nb  Nb1       1.0  0.49200  0.50000  0.12400  1.0000
  Nb  Nb2       1.0  0.99200  0.00000  0.87600  1.0000
  Sc  Sc1       1.0  0.00956  0.00000  0.37500  1.0000
  Sc  Sc2       1.0  0.51000  0.50000  0.62500  1.0000
