data_image0
_chemical_formula_structural       Bi2Ga2Ir4Ta4
_chemical_formula_sum              "Bi2 Ga2 Ir4 Ta4"
_cell_length_a       7.58448
_cell_length_b       7.58448
_cell_length_c       6.20837
_cell_angle_alpha    114.16
_cell_angle_beta     114.16
_cell_angle_gamma    109.266

_space_group_name_H-M_alt    "P 1"
_space_group_IT_number       1

loop_
  _space_group_symop_operation_xyz
  'x, y, z'

loop_
  _atom_site_type_symbol
  _atom_site_label
  _atom_site_symmetry_multiplicity
  _atom_site_fract_x
  _atom_site_fract_y
  _atom_site_fract_z
  _atom_site_occupancy
  Bi  Bi1       1.0  0.50000  0.50000  0.00000  1.0000
  Bi  Bi2       1.0  0.75000  0.25000  0.50000  1.0000
  Ga  Ga1       1.0  0.00000  0.00000  0.00000  1.0000
  Ga  Ga2       1.0  0.25000  0.75000  0.50000  1.0000
  Ir  Ir1       1.0  0.88800  0.63800  0.01340  1.0000
  Ir  Ir2       1.0  0.12500  0.37500  0.48700  1.0000
  Ir  Ir3       1.0  0.62500  0.87500  0.51300  1.0000
  Ir  Ir4       1.0  0.36200  0.11200  0.98700  1.0000
  Ta  Ta1       1.0  0.75700  0.24300  0.00000  1.0000
  Ta  Ta2       1.0  0.24300  0.75700  0.00000  1.0000
  Ta  Ta3       1.0  0.49300  0.50700  0.50000  1.0000
  Ta  Ta4       1.0  0.00667  0.99300  0.50000  1.0000
