data_image0
_chemical_formula_structural       Bi2In2Rh4V4
_chemical_formula_sum              "Bi2 In2 Rh4 V4"
_cell_length_a       6.10947
_cell_length_b       6.10947
_cell_length_c       7.49928
_cell_angle_alpha    65.9624
_cell_angle_beta     65.9624
_cell_angle_gamma    90

_space_group_name_H-M_alt    "P 1"
_space_group_IT_number       1

loop_
  _space_group_symop_operation_xyz
  'x, y, z'

loop_
  _atom_site_type_symbol
  _atom_site_label
  _atom_site_symmetry_multiplicity
  _atom_site_fract_x
  _atom_site_fract_y
  _atom_site_fract_z
  _atom_site_occupancy
  Bi  Bi1       1.0  0.50000  0.50000  0.00000  1.0000
  Bi  Bi2       1.0  0.75000  0.25000  0.50000  1.0000
  In  In1       1.0  0.00000  0.00000  0.00000  1.0000
  In  In2       1.0  0.25000  0.75000  0.50000  1.0000
  Rh  Rh1       1.0  0.62500  0.12100  0.25000  1.0000
  Rh  Rh2       1.0  0.12500  0.62900  0.25000  1.0000
  Rh  Rh3       1.0  0.87900  0.87500  0.75000  1.0000
  Rh  Rh4       1.0  0.37100  0.37500  0.75000  1.0000
  V   V1        1.0  0.49400  0.99400  0.01110  1.0000
  V   V2        1.0  0.75600  0.75600  0.48900  1.0000
  V   V3        1.0  0.24400  0.24400  0.51100  1.0000
  V   V4        1.0  0.00555  0.50600  0.98900  1.0000
