data_image0
_chemical_formula_structural       Bi4Hf4Ni2Os2
_chemical_formula_sum              "Bi4 Hf4 Ni2 Os2"
_cell_length_a       6.37141
_cell_length_b       6.37141
_cell_length_c       7.77671
_cell_angle_alpha    65.8173
_cell_angle_beta     65.8173
_cell_angle_gamma    90

_space_group_name_H-M_alt    "P 1"
_space_group_IT_number       1

loop_
  _space_group_symop_operation_xyz
  'x, y, z'

loop_
  _atom_site_type_symbol
  _atom_site_label
  _atom_site_symmetry_multiplicity
  _atom_site_fract_x
  _atom_site_fract_y
  _atom_site_fract_z
  _atom_site_occupancy
  Bi  Bi1       1.0  0.12500  0.61200  0.25000  1.0000
  Bi  Bi2       1.0  0.62500  0.13800  0.25000  1.0000
  Bi  Bi3       1.0  0.38800  0.37500  0.75000  1.0000
  Bi  Bi4       1.0  0.86200  0.87500  0.75000  1.0000
  Hf  Hf1       1.0  0.62500  0.63000  0.25000  1.0000
  Hf  Hf2       1.0  0.12500  0.12000  0.25000  1.0000
  Hf  Hf3       1.0  0.37000  0.87500  0.75000  1.0000
  Hf  Hf4       1.0  0.88000  0.37500  0.75000  1.0000
  Ni  Ni1       1.0  0.50000  0.50000  0.00000  1.0000
  Ni  Ni2       1.0  0.75000  0.25000  0.50000  1.0000
  Os  Os1       1.0  0.00000  0.00000  0.00000  1.0000
  Os  Os2       1.0  0.25000  0.75000  0.50000  1.0000
