data_image0
_chemical_formula_structural       Bi4Nb2Rh4Y2
_chemical_formula_sum              "Bi4 Nb2 Rh4 Y2"
_cell_length_a       6.48213
_cell_length_b       4.58803
_cell_length_c       9.136
_cell_angle_alpha    90
_cell_angle_beta     90
_cell_angle_gamma    90

_space_group_name_H-M_alt    "P 1"
_space_group_IT_number       1

loop_
  _space_group_symop_operation_xyz
  'x, y, z'

loop_
  _atom_site_type_symbol
  _atom_site_label
  _atom_site_symmetry_multiplicity
  _atom_site_fract_x
  _atom_site_fract_y
  _atom_site_fract_z
  _atom_site_occupancy
  Bi  Bi1       1.0  0.97900  0.50000  0.12600  1.0000
  Bi  Bi2       1.0  0.51600  0.00000  0.37400  1.0000
  Bi  Bi3       1.0  0.01590  0.50000  0.62600  1.0000
  Bi  Bi4       1.0  0.47900  0.00000  0.87400  1.0000
  Nb  Nb1       1.0  0.49000  0.50000  0.12100  1.0000
  Nb  Nb2       1.0  0.99000  0.00000  0.87900  1.0000
  Rh  Rh1       1.0  0.73200  0.00000  0.10900  1.0000
  Rh  Rh2       1.0  0.27300  0.50000  0.35200  1.0000
  Rh  Rh3       1.0  0.77300  0.00000  0.64800  1.0000
  Rh  Rh4       1.0  0.23200  0.50000  0.89100  1.0000
  Y   Y1        1.0  0.01040  0.00000  0.37500  1.0000
  Y   Y2        1.0  0.51000  0.50000  0.62500  1.0000
