data_image0
_chemical_formula_structural       Co4Sb4V2Y2
_chemical_formula_sum              "Co4 Sb4 V2 Y2"
_cell_length_a       6.09178
_cell_length_b       4.27395
_cell_length_c       8.58965
_cell_angle_alpha    90
_cell_angle_beta     90
_cell_angle_gamma    90

_space_group_name_H-M_alt    "P 1"
_space_group_IT_number       1

loop_
  _space_group_symop_operation_xyz
  'x, y, z'

loop_
  _atom_site_type_symbol
  _atom_site_label
  _atom_site_symmetry_multiplicity
  _atom_site_fract_x
  _atom_site_fract_y
  _atom_site_fract_z
  _atom_site_occupancy
  Co  Co1       1.0  0.73500  0.00000  0.10600  1.0000
  Co  Co2       1.0  0.28400  0.50000  0.33000  1.0000
  Co  Co3       1.0  0.78400  0.00000  0.67000  1.0000
  Co  Co4       1.0  0.23500  0.50000  0.89400  1.0000
  Sb  Sb1       1.0  0.97700  0.50000  0.11600  1.0000
  Sb  Sb2       1.0  0.51000  0.00000  0.35500  1.0000
  Sb  Sb3       1.0  0.01020  0.50000  0.64500  1.0000
  Sb  Sb4       1.0  0.47700  0.00000  0.88400  1.0000
  V   V1        1.0  0.48500  0.50000  0.11800  1.0000
  V   V2        1.0  0.98500  0.00000  0.88200  1.0000
  Y   Y1        1.0  0.00842  0.00000  0.37900  1.0000
  Y   Y2        1.0  0.50800  0.50000  0.62100  1.0000
