data_image0
_chemical_formula_structural       Bi4Nb2Rh4Sc2
_chemical_formula_sum              "Bi4 Nb2 Rh4 Sc2"
_cell_length_a       4.49965
_cell_length_b       6.3576
_cell_length_c       8.97955
_cell_angle_alpha    90
_cell_angle_beta     90
_cell_angle_gamma    90

_space_group_name_H-M_alt    "P 1"
_space_group_IT_number       1

loop_
  _space_group_symop_operation_xyz
  'x, y, z'

loop_
  _atom_site_type_symbol
  _atom_site_label
  _atom_site_symmetry_multiplicity
  _atom_site_fract_x
  _atom_site_fract_y
  _atom_site_fract_z
  _atom_site_occupancy
  Bi  Bi1       1.0  0.50000  0.98600  0.13100  1.0000
  Bi  Bi2       1.0  0.00000  0.51200  0.38000  1.0000
  Bi  Bi3       1.0  0.50000  0.01220  0.62000  1.0000
  Bi  Bi4       1.0  0.00000  0.48600  0.86900  1.0000
  Nb  Nb1       1.0  0.50000  0.49300  0.12400  1.0000
  Nb  Nb2       1.0  0.00000  0.99300  0.87600  1.0000
  Rh  Rh1       1.0  0.00000  0.73500  0.11400  1.0000
  Rh  Rh2       1.0  0.50000  0.26500  0.36200  1.0000
  Rh  Rh3       1.0  0.00000  0.76500  0.63800  1.0000
  Rh  Rh4       1.0  0.50000  0.23500  0.88600  1.0000
  Sc  Sc1       1.0  0.00000  0.00918  0.37600  1.0000
  Sc  Sc2       1.0  0.50000  0.50900  0.62400  1.0000
