data_image0
_chemical_formula_structural       Co4In2Sb2Ta4
_chemical_formula_sum              "Co4 In2 Sb2 Ta4"
_cell_length_a       7.28219
_cell_length_b       7.28219
_cell_length_c       7.28219
_cell_angle_alpha    131.804
_cell_angle_beta     131.804
_cell_angle_gamma    70.539

_space_group_name_H-M_alt    "P 1"
_space_group_IT_number       1

loop_
  _space_group_symop_operation_xyz
  'x, y, z'

loop_
  _atom_site_type_symbol
  _atom_site_label
  _atom_site_symmetry_multiplicity
  _atom_site_fract_x
  _atom_site_fract_y
  _atom_site_fract_z
  _atom_site_occupancy
  Co  Co1       1.0  0.13700  0.62500  0.01240  1.0000
  Co  Co2       1.0  0.87500  0.86300  0.48800  1.0000
  Co  Co3       1.0  0.37500  0.38700  0.51200  1.0000
  Co  Co4       1.0  0.61300  0.12500  0.98800  1.0000
  In  In1       1.0  0.00000  0.00000  0.00000  1.0000
  In  In2       1.0  0.75000  0.25000  0.50000  1.0000
  Sb  Sb1       1.0  0.50000  0.50000  0.00000  1.0000
  Sb  Sb2       1.0  0.25000  0.75000  0.50000  1.0000
  Ta  Ta1       1.0  0.24700  0.24700  0.00000  1.0000
  Ta  Ta2       1.0  0.75300  0.75300  0.00000  1.0000
  Ta  Ta3       1.0  0.50300  0.00302  0.50000  1.0000
  Ta  Ta4       1.0  0.99700  0.49700  0.50000  1.0000
