data_image0
_chemical_formula_structural       Pd2Ru2Sb4Zr4
_chemical_formula_sum              "Pd2 Ru2 Sb4 Zr4"
_cell_length_a       7.78183
_cell_length_b       7.78183
_cell_length_c       6.36472
_cell_angle_alpha    114.139
_cell_angle_beta     114.139
_cell_angle_gamma    48.2775

_space_group_name_H-M_alt    "P 1"
_space_group_IT_number       1

loop_
  _space_group_symop_operation_xyz
  'x, y, z'

loop_
  _atom_site_type_symbol
  _atom_site_label
  _atom_site_symmetry_multiplicity
  _atom_site_fract_x
  _atom_site_fract_y
  _atom_site_fract_z
  _atom_site_occupancy
  Pd  Pd1       1.0  0.25000  0.50000  0.12500  1.0000
  Pd  Pd2       1.0  0.50000  0.75000  0.87500  1.0000
  Ru  Ru1       1.0  0.00000  0.25000  0.37500  1.0000
  Ru  Ru2       1.0  0.75000  0.00000  0.62500  1.0000
  Sb  Sb1       1.0  0.11900  0.88100  0.00000  1.0000
  Sb  Sb2       1.0  0.87500  0.62500  0.25600  1.0000
  Sb  Sb3       1.0  0.63100  0.36900  0.50000  1.0000
  Sb  Sb4       1.0  0.37500  0.12500  0.74400  1.0000
  Zr  Zr1       1.0  0.63100  0.36900  0.00000  1.0000
  Zr  Zr2       1.0  0.37500  0.12500  0.25600  1.0000
  Zr  Zr3       1.0  0.11900  0.88100  0.50000  1.0000
  Zr  Zr4       1.0  0.87500  0.62500  0.74400  1.0000
