data_image0
_chemical_formula_structural       Bi2Ga2Ni4Ti4
_chemical_formula_sum              "Bi2 Ga2 Ni4 Ti4"
_cell_length_a       7.20826
_cell_length_b       7.20826
_cell_length_c       7.20826
_cell_angle_alpha    131.717
_cell_angle_beta     131.717
_cell_angle_gamma    70.6769

_space_group_name_H-M_alt    "P 1"
_space_group_IT_number       1

loop_
  _space_group_symop_operation_xyz
  'x, y, z'

loop_
  _atom_site_type_symbol
  _atom_site_label
  _atom_site_symmetry_multiplicity
  _atom_site_fract_x
  _atom_site_fract_y
  _atom_site_fract_z
  _atom_site_occupancy
  Bi  Bi1       1.0  0.37500  0.12500  0.25000  1.0000
  Bi  Bi2       1.0  0.12500  0.37500  0.75000  1.0000
  Ga  Ga1       1.0  0.87500  0.62500  0.25000  1.0000
  Ga  Ga2       1.0  0.62500  0.87500  0.75000  1.0000
  Ni  Ni1       1.0  0.75000  0.98400  0.23400  1.0000
  Ni  Ni2       1.0  0.25000  0.51600  0.26600  1.0000
  Ni  Ni3       1.0  0.98400  0.75000  0.73400  1.0000
  Ni  Ni4       1.0  0.51600  0.25000  0.76600  1.0000
  Ti  Ti1       1.0  0.63500  0.38500  0.25000  1.0000
  Ti  Ti2       1.0  0.11500  0.86500  0.25000  1.0000
  Ti  Ti3       1.0  0.86500  0.11500  0.75000  1.0000
  Ti  Ti4       1.0  0.38500  0.63500  0.75000  1.0000
