data_image0
_chemical_formula_structural       Ga2Nb4Rh4Sb2
_chemical_formula_sum              "Ga2 Nb4 Rh4 Sb2"
_cell_length_a       6.10649
_cell_length_b       6.10649
_cell_length_c       7.47149
_cell_angle_alpha    114.12
_cell_angle_beta     114.12
_cell_angle_gamma    90

_space_group_name_H-M_alt    "P 1"
_space_group_IT_number       1

loop_
  _space_group_symop_operation_xyz
  'x, y, z'

loop_
  _atom_site_type_symbol
  _atom_site_label
  _atom_site_symmetry_multiplicity
  _atom_site_fract_x
  _atom_site_fract_y
  _atom_site_fract_z
  _atom_site_occupancy
  Ga  Ga1       1.0  0.25000  0.00000  0.00000  1.0000
  Ga  Ga2       1.0  0.00000  0.25000  0.50000  1.0000
  Nb  Nb1       1.0  0.75600  0.00569  0.01140  1.0000
  Nb  Nb2       1.0  0.49400  0.24400  0.48900  1.0000
  Nb  Nb3       1.0  0.00569  0.75600  0.51100  1.0000
  Nb  Nb4       1.0  0.24400  0.49400  0.98900  1.0000
  Rh  Rh1       1.0  0.12500  0.87800  0.25000  1.0000
  Rh  Rh2       1.0  0.62500  0.37200  0.25000  1.0000
  Rh  Rh3       1.0  0.87800  0.12500  0.75000  1.0000
  Rh  Rh4       1.0  0.37200  0.62500  0.75000  1.0000
  Sb  Sb1       1.0  0.75000  0.50000  0.00000  1.0000
  Sb  Sb2       1.0  0.50000  0.75000  0.50000  1.0000
