data_image0
_chemical_formula_structural       Nb4Pt2Ru2Sn4
_chemical_formula_sum              "Nb4 Pt2 Ru2 Sn4"
_cell_length_a       6.24585
_cell_length_b       6.24585
_cell_length_c       7.62695
_cell_angle_alpha    114.171
_cell_angle_beta     114.171
_cell_angle_gamma    90

_space_group_name_H-M_alt    "P 1"
_space_group_IT_number       1

loop_
  _space_group_symop_operation_xyz
  'x, y, z'

loop_
  _atom_site_type_symbol
  _atom_site_label
  _atom_site_symmetry_multiplicity
  _atom_site_fract_x
  _atom_site_fract_y
  _atom_site_fract_z
  _atom_site_occupancy
  Nb  Nb1       1.0  0.63500  0.37500  0.25000  1.0000
  Nb  Nb2       1.0  0.11500  0.87500  0.25000  1.0000
  Nb  Nb3       1.0  0.37500  0.63500  0.75000  1.0000
  Nb  Nb4       1.0  0.87500  0.11500  0.75000  1.0000
  Pt  Pt1       1.0  0.25000  0.50000  0.00000  1.0000
  Pt  Pt2       1.0  0.50000  0.25000  0.50000  1.0000
  Ru  Ru1       1.0  0.75000  0.00000  0.00000  1.0000
  Ru  Ru2       1.0  0.00000  0.75000  0.50000  1.0000
  Sn  Sn1       1.0  0.62700  0.87500  0.25000  1.0000
  Sn  Sn2       1.0  0.12300  0.37500  0.25000  1.0000
  Sn  Sn3       1.0  0.87500  0.62700  0.75000  1.0000
  Sn  Sn4       1.0  0.37500  0.12300  0.75000  1.0000
