data_image0
_chemical_formula_structural       Os2Pd2Sb4Zr4
_chemical_formula_sum              "Os2 Pd2 Sb4 Zr4"
_cell_length_a       6.37987
_cell_length_b       6.37987
_cell_length_c       7.80482
_cell_angle_alpha    65.8759
_cell_angle_beta     65.8759
_cell_angle_gamma    90

_space_group_name_H-M_alt    "P 1"
_space_group_IT_number       1

loop_
  _space_group_symop_operation_xyz
  'x, y, z'

loop_
  _atom_site_type_symbol
  _atom_site_label
  _atom_site_symmetry_multiplicity
  _atom_site_fract_x
  _atom_site_fract_y
  _atom_site_fract_z
  _atom_site_occupancy
  Os  Os1       1.0  0.00000  0.00000  0.00000  1.0000
  Os  Os2       1.0  0.25000  0.75000  0.50000  1.0000
  Pd  Pd1       1.0  0.50000  0.50000  0.00000  1.0000
  Pd  Pd2       1.0  0.75000  0.25000  0.50000  1.0000
  Sb  Sb1       1.0  0.12500  0.63100  0.25000  1.0000
  Sb  Sb2       1.0  0.62500  0.11900  0.25000  1.0000
  Sb  Sb3       1.0  0.36900  0.37500  0.75000  1.0000
  Sb  Sb4       1.0  0.88100  0.87500  0.75000  1.0000
  Zr  Zr1       1.0  0.62500  0.62800  0.25000  1.0000
  Zr  Zr2       1.0  0.12500  0.12200  0.25000  1.0000
  Zr  Zr3       1.0  0.87800  0.37500  0.75000  1.0000
  Zr  Zr4       1.0  0.37200  0.87500  0.75000  1.0000
