data_image0
_chemical_formula_structural       Al2Rh4Sb2V4
_chemical_formula_sum              "Al2 Rh4 Sb2 V4"
_cell_length_a       7.26527
_cell_length_b       7.26527
_cell_length_c       5.92694
_cell_angle_alpha    65.9273
_cell_angle_beta     65.9273
_cell_angle_gamma    48.1455

_space_group_name_H-M_alt    "P 1"
_space_group_IT_number       1

loop_
  _space_group_symop_operation_xyz
  'x, y, z'

loop_
  _atom_site_type_symbol
  _atom_site_label
  _atom_site_symmetry_multiplicity
  _atom_site_fract_x
  _atom_site_fract_y
  _atom_site_fract_z
  _atom_site_occupancy
  Al  Al1       1.0  0.00000  0.00000  0.00000  1.0000
  Al  Al2       1.0  0.25000  0.25000  0.25000  1.0000
  Rh  Rh1       1.0  0.88900  0.36100  0.12500  1.0000
  Rh  Rh2       1.0  0.12500  0.62500  0.36100  1.0000
  Rh  Rh3       1.0  0.36100  0.88900  0.62500  1.0000
  Rh  Rh4       1.0  0.62500  0.12500  0.88900  1.0000
  Sb  Sb1       1.0  0.50000  0.50000  0.50000  1.0000
  Sb  Sb2       1.0  0.75000  0.75000  0.75000  1.0000
  V   V1        1.0  0.49400  0.49400  0.00580  1.0000
  V   V2        1.0  0.75600  0.75600  0.24400  1.0000
  V   V3        1.0  0.00580  0.00580  0.49400  1.0000
  V   V4        1.0  0.24400  0.24400  0.75600  1.0000
