data_image0
_chemical_formula_structural       Al2Bi2Co4Ta4
_chemical_formula_sum              "Al2 Bi2 Co4 Ta4"
_cell_length_a       7.24173
_cell_length_b       7.24173
_cell_length_c       7.24173
_cell_angle_alpha    131.72
_cell_angle_beta     131.72
_cell_angle_gamma    70.6721

_space_group_name_H-M_alt    "P 1"
_space_group_IT_number       1

loop_
  _space_group_symop_operation_xyz
  'x, y, z'

loop_
  _atom_site_type_symbol
  _atom_site_label
  _atom_site_symmetry_multiplicity
  _atom_site_fract_x
  _atom_site_fract_y
  _atom_site_fract_z
  _atom_site_occupancy
  Al  Al1       1.0  0.00000  0.00000  0.00000  1.0000
  Al  Al2       1.0  0.75000  0.25000  0.50000  1.0000
  Bi  Bi1       1.0  0.50000  0.50000  0.00000  1.0000
  Bi  Bi2       1.0  0.25000  0.75000  0.50000  1.0000
  Co  Co1       1.0  0.63900  0.12500  0.01350  1.0000
  Co  Co2       1.0  0.37500  0.36100  0.48600  1.0000
  Co  Co3       1.0  0.87500  0.88900  0.51400  1.0000
  Co  Co4       1.0  0.11100  0.62500  0.98600  1.0000
  Ta  Ta1       1.0  0.24100  0.24100  0.00000  1.0000
  Ta  Ta2       1.0  0.75900  0.75900  0.00000  1.0000
  Ta  Ta3       1.0  0.50900  0.00890  0.50000  1.0000
  Ta  Ta4       1.0  0.99100  0.49100  0.50000  1.0000
