data_image0
_chemical_formula_structural       Al2Bi2Pt4Ti4
_chemical_formula_sum              "Al2 Bi2 Pt4 Ti4"
_cell_length_a       7.5612
_cell_length_b       7.5612
_cell_length_c       6.18859
_cell_angle_alpha    114.157
_cell_angle_beta     114.157
_cell_angle_gamma    109.276

_space_group_name_H-M_alt    "P 1"
_space_group_IT_number       1

loop_
  _space_group_symop_operation_xyz
  'x, y, z'

loop_
  _atom_site_type_symbol
  _atom_site_label
  _atom_site_symmetry_multiplicity
  _atom_site_fract_x
  _atom_site_fract_y
  _atom_site_fract_z
  _atom_site_occupancy
  Al  Al1       1.0  0.00000  0.00000  0.00000  1.0000
  Al  Al2       1.0  0.25000  0.75000  0.50000  1.0000
  Bi  Bi1       1.0  0.50000  0.50000  0.00000  1.0000
  Bi  Bi2       1.0  0.75000  0.25000  0.50000  1.0000
  Pt  Pt1       1.0  0.90100  0.65100  0.02580  1.0000
  Pt  Pt2       1.0  0.12500  0.37500  0.47400  1.0000
  Pt  Pt3       1.0  0.62500  0.87500  0.52600  1.0000
  Pt  Pt4       1.0  0.34900  0.09920  0.97400  1.0000
  Ti  Ti1       1.0  0.75600  0.24400  0.00000  1.0000
  Ti  Ti2       1.0  0.24400  0.75600  0.00000  1.0000
  Ti  Ti3       1.0  0.49400  0.50600  0.50000  1.0000
  Ti  Ti4       1.0  0.00614  0.99400  0.50000  1.0000
