data_image0
_chemical_formula_structural       Ga2Ir4Sb2V4
_chemical_formula_sum              "Ga2 Ir4 Sb2 V4"
_cell_length_a       7.30114
_cell_length_b       7.30114
_cell_length_c       7.30114
_cell_angle_alpha    131.785
_cell_angle_beta     131.785
_cell_angle_gamma    70.5684

_space_group_name_H-M_alt    "P 1"
_space_group_IT_number       1

loop_
  _space_group_symop_operation_xyz
  'x, y, z'

loop_
  _atom_site_type_symbol
  _atom_site_label
  _atom_site_symmetry_multiplicity
  _atom_site_fract_x
  _atom_site_fract_y
  _atom_site_fract_z
  _atom_site_occupancy
  Ga  Ga1       1.0  0.00000  0.00000  0.00000  1.0000
  Ga  Ga2       1.0  0.75000  0.25000  0.50000  1.0000
  Ir  Ir1       1.0  0.63500  0.12500  0.01000  1.0000
  Ir  Ir2       1.0  0.37500  0.36500  0.49000  1.0000
  Ir  Ir3       1.0  0.87500  0.88500  0.51000  1.0000
  Ir  Ir4       1.0  0.11500  0.62500  0.99000  1.0000
  Sb  Sb1       1.0  0.50000  0.50000  0.00000  1.0000
  Sb  Sb2       1.0  0.25000  0.75000  0.50000  1.0000
  V   V1        1.0  0.24400  0.24400  0.00000  1.0000
  V   V2        1.0  0.75600  0.75600  0.00000  1.0000
  V   V3        1.0  0.50600  0.00603  0.50000  1.0000
  V   V4        1.0  0.99400  0.49400  0.50000  1.0000
