data_image0
_chemical_formula_structural       Al2Bi2Ir4Ta4
_chemical_formula_sum              "Al2 Bi2 Ir4 Ta4"
_cell_length_a       6.20667
_cell_length_b       6.20667
_cell_length_c       7.59088
_cell_angle_alpha    65.869
_cell_angle_beta     65.869
_cell_angle_gamma    90

_space_group_name_H-M_alt    "P 1"
_space_group_IT_number       1

loop_
  _space_group_symop_operation_xyz
  'x, y, z'

loop_
  _atom_site_type_symbol
  _atom_site_label
  _atom_site_symmetry_multiplicity
  _atom_site_fract_x
  _atom_site_fract_y
  _atom_site_fract_z
  _atom_site_occupancy
  Al  Al1       1.0  0.00000  0.00000  0.00000  1.0000
  Al  Al2       1.0  0.25000  0.75000  0.50000  1.0000
  Bi  Bi1       1.0  0.50000  0.50000  0.00000  1.0000
  Bi  Bi2       1.0  0.75000  0.25000  0.50000  1.0000
  Ir  Ir1       1.0  0.12500  0.64300  0.25000  1.0000
  Ir  Ir2       1.0  0.62500  0.10700  0.25000  1.0000
  Ir  Ir3       1.0  0.89300  0.87500  0.75000  1.0000
  Ir  Ir4       1.0  0.35700  0.37500  0.75000  1.0000
  Ta  Ta1       1.0  0.49400  0.99400  0.01280  1.0000
  Ta  Ta2       1.0  0.75600  0.75600  0.48700  1.0000
  Ta  Ta3       1.0  0.24400  0.24400  0.51300  1.0000
  Ta  Ta4       1.0  0.00638  0.50600  0.98700  1.0000
