data_image0
_chemical_formula_structural       Bi2Ga2Pd4Ti4
_chemical_formula_sum              "Bi2 Ga2 Pd4 Ti4"
_cell_length_a       7.54338
_cell_length_b       7.54338
_cell_length_c       6.18155
_cell_angle_alpha    114.188
_cell_angle_beta     114.188
_cell_angle_gamma    109.176

_space_group_name_H-M_alt    "P 1"
_space_group_IT_number       1

loop_
  _space_group_symop_operation_xyz
  'x, y, z'

loop_
  _atom_site_type_symbol
  _atom_site_label
  _atom_site_symmetry_multiplicity
  _atom_site_fract_x
  _atom_site_fract_y
  _atom_site_fract_z
  _atom_site_occupancy
  Bi  Bi1       1.0  0.50000  0.50000  0.00000  1.0000
  Bi  Bi2       1.0  0.75000  0.25000  0.50000  1.0000
  Ga  Ga1       1.0  0.00000  0.00000  0.00000  1.0000
  Ga  Ga2       1.0  0.25000  0.75000  0.50000  1.0000
  Pd  Pd1       1.0  0.89400  0.64400  0.01870  1.0000
  Pd  Pd2       1.0  0.12500  0.37500  0.48100  1.0000
  Pd  Pd3       1.0  0.62500  0.87500  0.51900  1.0000
  Pd  Pd4       1.0  0.35600  0.10600  0.98100  1.0000
  Ti  Ti1       1.0  0.75700  0.24300  0.00000  1.0000
  Ti  Ti2       1.0  0.24300  0.75700  0.00000  1.0000
  Ti  Ti3       1.0  0.49300  0.50700  0.50000  1.0000
  Ti  Ti4       1.0  0.00721  0.99300  0.50000  1.0000
