data_image0
_chemical_formula_structural       Al2Bi2Hf4Pt4
_chemical_formula_sum              "Al2 Bi2 Hf4 Pt4"
_cell_length_a       7.76646
_cell_length_b       7.76646
_cell_length_c       6.3588
_cell_angle_alpha    114.166
_cell_angle_beta     114.166
_cell_angle_gamma    109.247

_space_group_name_H-M_alt    "P 1"
_space_group_IT_number       1

loop_
  _space_group_symop_operation_xyz
  'x, y, z'

loop_
  _atom_site_type_symbol
  _atom_site_label
  _atom_site_symmetry_multiplicity
  _atom_site_fract_x
  _atom_site_fract_y
  _atom_site_fract_z
  _atom_site_occupancy
  Al  Al1       1.0  0.00000  0.00000  0.00000  1.0000
  Al  Al2       1.0  0.25000  0.75000  0.50000  1.0000
  Bi  Bi1       1.0  0.50000  0.50000  0.00000  1.0000
  Bi  Bi2       1.0  0.75000  0.25000  0.50000  1.0000
  Hf  Hf1       1.0  0.75500  0.24500  0.00000  1.0000
  Hf  Hf2       1.0  0.24500  0.75500  0.00000  1.0000
  Hf  Hf3       1.0  0.49500  0.50500  0.50000  1.0000
  Hf  Hf4       1.0  0.00478  0.99500  0.50000  1.0000
  Pt  Pt1       1.0  0.89600  0.64600  0.02110  1.0000
  Pt  Pt2       1.0  0.12500  0.37500  0.47900  1.0000
  Pt  Pt3       1.0  0.62500  0.87500  0.52100  1.0000
  Pt  Pt4       1.0  0.35400  0.10400  0.97900  1.0000
