data_image0
_chemical_formula_structural       Bi4Pt2Ru2Ti4
_chemical_formula_sum              "Bi4 Pt2 Ru2 Ti4"
_cell_length_a       6.31523
_cell_length_b       6.31523
_cell_length_c       7.70863
_cell_angle_alpha    65.819
_cell_angle_beta     65.819
_cell_angle_gamma    90

_space_group_name_H-M_alt    "P 1"
_space_group_IT_number       1

loop_
  _space_group_symop_operation_xyz
  'x, y, z'

loop_
  _atom_site_type_symbol
  _atom_site_label
  _atom_site_symmetry_multiplicity
  _atom_site_fract_x
  _atom_site_fract_y
  _atom_site_fract_z
  _atom_site_occupancy
  Bi  Bi1       1.0  0.12500  0.63100  0.25000  1.0000
  Bi  Bi2       1.0  0.62500  0.11900  0.25000  1.0000
  Bi  Bi3       1.0  0.88100  0.87500  0.75000  1.0000
  Bi  Bi4       1.0  0.36900  0.37500  0.75000  1.0000
  Pt  Pt1       1.0  0.50000  0.50000  0.00000  1.0000
  Pt  Pt2       1.0  0.75000  0.25000  0.50000  1.0000
  Ru  Ru1       1.0  0.00000  0.00000  0.00000  1.0000
  Ru  Ru2       1.0  0.25000  0.75000  0.50000  1.0000
  Ti  Ti1       1.0  0.62500  0.63300  0.25000  1.0000
  Ti  Ti2       1.0  0.12500  0.11700  0.25000  1.0000
  Ti  Ti3       1.0  0.88300  0.37500  0.75000  1.0000
  Ti  Ti4       1.0  0.36700  0.87500  0.75000  1.0000
