data_image0
_chemical_formula_structural       Rh4Sb4Sc2V2
_chemical_formula_sum              "Rh4 Sb4 Sc2 V2"
_cell_length_a       6.15169
_cell_length_b       4.37833
_cell_length_c       8.66734
_cell_angle_alpha    90
_cell_angle_beta     90
_cell_angle_gamma    90

_space_group_name_H-M_alt    "P 1"
_space_group_IT_number       1

loop_
  _space_group_symop_operation_xyz
  'x, y, z'

loop_
  _atom_site_type_symbol
  _atom_site_label
  _atom_site_symmetry_multiplicity
  _atom_site_fract_x
  _atom_site_fract_y
  _atom_site_fract_z
  _atom_site_occupancy
  Rh  Rh1       1.0  0.73300  0.50000  0.11100  1.0000
  Rh  Rh2       1.0  0.27100  0.00000  0.35500  1.0000
  Rh  Rh3       1.0  0.77100  0.50000  0.64500  1.0000
  Rh  Rh4       1.0  0.23300  0.00000  0.88900  1.0000
  Sb  Sb1       1.0  0.97900  0.00000  0.12700  1.0000
  Sb  Sb2       1.0  0.51600  0.50000  0.37700  1.0000
  Sb  Sb3       1.0  0.01580  0.00000  0.62300  1.0000
  Sb  Sb4       1.0  0.47900  0.50000  0.87300  1.0000
  Sc  Sc1       1.0  0.01100  0.50000  0.37500  1.0000
  Sc  Sc2       1.0  0.51100  0.00000  0.62500  1.0000
  V   V1        1.0  0.49100  0.00000  0.12200  1.0000
  V   V2        1.0  0.99100  0.50000  0.87800  1.0000
