data_image0
_chemical_formula_structural       Al2Ir4Sb2Ta4
_chemical_formula_sum              "Al2 Ir4 Sb2 Ta4"
_cell_length_a       7.52012
_cell_length_b       7.52012
_cell_length_c       7.52012
_cell_angle_alpha    131.805
_cell_angle_beta     131.805
_cell_angle_gamma    70.5368

_space_group_name_H-M_alt    "P 1"
_space_group_IT_number       1

loop_
  _space_group_symop_operation_xyz
  'x, y, z'

loop_
  _atom_site_type_symbol
  _atom_site_label
  _atom_site_symmetry_multiplicity
  _atom_site_fract_x
  _atom_site_fract_y
  _atom_site_fract_z
  _atom_site_occupancy
  Al  Al1       1.0  0.00000  0.00000  0.00000  1.0000
  Al  Al2       1.0  0.75000  0.25000  0.50000  1.0000
  Ir  Ir1       1.0  0.63300  0.12500  0.00766  1.0000
  Ir  Ir2       1.0  0.37500  0.36700  0.49200  1.0000
  Ir  Ir3       1.0  0.87500  0.88300  0.50800  1.0000
  Ir  Ir4       1.0  0.11700  0.62500  0.99200  1.0000
  Sb  Sb1       1.0  0.50000  0.50000  0.00000  1.0000
  Sb  Sb2       1.0  0.25000  0.75000  0.50000  1.0000
  Ta  Ta1       1.0  0.24500  0.24500  0.00000  1.0000
  Ta  Ta2       1.0  0.75500  0.75500  0.00000  1.0000
  Ta  Ta3       1.0  0.50500  0.00496  0.50000  1.0000
  Ta  Ta4       1.0  0.99500  0.49500  0.50000  1.0000
