data_image0
_chemical_formula_structural       In2Pt4Sb2Zr4
_chemical_formula_sum              "In2 Pt4 Sb2 Zr4"
_cell_length_a       6.39273
_cell_length_b       6.39273
_cell_length_c       7.85389
_cell_angle_alpha    65.9848
_cell_angle_beta     65.9848
_cell_angle_gamma    90

_space_group_name_H-M_alt    "P 1"
_space_group_IT_number       1

loop_
  _space_group_symop_operation_xyz
  'x, y, z'

loop_
  _atom_site_type_symbol
  _atom_site_label
  _atom_site_symmetry_multiplicity
  _atom_site_fract_x
  _atom_site_fract_y
  _atom_site_fract_z
  _atom_site_occupancy
  In  In1       1.0  0.00000  0.00000  0.00000  1.0000
  In  In2       1.0  0.25000  0.75000  0.50000  1.0000
  Pt  Pt1       1.0  0.62500  0.13000  0.25000  1.0000
  Pt  Pt2       1.0  0.12500  0.62000  0.25000  1.0000
  Pt  Pt3       1.0  0.87000  0.87500  0.75000  1.0000
  Pt  Pt4       1.0  0.38000  0.37500  0.75000  1.0000
  Sb  Sb1       1.0  0.50000  0.50000  0.00000  1.0000
  Sb  Sb2       1.0  0.75000  0.25000  0.50000  1.0000
  Zr  Zr1       1.0  0.49600  0.99600  0.00878  1.0000
  Zr  Zr2       1.0  0.75400  0.75400  0.49100  1.0000
  Zr  Zr3       1.0  0.24600  0.24600  0.50900  1.0000
  Zr  Zr4       1.0  0.00439  0.50400  0.99100  1.0000
