data_image0
_chemical_formula_structural       Bi2In2Ir4Ta4
_chemical_formula_sum              "Bi2 In2 Ir4 Ta4"
_cell_length_a       6.29078
_cell_length_b       6.29078
_cell_length_c       7.71107
_cell_angle_alpha    65.9266
_cell_angle_beta     65.9266
_cell_angle_gamma    90

_space_group_name_H-M_alt    "P 1"
_space_group_IT_number       1

loop_
  _space_group_symop_operation_xyz
  'x, y, z'

loop_
  _atom_site_type_symbol
  _atom_site_label
  _atom_site_symmetry_multiplicity
  _atom_site_fract_x
  _atom_site_fract_y
  _atom_site_fract_z
  _atom_site_occupancy
  Bi  Bi1       1.0  0.50000  0.50000  0.00000  1.0000
  Bi  Bi2       1.0  0.75000  0.25000  0.50000  1.0000
  In  In1       1.0  0.00000  0.00000  0.00000  1.0000
  In  In2       1.0  0.25000  0.75000  0.50000  1.0000
  Ir  Ir1       1.0  0.62500  0.12400  0.25000  1.0000
  Ir  Ir2       1.0  0.12500  0.62600  0.25000  1.0000
  Ir  Ir3       1.0  0.87600  0.87500  0.75000  1.0000
  Ir  Ir4       1.0  0.37400  0.37500  0.75000  1.0000
  Ta  Ta1       1.0  0.49500  0.99500  0.00981  1.0000
  Ta  Ta2       1.0  0.75500  0.75500  0.49000  1.0000
  Ta  Ta3       1.0  0.24500  0.24500  0.51000  1.0000
  Ta  Ta4       1.0  0.00490  0.50500  0.99000  1.0000
