data_image0
_chemical_formula_structural       In2Pt4Sb2Ti4
_chemical_formula_sum              "In2 Pt4 Sb2 Ti4"
_cell_length_a       7.62242
_cell_length_b       7.62242
_cell_length_c       6.20845
_cell_angle_alpha    114.032
_cell_angle_beta     114.032
_cell_angle_gamma    109.669

_space_group_name_H-M_alt    "P 1"
_space_group_IT_number       1

loop_
  _space_group_symop_operation_xyz
  'x, y, z'

loop_
  _atom_site_type_symbol
  _atom_site_label
  _atom_site_symmetry_multiplicity
  _atom_site_fract_x
  _atom_site_fract_y
  _atom_site_fract_z
  _atom_site_occupancy
  In  In1       1.0  0.00000  0.00000  0.00000  1.0000
  In  In2       1.0  0.25000  0.75000  0.50000  1.0000
  Pt  Pt1       1.0  0.38100  0.13100  0.00606  1.0000
  Pt  Pt2       1.0  0.62500  0.87500  0.49400  1.0000
  Pt  Pt3       1.0  0.12500  0.37500  0.50600  1.0000
  Pt  Pt4       1.0  0.86900  0.61900  0.99400  1.0000
  Sb  Sb1       1.0  0.50000  0.50000  0.00000  1.0000
  Sb  Sb2       1.0  0.75000  0.25000  0.50000  1.0000
  Ti  Ti1       1.0  0.75500  0.24500  0.00000  1.0000
  Ti  Ti2       1.0  0.24500  0.75500  0.00000  1.0000
  Ti  Ti3       1.0  0.49500  0.50500  0.50000  1.0000
  Ti  Ti4       1.0  0.00481  0.99500  0.50000  1.0000
