data_image0
_chemical_formula_structural       Nb2Pt4Sn4Y2
_chemical_formula_sum              "Nb2 Pt4 Sn4 Y2"
_cell_length_a       6.43841
_cell_length_b       4.54309
_cell_length_c       9.08217
_cell_angle_alpha    90
_cell_angle_beta     90
_cell_angle_gamma    90

_space_group_name_H-M_alt    "P 1"
_space_group_IT_number       1

loop_
  _space_group_symop_operation_xyz
  'x, y, z'

loop_
  _atom_site_type_symbol
  _atom_site_label
  _atom_site_symmetry_multiplicity
  _atom_site_fract_x
  _atom_site_fract_y
  _atom_site_fract_z
  _atom_site_occupancy
  Nb  Nb1       1.0  0.49800  0.50000  0.12300  1.0000
  Nb  Nb2       1.0  0.99800  0.00000  0.87700  1.0000
  Pt  Pt1       1.0  0.73700  0.00000  0.11200  1.0000
  Pt  Pt2       1.0  0.26600  0.50000  0.35800  1.0000
  Pt  Pt3       1.0  0.76600  0.00000  0.64200  1.0000
  Pt  Pt4       1.0  0.23700  0.50000  0.88800  1.0000
  Sn  Sn1       1.0  0.98500  0.50000  0.12500  1.0000
  Sn  Sn2       1.0  0.51100  0.00000  0.37300  1.0000
  Sn  Sn3       1.0  0.01110  0.50000  0.62700  1.0000
  Sn  Sn4       1.0  0.48500  0.00000  0.87500  1.0000
  Y   Y1        1.0  0.00319  0.00000  0.37600  1.0000
  Y   Y2        1.0  0.50300  0.50000  0.62400  1.0000
