data_image0
_chemical_formula_structural       Bi4Lu2Nb2Rh4
_chemical_formula_sum              "Bi4 Lu2 Nb2 Rh4"
_cell_length_a       4.55864
_cell_length_b       6.43515
_cell_length_c       9.07529
_cell_angle_alpha    90
_cell_angle_beta     90
_cell_angle_gamma    90

_space_group_name_H-M_alt    "P 1"
_space_group_IT_number       1

loop_
  _space_group_symop_operation_xyz
  'x, y, z'

loop_
  _atom_site_type_symbol
  _atom_site_label
  _atom_site_symmetry_multiplicity
  _atom_site_fract_x
  _atom_site_fract_y
  _atom_site_fract_z
  _atom_site_occupancy
  Bi  Bi1       1.0  0.50000  0.98300  0.12700  1.0000
  Bi  Bi2       1.0  0.00000  0.51400  0.37600  1.0000
  Bi  Bi3       1.0  0.50000  0.01380  0.62400  1.0000
  Bi  Bi4       1.0  0.00000  0.48300  0.87300  1.0000
  Lu  Lu1       1.0  0.00000  0.00862  0.37500  1.0000
  Lu  Lu2       1.0  0.50000  0.50900  0.62500  1.0000
  Nb  Nb1       1.0  0.50000  0.49200  0.12300  1.0000
  Nb  Nb2       1.0  0.00000  0.99200  0.87700  1.0000
  Rh  Rh1       1.0  0.00000  0.73400  0.11100  1.0000
  Rh  Rh2       1.0  0.50000  0.26800  0.35700  1.0000
  Rh  Rh3       1.0  0.00000  0.76800  0.64300  1.0000
  Rh  Rh4       1.0  0.50000  0.23400  0.88900  1.0000
