data_image0
_chemical_formula_structural       Lu2Pt4Sn4V2
_chemical_formula_sum              "Lu2 Pt4 Sn4 V2"
_cell_length_a       6.34397
_cell_length_b       4.47324
_cell_length_c       8.87638
_cell_angle_alpha    90
_cell_angle_beta     90
_cell_angle_gamma    90

_space_group_name_H-M_alt    "P 1"
_space_group_IT_number       1

loop_
  _space_group_symop_operation_xyz
  'x, y, z'

loop_
  _atom_site_type_symbol
  _atom_site_label
  _atom_site_symmetry_multiplicity
  _atom_site_fract_x
  _atom_site_fract_y
  _atom_site_fract_z
  _atom_site_occupancy
  Lu  Lu1       1.0  0.00514  0.50000  0.37600  1.0000
  Lu  Lu2       1.0  0.50500  0.00000  0.62400  1.0000
  Pt  Pt1       1.0  0.73800  0.50000  0.11100  1.0000
  Pt  Pt2       1.0  0.26800  0.00000  0.35400  1.0000
  Pt  Pt3       1.0  0.76800  0.50000  0.64600  1.0000
  Pt  Pt4       1.0  0.23800  0.00000  0.88900  1.0000
  Sn  Sn1       1.0  0.98000  0.00000  0.12200  1.0000
  Sn  Sn2       1.0  0.51300  0.50000  0.37000  1.0000
  Sn  Sn3       1.0  0.01300  0.00000  0.63000  1.0000
  Sn  Sn4       1.0  0.48000  0.50000  0.87800  1.0000
  V   V1        1.0  0.49600  0.00000  0.12300  1.0000
  V   V2        1.0  0.99600  0.50000  0.87700  1.0000
