data_image0
_chemical_formula_structural       Nb2Pt4Sc2Sn4
_chemical_formula_sum              "Nb2 Pt4 Sc2 Sn4"
_cell_length_a       6.31783
_cell_length_b       4.46418
_cell_length_c       8.94317
_cell_angle_alpha    90
_cell_angle_beta     90
_cell_angle_gamma    90

_space_group_name_H-M_alt    "P 1"
_space_group_IT_number       1

loop_
  _space_group_symop_operation_xyz
  'x, y, z'

loop_
  _atom_site_type_symbol
  _atom_site_label
  _atom_site_symmetry_multiplicity
  _atom_site_fract_x
  _atom_site_fract_y
  _atom_site_fract_z
  _atom_site_occupancy
  Nb  Nb1       1.0  0.49700  0.50000  0.12600  1.0000
  Nb  Nb2       1.0  0.99700  0.00000  0.87400  1.0000
  Pt  Pt1       1.0  0.74000  0.00000  0.11700  1.0000
  Pt  Pt2       1.0  0.26000  0.50000  0.36600  1.0000
  Pt  Pt3       1.0  0.76000  0.00000  0.63400  1.0000
  Pt  Pt4       1.0  0.24000  0.50000  0.88300  1.0000
  Sc  Sc1       1.0  0.00320  0.00000  0.37700  1.0000
  Sc  Sc2       1.0  0.50300  0.50000  0.62300  1.0000
  Sn  Sn1       1.0  0.99200  0.50000  0.12900  1.0000
  Sn  Sn2       1.0  0.50800  0.00000  0.37800  1.0000
  Sn  Sn3       1.0  0.00813  0.50000  0.62200  1.0000
  Sn  Sn4       1.0  0.49200  0.00000  0.87100  1.0000
