data_image0
_chemical_formula_structural       Bi4Os2Pd2Ti4
_chemical_formula_sum              "Bi4 Os2 Pd2 Ti4"
_cell_length_a       7.7286
_cell_length_b       7.7286
_cell_length_c       6.32601
_cell_angle_alpha    114.158
_cell_angle_beta     114.158
_cell_angle_gamma    109.27

_space_group_name_H-M_alt    "P 1"
_space_group_IT_number       1

loop_
  _space_group_symop_operation_xyz
  'x, y, z'

loop_
  _atom_site_type_symbol
  _atom_site_label
  _atom_site_symmetry_multiplicity
  _atom_site_fract_x
  _atom_site_fract_y
  _atom_site_fract_z
  _atom_site_occupancy
  Bi  Bi1       1.0  0.37900  0.12900  0.00427  1.0000
  Bi  Bi2       1.0  0.62500  0.87500  0.49600  1.0000
  Bi  Bi3       1.0  0.12500  0.37500  0.50400  1.0000
  Bi  Bi4       1.0  0.87100  0.62100  0.99600  1.0000
  Os  Os1       1.0  0.00000  0.00000  0.00000  1.0000
  Os  Os2       1.0  0.25000  0.75000  0.50000  1.0000
  Pd  Pd1       1.0  0.50000  0.50000  0.00000  1.0000
  Pd  Pd2       1.0  0.75000  0.25000  0.50000  1.0000
  Ti  Ti1       1.0  0.12500  0.37500  0.01610  1.0000
  Ti  Ti2       1.0  0.35900  0.10900  0.48400  1.0000
  Ti  Ti3       1.0  0.89100  0.64100  0.51600  1.0000
  Ti  Ti4       1.0  0.62500  0.87500  0.98400  1.0000
