data_image0
_chemical_formula_structural       La2Rh4Sb4Ta2
_chemical_formula_sum              "La2 Rh4 Sb4 Ta2"
_cell_length_a       6.51039
_cell_length_b       4.50503
_cell_length_c       9.27063
_cell_angle_alpha    90
_cell_angle_beta     90
_cell_angle_gamma    90

_space_group_name_H-M_alt    "P 1"
_space_group_IT_number       1

loop_
  _space_group_symop_operation_xyz
  'x, y, z'

loop_
  _atom_site_type_symbol
  _atom_site_label
  _atom_site_symmetry_multiplicity
  _atom_site_fract_x
  _atom_site_fract_y
  _atom_site_fract_z
  _atom_site_occupancy
  La  La1       1.0  0.00112  0.00000  0.38100  1.0000
  La  La2       1.0  0.50100  0.50000  0.61900  1.0000
  Rh  Rh1       1.0  0.73400  0.00000  0.10400  1.0000
  Rh  Rh2       1.0  0.27800  0.50000  0.33300  1.0000
  Rh  Rh3       1.0  0.77800  0.00000  0.66700  1.0000
  Rh  Rh4       1.0  0.23400  0.50000  0.89600  1.0000
  Sb  Sb1       1.0  0.98300  0.50000  0.11900  1.0000
  Sb  Sb2       1.0  0.50600  0.00000  0.35300  1.0000
  Sb  Sb3       1.0  0.00615  0.50000  0.64700  1.0000
  Sb  Sb4       1.0  0.48300  0.00000  0.88100  1.0000
  Ta  Ta1       1.0  0.49800  0.50000  0.11500  1.0000
  Ta  Ta2       1.0  0.99800  0.00000  0.88500  1.0000
