data_image0
_chemical_formula_structural       Bi2In2Ni4Ti4
_chemical_formula_sum              "Bi2 In2 Ni4 Ti4"
_cell_length_a       7.35057
_cell_length_b       7.35057
_cell_length_c       5.99586
_cell_angle_alpha    114.07
_cell_angle_beta     114.07
_cell_angle_gamma    109.55

_space_group_name_H-M_alt    "P 1"
_space_group_IT_number       1

loop_
  _space_group_symop_operation_xyz
  'x, y, z'

loop_
  _atom_site_type_symbol
  _atom_site_label
  _atom_site_symmetry_multiplicity
  _atom_site_fract_x
  _atom_site_fract_y
  _atom_site_fract_z
  _atom_site_occupancy
  Bi  Bi1       1.0  0.50000  0.50000  0.00000  1.0000
  Bi  Bi2       1.0  0.75000  0.25000  0.50000  1.0000
  In  In1       1.0  0.00000  0.00000  0.00000  1.0000
  In  In2       1.0  0.25000  0.75000  0.50000  1.0000
  Ni  Ni1       1.0  0.87700  0.62700  0.00241  1.0000
  Ni  Ni2       1.0  0.12500  0.37500  0.49800  1.0000
  Ni  Ni3       1.0  0.62500  0.87500  0.50200  1.0000
  Ni  Ni4       1.0  0.37300  0.12300  0.99800  1.0000
  Ti  Ti1       1.0  0.75600  0.24400  0.00000  1.0000
  Ti  Ti2       1.0  0.24400  0.75600  0.00000  1.0000
  Ti  Ti3       1.0  0.49400  0.50600  0.50000  1.0000
  Ti  Ti4       1.0  0.00602  0.99400  0.50000  1.0000
