data_image0
_chemical_formula_structural       Bi2Ga2Pt4Ti4
_chemical_formula_sum              "Bi2 Ga2 Pt4 Ti4"
_cell_length_a       6.19651
_cell_length_b       6.19651
_cell_length_c       7.57572
_cell_angle_alpha    65.8597
_cell_angle_beta     65.8597
_cell_angle_gamma    90

_space_group_name_H-M_alt    "P 1"
_space_group_IT_number       1

loop_
  _space_group_symop_operation_xyz
  'x, y, z'

loop_
  _atom_site_type_symbol
  _atom_site_label
  _atom_site_symmetry_multiplicity
  _atom_site_fract_x
  _atom_site_fract_y
  _atom_site_fract_z
  _atom_site_occupancy
  Bi  Bi1       1.0  0.50000  0.50000  0.00000  1.0000
  Bi  Bi2       1.0  0.75000  0.25000  0.50000  1.0000
  Ga  Ga1       1.0  0.00000  0.00000  0.00000  1.0000
  Ga  Ga2       1.0  0.25000  0.75000  0.50000  1.0000
  Pt  Pt1       1.0  0.12500  0.64600  0.25000  1.0000
  Pt  Pt2       1.0  0.62500  0.10400  0.25000  1.0000
  Pt  Pt3       1.0  0.89600  0.87500  0.75000  1.0000
  Pt  Pt4       1.0  0.35400  0.37500  0.75000  1.0000
  Ti  Ti1       1.0  0.49300  0.99300  0.01480  1.0000
  Ti  Ti2       1.0  0.75700  0.75700  0.48500  1.0000
  Ti  Ti3       1.0  0.24300  0.24300  0.51500  1.0000
  Ti  Ti4       1.0  0.00742  0.50700  0.98500  1.0000
