data_image0
_chemical_formula_structural       Bi4Co4Sc2Ta2
_chemical_formula_sum              "Bi4 Co4 Sc2 Ta2"
_cell_length_a       6.14437
_cell_length_b       4.33504
_cell_length_c       8.68259
_cell_angle_alpha    90
_cell_angle_beta     90
_cell_angle_gamma    90

_space_group_name_H-M_alt    "P 1"
_space_group_IT_number       1

loop_
  _space_group_symop_operation_xyz
  'x, y, z'

loop_
  _atom_site_type_symbol
  _atom_site_label
  _atom_site_symmetry_multiplicity
  _atom_site_fract_x
  _atom_site_fract_y
  _atom_site_fract_z
  _atom_site_occupancy
  Bi  Bi1       1.0  0.98600  0.00000  0.12900  1.0000
  Bi  Bi2       1.0  0.51300  0.50000  0.37900  1.0000
  Bi  Bi3       1.0  0.01310  0.00000  0.62100  1.0000
  Bi  Bi4       1.0  0.48600  0.50000  0.87100  1.0000
  Co  Co1       1.0  0.73300  0.50000  0.11300  1.0000
  Co  Co2       1.0  0.26700  0.00000  0.36000  1.0000
  Co  Co3       1.0  0.76700  0.50000  0.64000  1.0000
  Co  Co4       1.0  0.23300  0.00000  0.88700  1.0000
  Sc  Sc1       1.0  0.01230  0.50000  0.37600  1.0000
  Sc  Sc2       1.0  0.51200  0.00000  0.62400  1.0000
  Ta  Ta1       1.0  0.49000  0.00000  0.12400  1.0000
  Ta  Ta2       1.0  0.99000  0.50000  0.87600  1.0000
