data_image0
_chemical_formula_structural       Ga2Hf4Pd4Sb2
_chemical_formula_sum              "Ga2 Hf4 Pd4 Sb2"
_cell_length_a       6.26534
_cell_length_b       6.26534
_cell_length_c       7.66788
_cell_angle_alpha    65.8866
_cell_angle_beta     65.8866
_cell_angle_gamma    90

_space_group_name_H-M_alt    "P 1"
_space_group_IT_number       1

loop_
  _space_group_symop_operation_xyz
  'x, y, z'

loop_
  _atom_site_type_symbol
  _atom_site_label
  _atom_site_symmetry_multiplicity
  _atom_site_fract_x
  _atom_site_fract_y
  _atom_site_fract_z
  _atom_site_occupancy
  Ga  Ga1       1.0  0.00000  0.00000  0.00000  1.0000
  Ga  Ga2       1.0  0.25000  0.75000  0.50000  1.0000
  Hf  Hf1       1.0  0.49300  0.99300  0.01370  1.0000
  Hf  Hf2       1.0  0.75700  0.75700  0.48600  1.0000
  Hf  Hf3       1.0  0.24300  0.24300  0.51400  1.0000
  Hf  Hf4       1.0  0.00685  0.50700  0.98600  1.0000
  Pd  Pd1       1.0  0.12500  0.62700  0.25000  1.0000
  Pd  Pd2       1.0  0.62500  0.12300  0.25000  1.0000
  Pd  Pd3       1.0  0.37300  0.37500  0.75000  1.0000
  Pd  Pd4       1.0  0.87700  0.87500  0.75000  1.0000
  Sb  Sb1       1.0  0.50000  0.50000  0.00000  1.0000
  Sb  Sb2       1.0  0.75000  0.25000  0.50000  1.0000
