data_image0
_chemical_formula_structural       Ga2Ni4Sb2Zr4
_chemical_formula_sum              "Ga2 Ni4 Sb2 Zr4"
_cell_length_a       7.39201
_cell_length_b       7.39201
_cell_length_c       6.03916
_cell_angle_alpha    114.11
_cell_angle_beta     114.11
_cell_angle_gamma    109.423

_space_group_name_H-M_alt    "P 1"
_space_group_IT_number       1

loop_
  _space_group_symop_operation_xyz
  'x, y, z'

loop_
  _atom_site_type_symbol
  _atom_site_label
  _atom_site_symmetry_multiplicity
  _atom_site_fract_x
  _atom_site_fract_y
  _atom_site_fract_z
  _atom_site_occupancy
  Ga  Ga1       1.0  0.00000  0.00000  0.00000  1.0000
  Ga  Ga2       1.0  0.25000  0.75000  0.50000  1.0000
  Ni  Ni1       1.0  0.87600  0.62600  0.00059  1.0000
  Ni  Ni2       1.0  0.12500  0.37500  0.49900  1.0000
  Ni  Ni3       1.0  0.62500  0.87500  0.50100  1.0000
  Ni  Ni4       1.0  0.37400  0.12400  0.99900  1.0000
  Sb  Sb1       1.0  0.50000  0.50000  0.00000  1.0000
  Sb  Sb2       1.0  0.75000  0.25000  0.50000  1.0000
  Zr  Zr1       1.0  0.75700  0.24300  0.00000  1.0000
  Zr  Zr2       1.0  0.24300  0.75700  0.00000  1.0000
  Zr  Zr3       1.0  0.49300  0.50700  0.50000  1.0000
  Zr  Zr4       1.0  0.00696  0.99300  0.50000  1.0000
