data_image0
_chemical_formula_structural       Bi4Lu2Rh4Ta2
_chemical_formula_sum              "Bi4 Lu2 Rh4 Ta2"
_cell_length_a       4.55861
_cell_length_b       6.43705
_cell_length_c       9.08381
_cell_angle_alpha    90
_cell_angle_beta     90
_cell_angle_gamma    90

_space_group_name_H-M_alt    "P 1"
_space_group_IT_number       1

loop_
  _space_group_symop_operation_xyz
  'x, y, z'

loop_
  _atom_site_type_symbol
  _atom_site_label
  _atom_site_symmetry_multiplicity
  _atom_site_fract_x
  _atom_site_fract_y
  _atom_site_fract_z
  _atom_site_occupancy
  Bi  Bi1       1.0  0.50000  0.98100  0.12800  1.0000
  Bi  Bi2       1.0  0.00000  0.51500  0.37600  1.0000
  Bi  Bi3       1.0  0.50000  0.01490  0.62400  1.0000
  Bi  Bi4       1.0  0.00000  0.48100  0.87200  1.0000
  Lu  Lu1       1.0  0.00000  0.01020  0.37500  1.0000
  Lu  Lu2       1.0  0.50000  0.51000  0.62500  1.0000
  Rh  Rh1       1.0  0.00000  0.73200  0.11000  1.0000
  Rh  Rh2       1.0  0.50000  0.27000  0.35500  1.0000
  Rh  Rh3       1.0  0.00000  0.77000  0.64500  1.0000
  Rh  Rh4       1.0  0.50000  0.23200  0.89000  1.0000
  Ta  Ta1       1.0  0.50000  0.49100  0.12200  1.0000
  Ta  Ta2       1.0  0.00000  0.99100  0.87800  1.0000
