data_image0
_chemical_formula_structural       La2Pd4Sn4V2
_chemical_formula_sum              "La2 Pd4 Sn4 V2"
_cell_length_a       6.64836
_cell_length_b       4.52268
_cell_length_c       9.07416
_cell_angle_alpha    90
_cell_angle_beta     90
_cell_angle_gamma    90

_space_group_name_H-M_alt    "P 1"
_space_group_IT_number       1

loop_
  _space_group_symop_operation_xyz
  'x, y, z'

loop_
  _atom_site_type_symbol
  _atom_site_label
  _atom_site_symmetry_multiplicity
  _atom_site_fract_x
  _atom_site_fract_y
  _atom_site_fract_z
  _atom_site_occupancy
  La  La1       1.0  0.99900  0.00000  0.38200  1.0000
  La  La2       1.0  0.49900  0.50000  0.61800  1.0000
  Pd  Pd1       1.0  0.74400  0.00000  0.10300  1.0000
  Pd  Pd2       1.0  0.27300  0.50000  0.33000  1.0000
  Pd  Pd3       1.0  0.77300  0.00000  0.67000  1.0000
  Pd  Pd4       1.0  0.24400  0.50000  0.89700  1.0000
  Sn  Sn1       1.0  0.97100  0.50000  0.10800  1.0000
  Sn  Sn2       1.0  0.50700  0.00000  0.34500  1.0000
  Sn  Sn3       1.0  0.00693  0.50000  0.65500  1.0000
  Sn  Sn4       1.0  0.47100  0.00000  0.89200  1.0000
  V   V1        1.0  0.50600  0.50000  0.11900  1.0000
  V   V2        1.0  0.00623  0.00000  0.88100  1.0000
