data_image0
_chemical_formula_structural       Nb2Rh4Sb4Sc2
_chemical_formula_sum              "Nb2 Rh4 Sb4 Sc2"
_cell_length_a       6.23849
_cell_length_b       4.41532
_cell_length_c       8.81038
_cell_angle_alpha    90
_cell_angle_beta     90
_cell_angle_gamma    90

_space_group_name_H-M_alt    "P 1"
_space_group_IT_number       1

loop_
  _space_group_symop_operation_xyz
  'x, y, z'

loop_
  _atom_site_type_symbol
  _atom_site_label
  _atom_site_symmetry_multiplicity
  _atom_site_fract_x
  _atom_site_fract_y
  _atom_site_fract_z
  _atom_site_occupancy
  Nb  Nb1       1.0  0.49600  0.50000  0.12400  1.0000
  Nb  Nb2       1.0  0.99600  0.00000  0.87600  1.0000
  Rh  Rh1       1.0  0.73800  0.00000  0.11500  1.0000
  Rh  Rh2       1.0  0.26200  0.50000  0.36400  1.0000
  Rh  Rh3       1.0  0.76200  0.00000  0.63600  1.0000
  Rh  Rh4       1.0  0.23800  0.50000  0.88500  1.0000
  Sb  Sb1       1.0  0.99000  0.50000  0.12900  1.0000
  Sb  Sb2       1.0  0.50900  0.00000  0.37900  1.0000
  Sb  Sb3       1.0  0.00873  0.50000  0.62100  1.0000
  Sb  Sb4       1.0  0.49000  0.00000  0.87100  1.0000
  Sc  Sc1       1.0  0.00596  0.00000  0.37600  1.0000
  Sc  Sc2       1.0  0.50600  0.50000  0.62400  1.0000
