data_image0
_chemical_formula_structural       La2Nb2Pt4Sn4
_chemical_formula_sum              "La2 Nb2 Pt4 Sn4"
_cell_length_a       6.61464
_cell_length_b       4.58917
_cell_length_c       9.32904
_cell_angle_alpha    90
_cell_angle_beta     90
_cell_angle_gamma    90

_space_group_name_H-M_alt    "P 1"
_space_group_IT_number       1

loop_
  _space_group_symop_operation_xyz
  'x, y, z'

loop_
  _atom_site_type_symbol
  _atom_site_label
  _atom_site_symmetry_multiplicity
  _atom_site_fract_x
  _atom_site_fract_y
  _atom_site_fract_z
  _atom_site_occupancy
  La  La1       1.0  0.00000  0.00000  0.37900  1.0000
  La  La2       1.0  0.50000  0.50000  0.62100  1.0000
  Nb  Nb1       1.0  0.50100  0.50000  0.11900  1.0000
  Nb  Nb2       1.0  0.00054  0.00000  0.88100  1.0000
  Pt  Pt1       1.0  0.73700  0.00000  0.10600  1.0000
  Pt  Pt2       1.0  0.27300  0.50000  0.34200  1.0000
  Pt  Pt3       1.0  0.77300  0.00000  0.65800  1.0000
  Pt  Pt4       1.0  0.23700  0.50000  0.89400  1.0000
  Sn  Sn1       1.0  0.98200  0.50000  0.11800  1.0000
  Sn  Sn2       1.0  0.50800  0.00000  0.35800  1.0000
  Sn  Sn3       1.0  0.00800  0.50000  0.64200  1.0000
  Sn  Sn4       1.0  0.48200  0.00000  0.88200  1.0000
