data_image0
_chemical_formula_structural       Ga2Ir4Sb2Ta4
_chemical_formula_sum              "Ga2 Ir4 Sb2 Ta4"
_cell_length_a       6.13875
_cell_length_b       6.13875
_cell_length_c       7.50832
_cell_angle_alpha    65.8707
_cell_angle_beta     65.8707
_cell_angle_gamma    90

_space_group_name_H-M_alt    "P 1"
_space_group_IT_number       1

loop_
  _space_group_symop_operation_xyz
  'x, y, z'

loop_
  _atom_site_type_symbol
  _atom_site_label
  _atom_site_symmetry_multiplicity
  _atom_site_fract_x
  _atom_site_fract_y
  _atom_site_fract_z
  _atom_site_occupancy
  Ga  Ga1       1.0  0.00000  0.00000  0.00000  1.0000
  Ga  Ga2       1.0  0.25000  0.75000  0.50000  1.0000
  Ir  Ir1       1.0  0.12500  0.62800  0.25000  1.0000
  Ir  Ir2       1.0  0.62500  0.12200  0.25000  1.0000
  Ir  Ir3       1.0  0.37200  0.37500  0.75000  1.0000
  Ir  Ir4       1.0  0.87800  0.87500  0.75000  1.0000
  Sb  Sb1       1.0  0.50000  0.50000  0.00000  1.0000
  Sb  Sb2       1.0  0.75000  0.25000  0.50000  1.0000
  Ta  Ta1       1.0  0.49500  0.99500  0.01100  1.0000
  Ta  Ta2       1.0  0.75500  0.75500  0.48900  1.0000
  Ta  Ta3       1.0  0.24500  0.24500  0.51100  1.0000
  Ta  Ta4       1.0  0.00549  0.50500  0.98900  1.0000
