data_image0
_chemical_formula_structural       Pd4Sn4V2Y2
_chemical_formula_sum              "Pd4 Sn4 V2 Y2"
_cell_length_a       6.40882
_cell_length_b       4.47567
_cell_length_c       8.88709
_cell_angle_alpha    90
_cell_angle_beta     90
_cell_angle_gamma    90

_space_group_name_H-M_alt    "P 1"
_space_group_IT_number       1

loop_
  _space_group_symop_operation_xyz
  'x, y, z'

loop_
  _atom_site_type_symbol
  _atom_site_label
  _atom_site_symmetry_multiplicity
  _atom_site_fract_x
  _atom_site_fract_y
  _atom_site_fract_z
  _atom_site_occupancy
  Pd  Pd1       1.0  0.73900  0.00000  0.10800  1.0000
  Pd  Pd2       1.0  0.27000  0.50000  0.34800  1.0000
  Pd  Pd3       1.0  0.77000  0.00000  0.65200  1.0000
  Pd  Pd4       1.0  0.23900  0.50000  0.89200  1.0000
  Sn  Sn1       1.0  0.97600  0.50000  0.11800  1.0000
  Sn  Sn2       1.0  0.51200  0.00000  0.36300  1.0000
  Sn  Sn3       1.0  0.01190  0.50000  0.63700  1.0000
  Sn  Sn4       1.0  0.47600  0.00000  0.88200  1.0000
  V   V1        1.0  0.49900  0.50000  0.12200  1.0000
  V   V2        1.0  0.99900  0.00000  0.87800  1.0000
  Y   Y1        1.0  0.00465  0.00000  0.37800  1.0000
  Y   Y2        1.0  0.50500  0.50000  0.62200  1.0000
