data_image0
_chemical_formula_structural       Bi4Rh4Sc2V2
_chemical_formula_sum              "Bi4 Rh4 Sc2 V2"
_cell_length_a       6.2749
_cell_length_b       4.48934
_cell_length_c       8.8245
_cell_angle_alpha    90
_cell_angle_beta     90
_cell_angle_gamma    90

_space_group_name_H-M_alt    "P 1"
_space_group_IT_number       1

loop_
  _space_group_symop_operation_xyz
  'x, y, z'

loop_
  _atom_site_type_symbol
  _atom_site_label
  _atom_site_symmetry_multiplicity
  _atom_site_fract_x
  _atom_site_fract_y
  _atom_site_fract_z
  _atom_site_occupancy
  Bi  Bi1       1.0  0.52700  0.00000  0.12900  1.0000
  Bi  Bi2       1.0  0.98000  0.50000  0.37900  1.0000
  Bi  Bi3       1.0  0.48000  0.00000  0.62100  1.0000
  Bi  Bi4       1.0  0.02680  0.50000  0.87100  1.0000
  Rh  Rh1       1.0  0.76900  0.50000  0.10900  1.0000
  Rh  Rh2       1.0  0.22600  0.00000  0.35200  1.0000
  Rh  Rh3       1.0  0.72600  0.50000  0.64800  1.0000
  Rh  Rh4       1.0  0.26900  0.00000  0.89100  1.0000
  Sc  Sc1       1.0  0.48400  0.50000  0.37400  1.0000
  Sc  Sc2       1.0  0.98400  0.00000  0.62600  1.0000
  V   V1        1.0  0.01480  0.00000  0.12200  1.0000
  V   V2        1.0  0.51500  0.50000  0.87800  1.0000
