data_image0
_chemical_formula_structural       Bi2Hf4In2Ni4
_chemical_formula_sum              "Bi2 Hf4 In2 Ni4"
_cell_length_a       6.1661
_cell_length_b       6.1661
_cell_length_c       7.56514
_cell_angle_alpha    65.95
_cell_angle_beta     65.95
_cell_angle_gamma    90

_space_group_name_H-M_alt    "P 1"
_space_group_IT_number       1

loop_
  _space_group_symop_operation_xyz
  'x, y, z'

loop_
  _atom_site_type_symbol
  _atom_site_label
  _atom_site_symmetry_multiplicity
  _atom_site_fract_x
  _atom_site_fract_y
  _atom_site_fract_z
  _atom_site_occupancy
  Bi  Bi1       1.0  0.50000  0.50000  0.00000  1.0000
  Bi  Bi2       1.0  0.75000  0.25000  0.50000  1.0000
  Hf  Hf1       1.0  0.49400  0.99400  0.01210  1.0000
  Hf  Hf2       1.0  0.75600  0.75600  0.48800  1.0000
  Hf  Hf3       1.0  0.24400  0.24400  0.51200  1.0000
  Hf  Hf4       1.0  0.00604  0.50600  0.98800  1.0000
  In  In1       1.0  0.00000  0.00000  0.00000  1.0000
  In  In2       1.0  0.25000  0.75000  0.50000  1.0000
  Ni  Ni1       1.0  0.62500  0.12600  0.25000  1.0000
  Ni  Ni2       1.0  0.12500  0.62400  0.25000  1.0000
  Ni  Ni3       1.0  0.87400  0.87500  0.75000  1.0000
  Ni  Ni4       1.0  0.37600  0.37500  0.75000  1.0000
