data_image0
_chemical_formula_structural       In2Rh4Sb2V4
_chemical_formula_sum              "In2 Rh4 Sb2 V4"
_cell_length_a       6.04148
_cell_length_b       6.04148
_cell_length_c       7.40766
_cell_angle_alpha    114.066
_cell_angle_beta     114.066
_cell_angle_gamma    90

_space_group_name_H-M_alt    "P 1"
_space_group_IT_number       1

loop_
  _space_group_symop_operation_xyz
  'x, y, z'

loop_
  _atom_site_type_symbol
  _atom_site_label
  _atom_site_symmetry_multiplicity
  _atom_site_fract_x
  _atom_site_fract_y
  _atom_site_fract_z
  _atom_site_occupancy
  In  In1       1.0  0.25000  0.00000  0.00000  1.0000
  In  In2       1.0  0.00000  0.25000  0.50000  1.0000
  Rh  Rh1       1.0  0.12500  0.86500  0.25000  1.0000
  Rh  Rh2       1.0  0.62500  0.38500  0.25000  1.0000
  Rh  Rh3       1.0  0.86500  0.12500  0.75000  1.0000
  Rh  Rh4       1.0  0.38500  0.62500  0.75000  1.0000
  Sb  Sb1       1.0  0.75000  0.50000  0.00000  1.0000
  Sb  Sb2       1.0  0.50000  0.75000  0.50000  1.0000
  V   V1        1.0  0.75200  0.00209  0.00418  1.0000
  V   V2        1.0  0.49800  0.24800  0.49600  1.0000
  V   V3        1.0  0.00209  0.75200  0.50400  1.0000
  V   V4        1.0  0.24800  0.49800  0.99600  1.0000
