data_image0
_chemical_formula_structural       Al2Co4Sb2Ta4
_chemical_formula_sum              "Al2 Co4 Sb2 Ta4"
_cell_length_a       7.15995
_cell_length_b       7.15995
_cell_length_c       7.15995
_cell_angle_alpha    131.76
_cell_angle_beta     131.76
_cell_angle_gamma    70.6077

_space_group_name_H-M_alt    "P 1"
_space_group_IT_number       1

loop_
  _space_group_symop_operation_xyz
  'x, y, z'

loop_
  _atom_site_type_symbol
  _atom_site_label
  _atom_site_symmetry_multiplicity
  _atom_site_fract_x
  _atom_site_fract_y
  _atom_site_fract_z
  _atom_site_occupancy
  Al  Al1       1.0  0.00000  0.00000  0.00000  1.0000
  Al  Al2       1.0  0.75000  0.25000  0.50000  1.0000
  Co  Co1       1.0  0.62800  0.12500  0.00342  1.0000
  Co  Co2       1.0  0.37500  0.37200  0.49700  1.0000
  Co  Co3       1.0  0.87500  0.87800  0.50300  1.0000
  Co  Co4       1.0  0.12200  0.62500  0.99700  1.0000
  Sb  Sb1       1.0  0.50000  0.50000  0.00000  1.0000
  Sb  Sb2       1.0  0.25000  0.75000  0.50000  1.0000
  Ta  Ta1       1.0  0.24300  0.24300  0.00000  1.0000
  Ta  Ta2       1.0  0.75700  0.75700  0.00000  1.0000
  Ta  Ta3       1.0  0.50700  0.00677  0.50000  1.0000
  Ta  Ta4       1.0  0.99300  0.49300  0.50000  1.0000
