data_image0
_chemical_formula_structural       Ga2Rh4Sb2Ta4
_chemical_formula_sum              "Ga2 Rh4 Sb2 Ta4"
_cell_length_a       7.45787
_cell_length_b       7.45787
_cell_length_c       6.10077
_cell_angle_alpha    114.143
_cell_angle_beta     114.143
_cell_angle_gamma    48.286

_space_group_name_H-M_alt    "P 1"
_space_group_IT_number       1

loop_
  _space_group_symop_operation_xyz
  'x, y, z'

loop_
  _atom_site_type_symbol
  _atom_site_label
  _atom_site_symmetry_multiplicity
  _atom_site_fract_x
  _atom_site_fract_y
  _atom_site_fract_z
  _atom_site_occupancy
  Ga  Ga1       1.0  0.00000  0.75000  0.12500  1.0000
  Ga  Ga2       1.0  0.25000  0.00000  0.87500  1.0000
  Rh  Rh1       1.0  0.37300  0.62700  0.00000  1.0000
  Rh  Rh2       1.0  0.12500  0.37500  0.24800  1.0000
  Rh  Rh3       1.0  0.87700  0.12300  0.50000  1.0000
  Rh  Rh4       1.0  0.62500  0.87500  0.75200  1.0000
  Sb  Sb1       1.0  0.75000  0.50000  0.37500  1.0000
  Sb  Sb2       1.0  0.50000  0.25000  0.62500  1.0000
  Ta  Ta1       1.0  0.49400  0.24400  0.11900  1.0000
  Ta  Ta2       1.0  0.24400  0.99400  0.36900  1.0000
  Ta  Ta3       1.0  0.00577  0.75600  0.63100  1.0000
  Ta  Ta4       1.0  0.75600  0.50600  0.88100  1.0000
