data_image0
_chemical_formula_structural       Co4Lu2Nb2Sb4
_chemical_formula_sum              "Co4 Lu2 Nb2 Sb4"
_cell_length_a       6.08877
_cell_length_b       4.29636
_cell_length_c       8.61002
_cell_angle_alpha    90
_cell_angle_beta     90
_cell_angle_gamma    90

_space_group_name_H-M_alt    "P 1"
_space_group_IT_number       1

loop_
  _space_group_symop_operation_xyz
  'x, y, z'

loop_
  _atom_site_type_symbol
  _atom_site_label
  _atom_site_symmetry_multiplicity
  _atom_site_fract_x
  _atom_site_fract_y
  _atom_site_fract_z
  _atom_site_occupancy
  Co  Co1       1.0  0.73600  0.00000  0.11300  1.0000
  Co  Co2       1.0  0.26900  0.50000  0.35400  1.0000
  Co  Co3       1.0  0.76900  0.00000  0.64600  1.0000
  Co  Co4       1.0  0.23600  0.50000  0.88700  1.0000
  Lu  Lu1       1.0  0.00590  0.00000  0.37600  1.0000
  Lu  Lu2       1.0  0.50600  0.50000  0.62400  1.0000
  Nb  Nb1       1.0  0.49300  0.50000  0.12300  1.0000
  Nb  Nb2       1.0  0.99300  0.00000  0.87700  1.0000
  Sb  Sb1       1.0  0.98900  0.50000  0.12300  1.0000
  Sb  Sb2       1.0  0.50800  0.00000  0.37100  1.0000
  Sb  Sb3       1.0  0.00810  0.50000  0.62900  1.0000
  Sb  Sb4       1.0  0.48900  0.00000  0.87700  1.0000
