data_image0
_chemical_formula_structural       Co4La2Sb4Ta2
_chemical_formula_sum              "Co4 La2 Sb4 Ta2"
_cell_length_a       6.28744
_cell_length_b       4.3152
_cell_length_c       9.08582
_cell_angle_alpha    90
_cell_angle_beta     90
_cell_angle_gamma    90

_space_group_name_H-M_alt    "P 1"
_space_group_IT_number       1

loop_
  _space_group_symop_operation_xyz
  'x, y, z'

loop_
  _atom_site_type_symbol
  _atom_site_label
  _atom_site_symmetry_multiplicity
  _atom_site_fract_x
  _atom_site_fract_y
  _atom_site_fract_z
  _atom_site_occupancy
  Co  Co1       1.0  0.73500  0.00000  0.10400  1.0000
  Co  Co2       1.0  0.27900  0.50000  0.32500  1.0000
  Co  Co3       1.0  0.77900  0.00000  0.67500  1.0000
  Co  Co4       1.0  0.23500  0.50000  0.89600  1.0000
  La  La1       1.0  0.00000  0.00000  0.38500  1.0000
  La  La2       1.0  0.50000  0.50000  0.61500  1.0000
  Sb  Sb1       1.0  0.98900  0.50000  0.11700  1.0000
  Sb  Sb2       1.0  0.50000  0.00000  0.34100  1.0000
  Sb  Sb3       1.0  0.00030  0.50000  0.65900  1.0000
  Sb  Sb4       1.0  0.48900  0.00000  0.88300  1.0000
  Ta  Ta1       1.0  0.49600  0.50000  0.11300  1.0000
  Ta  Ta2       1.0  0.99600  0.00000  0.88700  1.0000
