data_image0
_chemical_formula_structural       Bi4La2Rh4V2
_chemical_formula_sum              "Bi4 La2 Rh4 V2"
_cell_length_a       6.59418
_cell_length_b       4.63702
_cell_length_c       9.15001
_cell_angle_alpha    90
_cell_angle_beta     90
_cell_angle_gamma    90

_space_group_name_H-M_alt    "P 1"
_space_group_IT_number       1

loop_
  _space_group_symop_operation_xyz
  'x, y, z'

loop_
  _atom_site_type_symbol
  _atom_site_label
  _atom_site_symmetry_multiplicity
  _atom_site_fract_x
  _atom_site_fract_y
  _atom_site_fract_z
  _atom_site_occupancy
  Bi  Bi1       1.0  0.96200  0.50000  0.11700  1.0000
  Bi  Bi2       1.0  0.51800  0.00000  0.35800  1.0000
  Bi  Bi3       1.0  0.01770  0.50000  0.64200  1.0000
  Bi  Bi4       1.0  0.46200  0.00000  0.88300  1.0000
  La  La1       1.0  0.01330  0.00000  0.37700  1.0000
  La  La2       1.0  0.51300  0.50000  0.62300  1.0000
  Rh  Rh1       1.0  0.73400  0.00000  0.09910  1.0000
  Rh  Rh2       1.0  0.28900  0.50000  0.32400  1.0000
  Rh  Rh3       1.0  0.78900  0.00000  0.67600  1.0000
  Rh  Rh4       1.0  0.23400  0.50000  0.90100  1.0000
  V   V1        1.0  0.48400  0.50000  0.11300  1.0000
  V   V2        1.0  0.98400  0.00000  0.88700  1.0000
