data_image0
_chemical_formula_structural       Al2Bi2Co4Nb4
_chemical_formula_sum              "Al2 Bi2 Co4 Nb4"
_cell_length_a       5.92206
_cell_length_b       5.92206
_cell_length_c       7.24653
_cell_angle_alpha    65.8822
_cell_angle_beta     65.8822
_cell_angle_gamma    90

_space_group_name_H-M_alt    "P 1"
_space_group_IT_number       1

loop_
  _space_group_symop_operation_xyz
  'x, y, z'

loop_
  _atom_site_type_symbol
  _atom_site_label
  _atom_site_symmetry_multiplicity
  _atom_site_fract_x
  _atom_site_fract_y
  _atom_site_fract_z
  _atom_site_occupancy
  Al  Al1       1.0  0.00000  0.00000  0.00000  1.0000
  Al  Al2       1.0  0.25000  0.75000  0.50000  1.0000
  Bi  Bi1       1.0  0.50000  0.50000  0.00000  1.0000
  Bi  Bi2       1.0  0.75000  0.25000  0.50000  1.0000
  Co  Co1       1.0  0.12500  0.64100  0.25000  1.0000
  Co  Co2       1.0  0.62500  0.10900  0.25000  1.0000
  Co  Co3       1.0  0.35900  0.37500  0.75000  1.0000
  Co  Co4       1.0  0.89100  0.87500  0.75000  1.0000
  Nb  Nb1       1.0  0.49100  0.99100  0.01810  1.0000
  Nb  Nb2       1.0  0.75900  0.75900  0.48200  1.0000
  Nb  Nb3       1.0  0.24100  0.24100  0.51800  1.0000
  Nb  Nb4       1.0  0.00904  0.50900  0.98200  1.0000
