data_image0
_chemical_formula_structural       Bi4Rh4V2Y2
_chemical_formula_sum              "Bi4 Rh4 V2 Y2"
_cell_length_a       6.41366
_cell_length_b       4.5943
_cell_length_c       8.96555
_cell_angle_alpha    90
_cell_angle_beta     90
_cell_angle_gamma    90

_space_group_name_H-M_alt    "P 1"
_space_group_IT_number       1

loop_
  _space_group_symop_operation_xyz
  'x, y, z'

loop_
  _atom_site_type_symbol
  _atom_site_label
  _atom_site_symmetry_multiplicity
  _atom_site_fract_x
  _atom_site_fract_y
  _atom_site_fract_z
  _atom_site_occupancy
  Bi  Bi1       1.0  0.96500  0.50000  0.12300  1.0000
  Bi  Bi2       1.0  0.52200  0.00000  0.37300  1.0000
  Bi  Bi3       1.0  0.02200  0.50000  0.62700  1.0000
  Bi  Bi4       1.0  0.46500  0.00000  0.87700  1.0000
  Rh  Rh1       1.0  0.73000  0.00000  0.10400  1.0000
  Rh  Rh2       1.0  0.28400  0.50000  0.33900  1.0000
  Rh  Rh3       1.0  0.78400  0.00000  0.66100  1.0000
  Rh  Rh4       1.0  0.23000  0.50000  0.89600  1.0000
  V   V1        1.0  0.48200  0.50000  0.11800  1.0000
  V   V2        1.0  0.98200  0.00000  0.88200  1.0000
  Y   Y1        1.0  0.01710  0.00000  0.37300  1.0000
  Y   Y2        1.0  0.51700  0.50000  0.62700  1.0000
