data_image0
_chemical_formula_structural       La2Nb2Pd4Sn4
_chemical_formula_sum              "La2 Nb2 Pd4 Sn4"
_cell_length_a       4.56716
_cell_length_b       6.61638
_cell_length_c       9.2655
_cell_angle_alpha    90
_cell_angle_beta     90
_cell_angle_gamma    90

_space_group_name_H-M_alt    "P 1"
_space_group_IT_number       1

loop_
  _space_group_symop_operation_xyz
  'x, y, z'

loop_
  _atom_site_type_symbol
  _atom_site_label
  _atom_site_symmetry_multiplicity
  _atom_site_fract_x
  _atom_site_fract_y
  _atom_site_fract_z
  _atom_site_occupancy
  La  La1       1.0  0.00000  0.99800  0.37900  1.0000
  La  La2       1.0  0.50000  0.49800  0.62100  1.0000
  Nb  Nb1       1.0  0.50000  0.50300  0.12200  1.0000
  Nb  Nb2       1.0  0.00000  0.00257  0.87800  1.0000
  Pd  Pd1       1.0  0.00000  0.74300  0.10800  1.0000
  Pd  Pd2       1.0  0.50000  0.26600  0.34600  1.0000
  Pd  Pd3       1.0  0.00000  0.76600  0.65400  1.0000
  Pd  Pd4       1.0  0.50000  0.24300  0.89200  1.0000
  Sn  Sn1       1.0  0.50000  0.98400  0.11400  1.0000
  Sn  Sn2       1.0  0.00000  0.50700  0.35500  1.0000
  Sn  Sn3       1.0  0.50000  0.00674  0.64500  1.0000
  Sn  Sn4       1.0  0.00000  0.48400  0.88600  1.0000
