data_image0
_chemical_formula_structural       Bi4Co4La2V2
_chemical_formula_sum              "Bi4 Co4 La2 V2"
_cell_length_a       6.4102
_cell_length_b       4.44421
_cell_length_c       8.93955
_cell_angle_alpha    90
_cell_angle_beta     90
_cell_angle_gamma    90

_space_group_name_H-M_alt    "P 1"
_space_group_IT_number       1

loop_
  _space_group_symop_operation_xyz
  'x, y, z'

loop_
  _atom_site_type_symbol
  _atom_site_label
  _atom_site_symmetry_multiplicity
  _atom_site_fract_x
  _atom_site_fract_y
  _atom_site_fract_z
  _atom_site_occupancy
  Bi  Bi1       1.0  0.53200  0.00000  0.11000  1.0000
  Bi  Bi2       1.0  0.98900  0.50000  0.34400  1.0000
  Bi  Bi3       1.0  0.48900  0.00000  0.65600  1.0000
  Bi  Bi4       1.0  0.03170  0.50000  0.89000  1.0000
  Co  Co1       1.0  0.76100  0.50000  0.09950  1.0000
  Co  Co2       1.0  0.20800  0.00000  0.31100  1.0000
  Co  Co3       1.0  0.70800  0.50000  0.68900  1.0000
  Co  Co4       1.0  0.26100  0.00000  0.90000  1.0000
  La  La1       1.0  0.49000  0.50000  0.38000  1.0000
  La  La2       1.0  0.99000  0.00000  0.62000  1.0000
  V   V1        1.0  0.02010  0.00000  0.11300  1.0000
  V   V2        1.0  0.52000  0.50000  0.88700  1.0000
