data_image0
_chemical_formula_structural       Al2Co4Sb2V4
_chemical_formula_sum              "Al2 Co4 Sb2 V4"
_cell_length_a       5.65996
_cell_length_b       5.65996
_cell_length_c       6.9331
_cell_angle_alpha    65.9092
_cell_angle_beta     65.9092
_cell_angle_gamma    90

_space_group_name_H-M_alt    "P 1"
_space_group_IT_number       1

loop_
  _space_group_symop_operation_xyz
  'x, y, z'

loop_
  _atom_site_type_symbol
  _atom_site_label
  _atom_site_symmetry_multiplicity
  _atom_site_fract_x
  _atom_site_fract_y
  _atom_site_fract_z
  _atom_site_occupancy
  Al  Al1       1.0  0.00000  0.00000  0.00000  1.0000
  Al  Al2       1.0  0.25000  0.75000  0.50000  1.0000
  Co  Co1       1.0  0.62500  0.11300  0.25000  1.0000
  Co  Co2       1.0  0.12500  0.63700  0.25000  1.0000
  Co  Co3       1.0  0.88700  0.87500  0.75000  1.0000
  Co  Co4       1.0  0.36300  0.37500  0.75000  1.0000
  Sb  Sb1       1.0  0.50000  0.50000  0.00000  1.0000
  Sb  Sb2       1.0  0.75000  0.25000  0.50000  1.0000
  V   V1        1.0  0.49200  0.99200  0.01570  1.0000
  V   V2        1.0  0.75800  0.75800  0.48400  1.0000
  V   V3        1.0  0.24200  0.24200  0.51600  1.0000
  V   V4        1.0  0.00782  0.50800  0.98400  1.0000
