data_image0
_chemical_formula_structural       Ga2Pd4Sb2Zr4
_chemical_formula_sum              "Ga2 Pd4 Sb2 Zr4"
_cell_length_a       7.71462
_cell_length_b       7.71462
_cell_length_c       6.304
_cell_angle_alpha    114.115
_cell_angle_beta     114.115
_cell_angle_gamma    109.406

_space_group_name_H-M_alt    "P 1"
_space_group_IT_number       1

loop_
  _space_group_symop_operation_xyz
  'x, y, z'

loop_
  _atom_site_type_symbol
  _atom_site_label
  _atom_site_symmetry_multiplicity
  _atom_site_fract_x
  _atom_site_fract_y
  _atom_site_fract_z
  _atom_site_occupancy
  Ga  Ga1       1.0  0.00000  0.00000  0.00000  1.0000
  Ga  Ga2       1.0  0.25000  0.75000  0.50000  1.0000
  Pd  Pd1       1.0  0.87900  0.62900  0.00356  1.0000
  Pd  Pd2       1.0  0.12500  0.37500  0.49600  1.0000
  Pd  Pd3       1.0  0.62500  0.87500  0.50400  1.0000
  Pd  Pd4       1.0  0.37100  0.12100  0.99600  1.0000
  Sb  Sb1       1.0  0.50000  0.50000  0.00000  1.0000
  Sb  Sb2       1.0  0.75000  0.25000  0.50000  1.0000
  Zr  Zr1       1.0  0.75500  0.24500  0.00000  1.0000
  Zr  Zr2       1.0  0.24500  0.75500  0.00000  1.0000
  Zr  Zr3       1.0  0.49500  0.50500  0.50000  1.0000
  Zr  Zr4       1.0  0.00539  0.99500  0.50000  1.0000
