data_image0
_chemical_formula_structural       Ge4Th2
_chemical_formula_sum              "Ge4 Th2"
_cell_length_a       4.02053
_cell_length_b       4.17704
_cell_length_c       8.68085
_cell_angle_alpha    76.0787
_cell_angle_beta     90
_cell_angle_gamma    90

_space_group_name_H-M_alt    "P 1"
_space_group_IT_number       1

loop_
  _space_group_symop_operation_xyz
  'x, y, z'

loop_
  _atom_site_type_symbol
  _atom_site_label
  _atom_site_symmetry_multiplicity
  _atom_site_fract_x
  _atom_site_fract_y
  _atom_site_fract_z
  _atom_site_occupancy
  Ge  Ge1       1.0  0.75000  0.45100  0.09850  1.0000
  Ge  Ge2       1.0  0.25000  0.25100  0.49800  1.0000
  Ge  Ge3       1.0  0.75000  0.74900  0.50200  1.0000
  Ge  Ge4       1.0  0.25000  0.54900  0.90200  1.0000
  Th  Th1       1.0  0.25000  0.89300  0.21500  1.0000
  Th  Th2       1.0  0.75000  0.10700  0.78500  1.0000
