data_image0
_chemical_formula_structural       Bi4Co4Lu2Nb2
_chemical_formula_sum              "Bi4 Co4 Lu2 Nb2"
_cell_length_a       6.21196
_cell_length_b       4.39455
_cell_length_c       8.75959
_cell_angle_alpha    90
_cell_angle_beta     90
_cell_angle_gamma    90

_space_group_name_H-M_alt    "P 1"
_space_group_IT_number       1

loop_
  _space_group_symop_operation_xyz
  'x, y, z'

loop_
  _atom_site_type_symbol
  _atom_site_label
  _atom_site_symmetry_multiplicity
  _atom_site_fract_x
  _atom_site_fract_y
  _atom_site_fract_z
  _atom_site_occupancy
  Bi  Bi1       1.0  0.98400  0.50000  0.12400  1.0000
  Bi  Bi2       1.0  0.51300  0.00000  0.37400  1.0000
  Bi  Bi3       1.0  0.01320  0.50000  0.62600  1.0000
  Bi  Bi4       1.0  0.48400  0.00000  0.87600  1.0000
  Co  Co1       1.0  0.73300  0.00000  0.11200  1.0000
  Co  Co2       1.0  0.27100  0.50000  0.35300  1.0000
  Co  Co3       1.0  0.77100  0.00000  0.64700  1.0000
  Co  Co4       1.0  0.23300  0.50000  0.88800  1.0000
  Lu  Lu1       1.0  0.01060  0.00000  0.37400  1.0000
  Lu  Lu2       1.0  0.51100  0.50000  0.62600  1.0000
  Nb  Nb1       1.0  0.48800  0.50000  0.12400  1.0000
  Nb  Nb2       1.0  0.98800  0.00000  0.87600  1.0000
