data_image0
_chemical_formula_structural       Bi2Ga2Hf4Pd4
_chemical_formula_sum              "Bi2 Ga2 Hf4 Pd4"
_cell_length_a       6.34283
_cell_length_b       6.34283
_cell_length_c       7.73846
_cell_angle_alpha    65.8061
_cell_angle_beta     65.8061
_cell_angle_gamma    90

_space_group_name_H-M_alt    "P 1"
_space_group_IT_number       1

loop_
  _space_group_symop_operation_xyz
  'x, y, z'

loop_
  _atom_site_type_symbol
  _atom_site_label
  _atom_site_symmetry_multiplicity
  _atom_site_fract_x
  _atom_site_fract_y
  _atom_site_fract_z
  _atom_site_occupancy
  Bi  Bi1       1.0  0.50000  0.50000  0.00000  1.0000
  Bi  Bi2       1.0  0.75000  0.25000  0.50000  1.0000
  Ga  Ga1       1.0  0.00000  0.00000  0.00000  1.0000
  Ga  Ga2       1.0  0.25000  0.75000  0.50000  1.0000
  Hf  Hf1       1.0  0.49300  0.99300  0.01380  1.0000
  Hf  Hf2       1.0  0.75700  0.75700  0.48600  1.0000
  Hf  Hf3       1.0  0.24300  0.24300  0.51400  1.0000
  Hf  Hf4       1.0  0.00692  0.50700  0.98600  1.0000
  Pd  Pd1       1.0  0.12500  0.63800  0.25000  1.0000
  Pd  Pd2       1.0  0.62500  0.11200  0.25000  1.0000
  Pd  Pd3       1.0  0.88800  0.87500  0.75000  1.0000
  Pd  Pd4       1.0  0.36200  0.37500  0.75000  1.0000
