data_image0
_chemical_formula_structural       Al2Bi2Ni4Zr4
_chemical_formula_sum              "Al2 Bi2 Ni4 Zr4"
_cell_length_a       6.11309
_cell_length_b       6.11309
_cell_length_c       7.4849
_cell_angle_alpha    65.898
_cell_angle_beta     65.898
_cell_angle_gamma    90

_space_group_name_H-M_alt    "P 1"
_space_group_IT_number       1

loop_
  _space_group_symop_operation_xyz
  'x, y, z'

loop_
  _atom_site_type_symbol
  _atom_site_label
  _atom_site_symmetry_multiplicity
  _atom_site_fract_x
  _atom_site_fract_y
  _atom_site_fract_z
  _atom_site_occupancy
  Al  Al1       1.0  0.00000  0.00000  0.00000  1.0000
  Al  Al2       1.0  0.25000  0.75000  0.50000  1.0000
  Bi  Bi1       1.0  0.50000  0.50000  0.00000  1.0000
  Bi  Bi2       1.0  0.75000  0.25000  0.50000  1.0000
  Ni  Ni1       1.0  0.12500  0.63900  0.25000  1.0000
  Ni  Ni2       1.0  0.62500  0.11100  0.25000  1.0000
  Ni  Ni3       1.0  0.36100  0.37500  0.75000  1.0000
  Ni  Ni4       1.0  0.88900  0.87500  0.75000  1.0000
  Zr  Zr1       1.0  0.49300  0.99300  0.01390  1.0000
  Zr  Zr2       1.0  0.75700  0.75700  0.48600  1.0000
  Zr  Zr3       1.0  0.24300  0.24300  0.51400  1.0000
  Zr  Zr4       1.0  0.00696  0.50700  0.98600  1.0000
