data_image0
_chemical_formula_structural       Al2Bi2Pd4Ti4
_chemical_formula_sum              "Al2 Bi2 Pd4 Ti4"
_cell_length_a       6.16214
_cell_length_b       6.16214
_cell_length_c       7.53049
_cell_angle_alpha    65.8488
_cell_angle_beta     65.8488
_cell_angle_gamma    90

_space_group_name_H-M_alt    "P 1"
_space_group_IT_number       1

loop_
  _space_group_symop_operation_xyz
  'x, y, z'

loop_
  _atom_site_type_symbol
  _atom_site_label
  _atom_site_symmetry_multiplicity
  _atom_site_fract_x
  _atom_site_fract_y
  _atom_site_fract_z
  _atom_site_occupancy
  Al  Al1       1.0  0.00000  0.00000  0.00000  1.0000
  Al  Al2       1.0  0.25000  0.75000  0.50000  1.0000
  Bi  Bi1       1.0  0.50000  0.50000  0.00000  1.0000
  Bi  Bi2       1.0  0.75000  0.25000  0.50000  1.0000
  Pd  Pd1       1.0  0.62500  0.10200  0.25000  1.0000
  Pd  Pd2       1.0  0.12500  0.64800  0.25000  1.0000
  Pd  Pd3       1.0  0.35200  0.37500  0.75000  1.0000
  Pd  Pd4       1.0  0.89800  0.87500  0.75000  1.0000
  Ti  Ti1       1.0  0.49400  0.99400  0.01110  1.0000
  Ti  Ti2       1.0  0.75600  0.75600  0.48900  1.0000
  Ti  Ti3       1.0  0.24400  0.24400  0.51100  1.0000
  Ti  Ti4       1.0  0.00554  0.50600  0.98900  1.0000
