data_image0
_chemical_formula_structural       Bi6Te6
_chemical_formula_sum              "Bi6 Te6"
_cell_length_a       4.47363
_cell_length_b       4.47356
_cell_length_c       24.362
_cell_angle_alpha    90
_cell_angle_beta     89.9981
_cell_angle_gamma    119.999

_space_group_name_H-M_alt    "P 1"
_space_group_IT_number       1

loop_
  _space_group_symop_operation_xyz
  'x, y, z'

loop_
  _atom_site_type_symbol
  _atom_site_label
  _atom_site_symmetry_multiplicity
  _atom_site_fract_x
  _atom_site_fract_y
  _atom_site_fract_z
  _atom_site_occupancy
  Bi  Bi1       1.0  0.00002  0.00001  0.12700  1.0000
  Bi  Bi2       1.0  0.33300  0.66700  0.29300  1.0000
  Bi  Bi3       1.0  0.66700  0.33300  0.46600  1.0000
  Bi  Bi4       1.0  0.33300  0.66700  0.53400  1.0000
  Bi  Bi5       1.0  0.66700  0.33300  0.70700  1.0000
  Bi  Bi6       1.0  0.00000  0.00000  0.87300  1.0000
  Te  Te1       1.0  0.33300  0.66700  0.05640  1.0000
  Te  Te2       1.0  0.66700  0.33300  0.21000  1.0000
  Te  Te3       1.0  0.00001  0.00000  0.36400  1.0000
  Te  Te4       1.0  0.00000  1.00000  0.63600  1.0000
  Te  Te5       1.0  0.33300  0.66700  0.79000  1.0000
  Te  Te6       1.0  0.66700  0.33300  0.94400  1.0000
