data_image0
_chemical_formula_structural       Bi4Fe2Pd2Zr4
_chemical_formula_sum              "Bi4 Fe2 Pd2 Zr4"
_cell_length_a       7.78559
_cell_length_b       7.78559
_cell_length_c       7.78559
_cell_angle_alpha    131.478
_cell_angle_beta     131.478
_cell_angle_gamma    71.054

_space_group_name_H-M_alt    "P 1"
_space_group_IT_number       1

loop_
  _space_group_symop_operation_xyz
  'x, y, z'

loop_
  _atom_site_type_symbol
  _atom_site_label
  _atom_site_symmetry_multiplicity
  _atom_site_fract_x
  _atom_site_fract_y
  _atom_site_fract_z
  _atom_site_occupancy
  Bi  Bi1       1.0  0.75000  0.98800  0.23800  1.0000
  Bi  Bi2       1.0  0.25000  0.51200  0.26200  1.0000
  Bi  Bi3       1.0  0.98800  0.75000  0.73800  1.0000
  Bi  Bi4       1.0  0.51200  0.25000  0.76200  1.0000
  Fe  Fe1       1.0  0.87500  0.62500  0.25000  1.0000
  Fe  Fe2       1.0  0.62500  0.87500  0.75000  1.0000
  Pd  Pd1       1.0  0.37500  0.12500  0.25000  1.0000
  Pd  Pd2       1.0  0.12500  0.37500  0.75000  1.0000
  Zr  Zr1       1.0  0.98700  0.25000  0.23700  1.0000
  Zr  Zr2       1.0  0.51300  0.75000  0.26300  1.0000
  Zr  Zr3       1.0  0.25000  0.98700  0.73700  1.0000
  Zr  Zr4       1.0  0.75000  0.51300  0.76300  1.0000
