data_image0
_chemical_formula_structural       La2Pt4Sn4V2
_chemical_formula_sum              "La2 Pt4 Sn4 V2"
_cell_length_a       6.6035
_cell_length_b       4.54125
_cell_length_c       9.18335
_cell_angle_alpha    90
_cell_angle_beta     90
_cell_angle_gamma    90

_space_group_name_H-M_alt    "P 1"
_space_group_IT_number       1

loop_
  _space_group_symop_operation_xyz
  'x, y, z'

loop_
  _atom_site_type_symbol
  _atom_site_label
  _atom_site_symmetry_multiplicity
  _atom_site_fract_x
  _atom_site_fract_y
  _atom_site_fract_z
  _atom_site_occupancy
  La  La1       1.0  0.00057  0.00000  0.38100  1.0000
  La  La2       1.0  0.50100  0.50000  0.61900  1.0000
  Pt  Pt1       1.0  0.73900  0.00000  0.10200  1.0000
  Pt  Pt2       1.0  0.27900  0.50000  0.32900  1.0000
  Pt  Pt3       1.0  0.77900  0.00000  0.67100  1.0000
  Pt  Pt4       1.0  0.23900  0.50000  0.89800  1.0000
  Sn  Sn1       1.0  0.97200  0.50000  0.11300  1.0000
  Sn  Sn2       1.0  0.50900  0.00000  0.34900  1.0000
  Sn  Sn3       1.0  0.00850  0.50000  0.65100  1.0000
  Sn  Sn4       1.0  0.47200  0.00000  0.88700  1.0000
  V   V1        1.0  0.50200  0.50000  0.11600  1.0000
  V   V2        1.0  0.00152  0.00000  0.88400  1.0000
