data_image0
_chemical_formula_structural       Bi4Co4Nb2Sc2
_chemical_formula_sum              "Bi4 Co4 Nb2 Sc2"
_cell_length_a       6.14451
_cell_length_b       4.34128
_cell_length_c       8.67173
_cell_angle_alpha    90
_cell_angle_beta     90
_cell_angle_gamma    90

_space_group_name_H-M_alt    "P 1"
_space_group_IT_number       1

loop_
  _space_group_symop_operation_xyz
  'x, y, z'

loop_
  _atom_site_type_symbol
  _atom_site_label
  _atom_site_symmetry_multiplicity
  _atom_site_fract_x
  _atom_site_fract_y
  _atom_site_fract_z
  _atom_site_occupancy
  Bi  Bi1       1.0  0.98600  0.50000  0.12800  1.0000
  Bi  Bi2       1.0  0.51300  0.00000  0.37900  1.0000
  Bi  Bi3       1.0  0.01300  0.50000  0.62100  1.0000
  Bi  Bi4       1.0  0.48600  0.00000  0.87100  1.0000
  Co  Co1       1.0  0.73400  0.00000  0.11400  1.0000
  Co  Co2       1.0  0.26700  0.50000  0.35900  1.0000
  Co  Co3       1.0  0.76700  0.00000  0.64100  1.0000
  Co  Co4       1.0  0.23400  0.50000  0.88600  1.0000
  Nb  Nb1       1.0  0.48900  0.50000  0.12500  1.0000
  Nb  Nb2       1.0  0.98900  0.00000  0.87500  1.0000
  Sc  Sc1       1.0  0.01190  0.00000  0.37500  1.0000
  Sc  Sc2       1.0  0.51200  0.50000  0.62500  1.0000
