data_image0
_chemical_formula_structural       In2Ni4Sb2Ti4
_chemical_formula_sum              "In2 Ni4 Sb2 Ti4"
_cell_length_a       7.273
_cell_length_b       7.273
_cell_length_c       5.92604
_cell_angle_alpha    114.042
_cell_angle_beta     114.042
_cell_angle_gamma    48.0832

_space_group_name_H-M_alt    "P 1"
_space_group_IT_number       1

loop_
  _space_group_symop_operation_xyz
  'x, y, z'

loop_
  _atom_site_type_symbol
  _atom_site_label
  _atom_site_symmetry_multiplicity
  _atom_site_fract_x
  _atom_site_fract_y
  _atom_site_fract_z
  _atom_site_occupancy
  In  In1       1.0  0.00000  0.75000  0.12500  1.0000
  In  In2       1.0  0.25000  0.00000  0.87500  1.0000
  Ni  Ni1       1.0  0.38500  0.61500  0.00000  1.0000
  Ni  Ni2       1.0  0.12500  0.37500  0.26000  1.0000
  Ni  Ni3       1.0  0.86500  0.13500  0.50000  1.0000
  Ni  Ni4       1.0  0.62500  0.87500  0.74000  1.0000
  Sb  Sb1       1.0  0.75000  0.50000  0.37500  1.0000
  Sb  Sb2       1.0  0.50000  0.25000  0.62500  1.0000
  Ti  Ti1       1.0  0.49600  0.24600  0.12100  1.0000
  Ti  Ti2       1.0  0.24600  0.99600  0.37100  1.0000
  Ti  Ti3       1.0  0.00385  0.75400  0.62900  1.0000
  Ti  Ti4       1.0  0.75400  0.50400  0.87900  1.0000
