data_image0
_chemical_formula_structural       Co4Sb4Ta2Y2
_chemical_formula_sum              "Co4 Sb4 Ta2 Y2"
_cell_length_a       6.14119
_cell_length_b       4.31078
_cell_length_c       8.71805
_cell_angle_alpha    90
_cell_angle_beta     90
_cell_angle_gamma    90

_space_group_name_H-M_alt    "P 1"
_space_group_IT_number       1

loop_
  _space_group_symop_operation_xyz
  'x, y, z'

loop_
  _atom_site_type_symbol
  _atom_site_label
  _atom_site_symmetry_multiplicity
  _atom_site_fract_x
  _atom_site_fract_y
  _atom_site_fract_z
  _atom_site_occupancy
  Co  Co1       1.0  0.73400  0.00000  0.11000  1.0000
  Co  Co2       1.0  0.27300  0.50000  0.34600  1.0000
  Co  Co3       1.0  0.77300  0.00000  0.65400  1.0000
  Co  Co4       1.0  0.23400  0.50000  0.89000  1.0000
  Sb  Sb1       1.0  0.98800  0.50000  0.12200  1.0000
  Sb  Sb2       1.0  0.50600  0.00000  0.36300  1.0000
  Sb  Sb3       1.0  0.00598  0.50000  0.63700  1.0000
  Sb  Sb4       1.0  0.48800  0.00000  0.87800  1.0000
  Ta  Ta1       1.0  0.49400  0.50000  0.12000  1.0000
  Ta  Ta2       1.0  0.99400  0.00000  0.88000  1.0000
  Y   Y1        1.0  0.00485  0.00000  0.37900  1.0000
  Y   Y2        1.0  0.50500  0.50000  0.62100  1.0000
