data_image0
_chemical_formula_structural       Bi2Ga2Ni4Zr4
_chemical_formula_sum              "Bi2 Ga2 Ni4 Zr4"
_cell_length_a       7.47297
_cell_length_b       7.47297
_cell_length_c       6.11452
_cell_angle_alpha    114.149
_cell_angle_beta     114.149
_cell_angle_gamma    109.3

_space_group_name_H-M_alt    "P 1"
_space_group_IT_number       1

loop_
  _space_group_symop_operation_xyz
  'x, y, z'

loop_
  _atom_site_type_symbol
  _atom_site_label
  _atom_site_symmetry_multiplicity
  _atom_site_fract_x
  _atom_site_fract_y
  _atom_site_fract_z
  _atom_site_occupancy
  Bi  Bi1       1.0  0.50000  0.50000  0.00000  1.0000
  Bi  Bi2       1.0  0.75000  0.25000  0.50000  1.0000
  Ga  Ga1       1.0  0.00000  0.00000  0.00000  1.0000
  Ga  Ga2       1.0  0.25000  0.75000  0.50000  1.0000
  Ni  Ni1       1.0  0.88500  0.63500  0.01030  1.0000
  Ni  Ni2       1.0  0.12500  0.37500  0.49000  1.0000
  Ni  Ni3       1.0  0.62500  0.87500  0.51000  1.0000
  Ni  Ni4       1.0  0.36500  0.11500  0.99000  1.0000
  Zr  Zr1       1.0  0.75800  0.24200  0.00000  1.0000
  Zr  Zr2       1.0  0.24200  0.75800  0.00000  1.0000
  Zr  Zr3       1.0  0.49200  0.50800  0.50000  1.0000
  Zr  Zr4       1.0  0.00817  0.99200  0.50000  1.0000
