data_image0
_chemical_formula_structural       Co4Nb2Sb4Y2
_chemical_formula_sum              "Co4 Nb2 Sb4 Y2"
_cell_length_a       6.13961
_cell_length_b       4.31828
_cell_length_c       8.70431
_cell_angle_alpha    90
_cell_angle_beta     90
_cell_angle_gamma    90

_space_group_name_H-M_alt    "P 1"
_space_group_IT_number       1

loop_
  _space_group_symop_operation_xyz
  'x, y, z'

loop_
  _atom_site_type_symbol
  _atom_site_label
  _atom_site_symmetry_multiplicity
  _atom_site_fract_x
  _atom_site_fract_y
  _atom_site_fract_z
  _atom_site_occupancy
  Co  Co1       1.0  0.73500  0.00000  0.11100  1.0000
  Co  Co2       1.0  0.27300  0.50000  0.34600  1.0000
  Co  Co3       1.0  0.77300  0.00000  0.65400  1.0000
  Co  Co4       1.0  0.23500  0.50000  0.88900  1.0000
  Nb  Nb1       1.0  0.49300  0.50000  0.12100  1.0000
  Nb  Nb2       1.0  0.99300  0.00000  0.87900  1.0000
  Sb  Sb1       1.0  0.98800  0.50000  0.12100  1.0000
  Sb  Sb2       1.0  0.50700  0.00000  0.36500  1.0000
  Sb  Sb3       1.0  0.00675  0.50000  0.63500  1.0000
  Sb  Sb4       1.0  0.48800  0.00000  0.87900  1.0000
  Y   Y1        1.0  0.00533  0.00000  0.37800  1.0000
  Y   Y2        1.0  0.50500  0.50000  0.62200  1.0000
