data_image0
_chemical_formula_structural       Cs8O4Se4
_chemical_formula_sum              "Cs8 O4 Se4"
_cell_length_a       6.28078
_cell_length_b       7.61975
_cell_length_c       12.5153
_cell_angle_alpha    90
_cell_angle_beta     91.671
_cell_angle_gamma    90

_space_group_name_H-M_alt    "P 1"
_space_group_IT_number       1

loop_
  _space_group_symop_operation_xyz
  'x, y, z'

loop_
  _atom_site_type_symbol
  _atom_site_label
  _atom_site_symmetry_multiplicity
  _atom_site_fract_x
  _atom_site_fract_y
  _atom_site_fract_z
  _atom_site_occupancy
  Cs  Cs1       1.0  0.52100  0.37000  0.01780  1.0000
  Cs  Cs2       1.0  0.99000  0.84300  0.16400  1.0000
  Cs  Cs3       1.0  0.02730  0.32900  0.17200  1.0000
  Cs  Cs4       1.0  0.21300  0.65900  0.48300  1.0000
  Cs  Cs5       1.0  0.78700  0.15900  0.51700  1.0000
  Cs  Cs6       1.0  0.97300  0.82900  0.82800  1.0000
  Cs  Cs7       1.0  0.01040  0.34300  0.83600  1.0000
  Cs  Cs8       1.0  0.47900  0.87000  0.98200  1.0000
  O   O1        1.0  0.12600  0.59300  0.00524  1.0000
  O   O2        1.0  0.88600  0.58200  0.00554  1.0000
  O   O3        1.0  0.11400  0.08200  0.99400  1.0000
  O   O4        1.0  0.87400  0.09310  0.99500  1.0000
  Se  Se1       1.0  0.50200  0.10500  0.28500  1.0000
  Se  Se2       1.0  0.54700  0.41900  0.31800  1.0000
  Se  Se3       1.0  0.45300  0.91900  0.68200  1.0000
  Se  Se4       1.0  0.49800  0.60500  0.71500  1.0000
