data_image0
_chemical_formula_structural       La2Pt4Sn4Ta2
_chemical_formula_sum              "La2 Pt4 Sn4 Ta2"
_cell_length_a       6.61168
_cell_length_b       4.57409
_cell_length_c       9.3434
_cell_angle_alpha    90
_cell_angle_beta     90.0002
_cell_angle_gamma    90

_space_group_name_H-M_alt    "P 1"
_space_group_IT_number       1

loop_
  _space_group_symop_operation_xyz
  'x, y, z'

loop_
  _atom_site_type_symbol
  _atom_site_label
  _atom_site_symmetry_multiplicity
  _atom_site_fract_x
  _atom_site_fract_y
  _atom_site_fract_z
  _atom_site_occupancy
  La  La1       1.0  0.00000  0.00000  0.38000  1.0000
  La  La2       1.0  0.50000  0.50000  0.62000  1.0000
  Pt  Pt1       1.0  0.26500  0.00000  0.10400  1.0000
  Pt  Pt2       1.0  0.72400  0.50000  0.33900  1.0000
  Pt  Pt3       1.0  0.22400  0.00000  0.66100  1.0000
  Pt  Pt4       1.0  0.76500  0.50000  0.89600  1.0000
  Sn  Sn1       1.0  0.01930  0.50000  0.12000  1.0000
  Sn  Sn2       1.0  0.49200  0.00000  0.35800  1.0000
  Sn  Sn3       1.0  0.99200  0.50000  0.64200  1.0000
  Sn  Sn4       1.0  0.51900  0.00000  0.88000  1.0000
  Ta  Ta1       1.0  0.50000  0.50000  0.11700  1.0000
  Ta  Ta2       1.0  0.00000  0.00000  0.88300  1.0000
