data_image0
_chemical_formula_structural       Co4Ga2Sb2V4
_chemical_formula_sum              "Co4 Ga2 Sb2 V4"
_cell_length_a       6.92669
_cell_length_b       6.92669
_cell_length_c       6.92669
_cell_angle_alpha    131.717
_cell_angle_beta     131.717
_cell_angle_gamma    70.676

_space_group_name_H-M_alt    "P 1"
_space_group_IT_number       1

loop_
  _space_group_symop_operation_xyz
  'x, y, z'

loop_
  _atom_site_type_symbol
  _atom_site_label
  _atom_site_symmetry_multiplicity
  _atom_site_fract_x
  _atom_site_fract_y
  _atom_site_fract_z
  _atom_site_occupancy
  Co  Co1       1.0  0.63400  0.12500  0.00873  1.0000
  Co  Co2       1.0  0.37500  0.36600  0.49100  1.0000
  Co  Co3       1.0  0.87500  0.88400  0.50900  1.0000
  Co  Co4       1.0  0.11600  0.62500  0.99100  1.0000
  Ga  Ga1       1.0  0.00000  0.00000  0.00000  1.0000
  Ga  Ga2       1.0  0.75000  0.25000  0.50000  1.0000
  Sb  Sb1       1.0  0.50000  0.50000  0.00000  1.0000
  Sb  Sb2       1.0  0.25000  0.75000  0.50000  1.0000
  V   V1        1.0  0.24200  0.24200  0.00000  1.0000
  V   V2        1.0  0.75800  0.75800  0.00000  1.0000
  V   V3        1.0  0.50800  0.00808  0.50000  1.0000
  V   V4        1.0  0.99200  0.49200  0.50000  1.0000
