data_image0
_chemical_formula_structural       Al2Bi2Nb4Rh4
_chemical_formula_sum              "Al2 Bi2 Nb4 Rh4"
_cell_length_a       7.55424
_cell_length_b       7.55424
_cell_length_c       6.16993
_cell_angle_alpha    114.103
_cell_angle_beta     114.103
_cell_angle_gamma    109.446

_space_group_name_H-M_alt    "P 1"
_space_group_IT_number       1

loop_
  _space_group_symop_operation_xyz
  'x, y, z'

loop_
  _atom_site_type_symbol
  _atom_site_label
  _atom_site_symmetry_multiplicity
  _atom_site_fract_x
  _atom_site_fract_y
  _atom_site_fract_z
  _atom_site_occupancy
  Al  Al1       1.0  0.00000  0.00000  0.00000  1.0000
  Al  Al2       1.0  0.25000  0.75000  0.50000  1.0000
  Bi  Bi1       1.0  0.50000  0.50000  0.00000  1.0000
  Bi  Bi2       1.0  0.75000  0.25000  0.50000  1.0000
  Nb  Nb1       1.0  0.75700  0.24300  0.00000  1.0000
  Nb  Nb2       1.0  0.24300  0.75700  0.00000  1.0000
  Nb  Nb3       1.0  0.49300  0.50700  0.50000  1.0000
  Nb  Nb4       1.0  0.00652  0.99300  0.50000  1.0000
  Rh  Rh1       1.0  0.89200  0.64200  0.01690  1.0000
  Rh  Rh2       1.0  0.12500  0.37500  0.48300  1.0000
  Rh  Rh3       1.0  0.62500  0.87500  0.51700  1.0000
  Rh  Rh4       1.0  0.35800  0.10800  0.98300  1.0000
