data_image0
_chemical_formula_structural       Al2Hf4Pt4Sb2
_chemical_formula_sum              "Al2 Hf4 Pt4 Sb2"
_cell_length_a       6.28885
_cell_length_b       6.28885
_cell_length_c       7.70031
_cell_angle_alpha    65.8988
_cell_angle_beta     65.8988
_cell_angle_gamma    90

_space_group_name_H-M_alt    "P 1"
_space_group_IT_number       1

loop_
  _space_group_symop_operation_xyz
  'x, y, z'

loop_
  _atom_site_type_symbol
  _atom_site_label
  _atom_site_symmetry_multiplicity
  _atom_site_fract_x
  _atom_site_fract_y
  _atom_site_fract_z
  _atom_site_occupancy
  Al  Al1       1.0  0.00000  0.00000  0.00000  1.0000
  Al  Al2       1.0  0.25000  0.75000  0.50000  1.0000
  Hf  Hf1       1.0  0.49600  0.99600  0.00832  1.0000
  Hf  Hf2       1.0  0.75400  0.75400  0.49200  1.0000
  Hf  Hf3       1.0  0.24600  0.24600  0.50800  1.0000
  Hf  Hf4       1.0  0.00416  0.50400  0.99200  1.0000
  Pt  Pt1       1.0  0.62500  0.11400  0.25000  1.0000
  Pt  Pt2       1.0  0.12500  0.63600  0.25000  1.0000
  Pt  Pt3       1.0  0.88600  0.87500  0.75000  1.0000
  Pt  Pt4       1.0  0.36400  0.37500  0.75000  1.0000
  Sb  Sb1       1.0  0.50000  0.50000  0.00000  1.0000
  Sb  Sb2       1.0  0.75000  0.25000  0.50000  1.0000
