data_image0
_chemical_formula_structural       Ba2Cu2O2P2
_chemical_formula_sum              "Ba2 Cu2 O2 P2"
_cell_length_a       6.21953
_cell_length_b       6.21953
_cell_length_c       4.53382
_cell_angle_alpha    89.9982
_cell_angle_beta     89.9982
_cell_angle_gamma    89.9999

_space_group_name_H-M_alt    "P 1"
_space_group_IT_number       1

loop_
  _space_group_symop_operation_xyz
  'x, y, z'

loop_
  _atom_site_type_symbol
  _atom_site_label
  _atom_site_symmetry_multiplicity
  _atom_site_fract_x
  _atom_site_fract_y
  _atom_site_fract_z
  _atom_site_occupancy
  Ba  Ba1       1.0  0.75000  0.25000  0.50000  1.0000
  Ba  Ba2       1.0  0.25000  0.75000  0.50000  1.0000
  Cu  Cu1       1.0  0.25000  0.25000  0.01830  1.0000
  Cu  Cu2       1.0  0.75000  0.75000  0.98200  1.0000
  O   O1        1.0  0.75000  0.25000  0.00000  1.0000
  O   O2        1.0  0.25000  0.75000  0.00000  1.0000
  P   P1        1.0  0.75000  0.75000  0.48100  1.0000
  P   P2        1.0  0.25000  0.25000  0.51900  1.0000
