data_image0
_chemical_formula_structural       Co4In2Sb2V4
_chemical_formula_sum              "Co4 In2 Sb2 V4"
_cell_length_a       5.79496
_cell_length_b       5.79496
_cell_length_c       7.09254
_cell_angle_alpha    65.8878
_cell_angle_beta     65.8878
_cell_angle_gamma    90

_space_group_name_H-M_alt    "P 1"
_space_group_IT_number       1

loop_
  _space_group_symop_operation_xyz
  'x, y, z'

loop_
  _atom_site_type_symbol
  _atom_site_label
  _atom_site_symmetry_multiplicity
  _atom_site_fract_x
  _atom_site_fract_y
  _atom_site_fract_z
  _atom_site_occupancy
  Co  Co1       1.0  0.62500  0.13700  0.25000  1.0000
  Co  Co2       1.0  0.12500  0.61300  0.25000  1.0000
  Co  Co3       1.0  0.38700  0.37500  0.75000  1.0000
  Co  Co4       1.0  0.86300  0.87500  0.75000  1.0000
  In  In1       1.0  0.00000  0.00000  0.00000  1.0000
  In  In2       1.0  0.25000  0.75000  0.50000  1.0000
  Sb  Sb1       1.0  0.50000  0.50000  0.00000  1.0000
  Sb  Sb2       1.0  0.75000  0.25000  0.50000  1.0000
  V   V1        1.0  0.49900  0.99900  0.00278  1.0000
  V   V2        1.0  0.75100  0.75100  0.49700  1.0000
  V   V3        1.0  0.24900  0.24900  0.50300  1.0000
  V   V4        1.0  0.00139  0.50100  0.99700  1.0000
