data_image0
_chemical_formula_structural       Bi4Co4Lu2V2
_chemical_formula_sum              "Bi4 Co4 Lu2 V2"
_cell_length_a       4.39963
_cell_length_b       6.17059
_cell_length_c       8.58906
_cell_angle_alpha    90
_cell_angle_beta     90
_cell_angle_gamma    90

_space_group_name_H-M_alt    "P 1"
_space_group_IT_number       1

loop_
  _space_group_symop_operation_xyz
  'x, y, z'

loop_
  _atom_site_type_symbol
  _atom_site_label
  _atom_site_symmetry_multiplicity
  _atom_site_fract_x
  _atom_site_fract_y
  _atom_site_fract_z
  _atom_site_occupancy
  Bi  Bi1       1.0  0.50000  0.97300  0.11900  1.0000
  Bi  Bi2       1.0  0.00000  0.51700  0.36800  1.0000
  Bi  Bi3       1.0  0.50000  0.01650  0.63200  1.0000
  Bi  Bi4       1.0  0.00000  0.47300  0.88100  1.0000
  Co  Co1       1.0  0.00000  0.73600  0.10700  1.0000
  Co  Co2       1.0  0.50000  0.28100  0.33900  1.0000
  Co  Co3       1.0  0.00000  0.78100  0.66100  1.0000
  Co  Co4       1.0  0.50000  0.23600  0.89300  1.0000
  Lu  Lu1       1.0  0.00000  0.01460  0.37300  1.0000
  Lu  Lu2       1.0  0.50000  0.51500  0.62700  1.0000
  V   V1        1.0  0.50000  0.47900  0.12200  1.0000
  V   V2        1.0  0.00000  0.97900  0.87800  1.0000
