data_image0
_chemical_formula_structural       Cs2O8Tb4
_chemical_formula_sum              "Cs2 O8 Tb4"
_cell_length_a       7.21232
_cell_length_b       7.21232
_cell_length_c       7.21232
_cell_angle_alpha    90.0198
_cell_angle_beta     119.989
_cell_angle_gamma    119.989

_space_group_name_H-M_alt    "P 1"
_space_group_IT_number       1

loop_
  _space_group_symop_operation_xyz
  'x, y, z'

loop_
  _atom_site_type_symbol
  _atom_site_label
  _atom_site_symmetry_multiplicity
  _atom_site_fract_x
  _atom_site_fract_y
  _atom_site_fract_z
  _atom_site_occupancy
  Cs  Cs1       1.0  0.00000  0.00000  0.00000  1.0000
  Cs  Cs2       1.0  0.50000  0.75000  0.25000  1.0000
  O   O1        1.0  0.80300  0.20500  0.40200  1.0000
  O   O2        1.0  0.19700  0.59800  0.40200  1.0000
  O   O3        1.0  0.80300  0.59800  0.40200  1.0000
  O   O4        1.0  0.30300  0.15200  0.45500  1.0000
  O   O5        1.0  0.19700  0.59800  0.79500  1.0000
  O   O6        1.0  0.69700  0.15200  0.84800  1.0000
  O   O7        1.0  0.30300  0.15200  0.84800  1.0000
  O   O8        1.0  0.69700  0.54500  0.84800  1.0000
  Tb  Tb1       1.0  0.75000  0.37500  0.12500  1.0000
  Tb  Tb2       1.0  0.25000  0.87500  0.62500  1.0000
  Tb  Tb3       1.0  0.25000  0.37500  0.62500  1.0000
  Tb  Tb4       1.0  0.75000  0.37500  0.62500  1.0000
