data_image0
_chemical_formula_structural       Al2Bi2Pt4Zr4
_chemical_formula_sum              "Al2 Bi2 Pt4 Zr4"
_cell_length_a       7.81144
_cell_length_b       7.81144
_cell_length_c       6.39073
_cell_angle_alpha    114.146
_cell_angle_beta     114.146
_cell_angle_gamma    109.31

_space_group_name_H-M_alt    "P 1"
_space_group_IT_number       1

loop_
  _space_group_symop_operation_xyz
  'x, y, z'

loop_
  _atom_site_type_symbol
  _atom_site_label
  _atom_site_symmetry_multiplicity
  _atom_site_fract_x
  _atom_site_fract_y
  _atom_site_fract_z
  _atom_site_occupancy
  Al  Al1       1.0  0.00000  0.00000  0.00000  1.0000
  Al  Al2       1.0  0.25000  0.75000  0.50000  1.0000
  Bi  Bi1       1.0  0.50000  0.50000  0.00000  1.0000
  Bi  Bi2       1.0  0.75000  0.25000  0.50000  1.0000
  Pt  Pt1       1.0  0.89700  0.64700  0.02170  1.0000
  Pt  Pt2       1.0  0.12500  0.37500  0.47800  1.0000
  Pt  Pt3       1.0  0.62500  0.87500  0.52200  1.0000
  Pt  Pt4       1.0  0.35300  0.10300  0.97800  1.0000
  Zr  Zr1       1.0  0.75400  0.24600  0.00000  1.0000
  Zr  Zr2       1.0  0.24600  0.75400  0.00000  1.0000
  Zr  Zr3       1.0  0.49600  0.50400  0.50000  1.0000
  Zr  Zr4       1.0  0.00410  0.99600  0.50000  1.0000
