data_image0
_chemical_formula_structural       AgO2Rb2
_chemical_formula_sum              "Ag1 O2 Rb2"
_cell_length_a       3.47045
_cell_length_b       5.34844
_cell_length_c       5.92213
_cell_angle_alpha    104.884
_cell_angle_beta     90.006
_cell_angle_gamma    108.931

_space_group_name_H-M_alt    "P 1"
_space_group_IT_number       1

loop_
  _space_group_symop_operation_xyz
  'x, y, z'

loop_
  _atom_site_type_symbol
  _atom_site_label
  _atom_site_symmetry_multiplicity
  _atom_site_fract_x
  _atom_site_fract_y
  _atom_site_fract_z
  _atom_site_occupancy
  Ag  Ag1       1.0  0.50000  0.00000  0.00000  1.0000
  O   O1        1.0  0.11000  0.22000  0.19700  1.0000
  O   O2        1.0  0.89000  0.78000  0.80300  1.0000
  Rb  Rb1       1.0  0.83200  0.66400  0.30600  1.0000
  Rb  Rb2       1.0  0.16800  0.33600  0.69400  1.0000
