data_image0
_chemical_formula_structural       Ca4Co4O4Se4
_chemical_formula_sum              "Ca4 Co4 O4 Se4"
_cell_length_a       5.88998
_cell_length_b       3.86189
_cell_length_c       13.2823
_cell_angle_alpha    90
_cell_angle_beta     90
_cell_angle_gamma    90

_space_group_name_H-M_alt    "P 1"
_space_group_IT_number       1

loop_
  _space_group_symop_operation_xyz
  'x, y, z'

loop_
  _atom_site_type_symbol
  _atom_site_label
  _atom_site_symmetry_multiplicity
  _atom_site_fract_x
  _atom_site_fract_y
  _atom_site_fract_z
  _atom_site_occupancy
  Ca  Ca1       1.0  0.25100  0.75000  0.09440  1.0000
  Ca  Ca2       1.0  0.75100  0.75000  0.40600  1.0000
  Ca  Ca3       1.0  0.24900  0.25000  0.59400  1.0000
  Ca  Ca4       1.0  0.74900  0.25000  0.90600  1.0000
  Co  Co1       1.0  0.63500  0.25000  0.19100  1.0000
  Co  Co2       1.0  0.13500  0.25000  0.30900  1.0000
  Co  Co3       1.0  0.86500  0.75000  0.69100  1.0000
  Co  Co4       1.0  0.36500  0.75000  0.80900  1.0000
  O   O1        1.0  0.29700  0.25000  0.18400  1.0000
  O   O2        1.0  0.79700  0.25000  0.31600  1.0000
  O   O3        1.0  0.20300  0.75000  0.68400  1.0000
  O   O4        1.0  0.70300  0.75000  0.81600  1.0000
  Se  Se1       1.0  0.75500  0.75000  0.08600  1.0000
  Se  Se2       1.0  0.25500  0.75000  0.41400  1.0000
  Se  Se3       1.0  0.74500  0.25000  0.58600  1.0000
  Se  Se4       1.0  0.24500  0.25000  0.91400  1.0000
