data_image0
_chemical_formula_structural       Al2Nb4Rh4Sb2
_chemical_formula_sum              "Al2 Nb4 Rh4 Sb2"
_cell_length_a       7.48441
_cell_length_b       7.48441
_cell_length_c       6.10519
_cell_angle_alpha    114.071
_cell_angle_beta     114.071
_cell_angle_gamma    109.548

_space_group_name_H-M_alt    "P 1"
_space_group_IT_number       1

loop_
  _space_group_symop_operation_xyz
  'x, y, z'

loop_
  _atom_site_type_symbol
  _atom_site_label
  _atom_site_symmetry_multiplicity
  _atom_site_fract_x
  _atom_site_fract_y
  _atom_site_fract_z
  _atom_site_occupancy
  Al  Al1       1.0  0.00000  0.00000  0.00000  1.0000
  Al  Al2       1.0  0.25000  0.75000  0.50000  1.0000
  Nb  Nb1       1.0  0.75500  0.24500  0.00000  1.0000
  Nb  Nb2       1.0  0.24500  0.75500  0.00000  1.0000
  Nb  Nb3       1.0  0.49500  0.50500  0.50000  1.0000
  Nb  Nb4       1.0  0.00519  0.99500  0.50000  1.0000
  Rh  Rh1       1.0  0.88200  0.63200  0.00733  1.0000
  Rh  Rh2       1.0  0.12500  0.37500  0.49300  1.0000
  Rh  Rh3       1.0  0.62500  0.87500  0.50700  1.0000
  Rh  Rh4       1.0  0.36800  0.11800  0.99300  1.0000
  Sb  Sb1       1.0  0.50000  0.50000  0.00000  1.0000
  Sb  Sb2       1.0  0.75000  0.25000  0.50000  1.0000
