data_image0
_chemical_formula_structural       Ge2H4O8Yb2
_chemical_formula_sum              "Ge2 H4 O8 Yb2"
_cell_length_a       5.89308
_cell_length_b       5.89308
_cell_length_c       5.93343
_cell_angle_alpha    106.869
_cell_angle_beta     106.869
_cell_angle_gamma    114.562

_space_group_name_H-M_alt    "P 1"
_space_group_IT_number       1

loop_
  _space_group_symop_operation_xyz
  'x, y, z'

loop_
  _atom_site_type_symbol
  _atom_site_label
  _atom_site_symmetry_multiplicity
  _atom_site_fract_x
  _atom_site_fract_y
  _atom_site_fract_z
  _atom_site_occupancy
  Ge  Ge1       1.0  0.99100  0.99100  0.00000  1.0000
  Ge  Ge2       1.0  0.74100  0.24100  0.50000  1.0000
  H   H1        1.0  0.36300  0.94300  0.03260  1.0000
  H   H2        1.0  0.08050  0.16000  0.46700  1.0000
  H   H3        1.0  0.69300  0.61300  0.53300  1.0000
  H   H4        1.0  0.91000  0.33100  0.96700  1.0000
  O   O1        1.0  0.09080  0.35200  0.10700  1.0000
  O   O2        1.0  0.50600  0.89700  0.23800  1.0000
  O   O3        1.0  0.01820  0.90900  0.26200  1.0000
  O   O4        1.0  0.73400  0.49500  0.39300  1.0000
  O   O5        1.0  0.10200  0.34100  0.60700  1.0000
  O   O6        1.0  0.64700  0.75600  0.73800  1.0000
  O   O7        1.0  0.65900  0.26800  0.76200  1.0000
  O   O8        1.0  0.24500  0.98400  0.89300  1.0000
  Yb  Yb1       1.0  0.51000  0.51000  0.00000  1.0000
  Yb  Yb2       1.0  0.26000  0.76000  0.50000  1.0000
