data_image0
_chemical_formula_structural       Np4Ti6
_chemical_formula_sum              "Np4 Ti6"
_cell_length_a       6.94169
_cell_length_b       6.94169
_cell_length_c       6.94169
_cell_angle_alpha    54.4142
_cell_angle_beta     54.4142
_cell_angle_gamma    54.4142

_space_group_name_H-M_alt    "P 1"
_space_group_IT_number       1

loop_
  _space_group_symop_operation_xyz
  'x, y, z'

loop_
  _atom_site_type_symbol
  _atom_site_label
  _atom_site_symmetry_multiplicity
  _atom_site_fract_x
  _atom_site_fract_y
  _atom_site_fract_z
  _atom_site_occupancy
  Np  Np1       1.0  0.14300  0.14300  0.14300  1.0000
  Np  Np2       1.0  0.35700  0.35700  0.35700  1.0000
  Np  Np3       1.0  0.64300  0.64300  0.64300  1.0000
  Np  Np4       1.0  0.85700  0.85700  0.85700  1.0000
  Ti  Ti1       1.0  0.43000  0.75000  0.06960  1.0000
  Ti  Ti2       1.0  0.93000  0.57000  0.25000  1.0000
  Ti  Ti3       1.0  0.75000  0.06960  0.43000  1.0000
  Ti  Ti4       1.0  0.25000  0.93000  0.57000  1.0000
  Ti  Ti5       1.0  0.06960  0.43000  0.75000  1.0000
  Ti  Ti6       1.0  0.57000  0.25000  0.93000  1.0000
