data_image0
_chemical_formula_structural       In2Rh4Sb2Ta4
_chemical_formula_sum              "In2 Rh4 Sb2 Ta4"
_cell_length_a       6.18039
_cell_length_b       6.18039
_cell_length_c       7.58712
_cell_angle_alpha    65.965
_cell_angle_beta     65.965
_cell_angle_gamma    90

_space_group_name_H-M_alt    "P 1"
_space_group_IT_number       1

loop_
  _space_group_symop_operation_xyz
  'x, y, z'

loop_
  _atom_site_type_symbol
  _atom_site_label
  _atom_site_symmetry_multiplicity
  _atom_site_fract_x
  _atom_site_fract_y
  _atom_site_fract_z
  _atom_site_occupancy
  In  In1       1.0  0.00000  0.00000  0.00000  1.0000
  In  In2       1.0  0.25000  0.75000  0.50000  1.0000
  Rh  Rh1       1.0  0.62500  0.13400  0.25000  1.0000
  Rh  Rh2       1.0  0.12500  0.61600  0.25000  1.0000
  Rh  Rh3       1.0  0.86600  0.87500  0.75000  1.0000
  Rh  Rh4       1.0  0.38400  0.37500  0.75000  1.0000
  Sb  Sb1       1.0  0.50000  0.50000  0.00000  1.0000
  Sb  Sb2       1.0  0.75000  0.25000  0.50000  1.0000
  Ta  Ta1       1.0  0.49700  0.99700  0.00690  1.0000
  Ta  Ta2       1.0  0.75300  0.75300  0.49300  1.0000
  Ta  Ta3       1.0  0.24700  0.24700  0.50700  1.0000
  Ta  Ta4       1.0  0.00345  0.50300  0.99300  1.0000
