# generated using pymatgen
data_Na4GeSe4
_symmetry_space_group_name_H-M   'P 1'
_cell_length_a   7.22912700
_cell_length_b   9.54941600
_cell_length_c   28.91710800
_cell_angle_alpha   90.00000000
_cell_angle_beta   90.00000000
_cell_angle_gamma   90.00000000
_symmetry_Int_Tables_number   1
_chemical_formula_structural   Na4GeSe4
_chemical_formula_sum   'Na32 Ge8 Se32'
_cell_volume   1996.26192871
_cell_formula_units_Z   8
loop_
 _symmetry_equiv_pos_site_id
 _symmetry_equiv_pos_as_xyz
  1  'x, y, z'
loop_
 _atom_site_type_symbol
 _atom_site_label
 _atom_site_symmetry_multiplicity
 _atom_site_fract_x
 _atom_site_fract_y
 _atom_site_fract_z
 _atom_site_occupancy
  Na  Na0  1  0.53110200  0.75000000  0.13984100  1
  Na  Na1  1  0.03110200  0.25000000  0.36015900  1
  Na  Na2  1  0.46889800  0.25000000  0.86015900  1
  Na  Na3  1  0.96889800  0.75000000  0.63984100  1
  Na  Na4  1  0.54875900  0.25000000  0.10418400  1
  Na  Na5  1  0.04875900  0.75000000  0.39581600  1
  Na  Na6  1  0.45124100  0.75000000  0.89581600  1
  Na  Na7  1  0.95124100  0.25000000  0.60418400  1
  Na  Na8  1  0.40634300  0.44297400  0.24367900  1
  Na  Na9  1  0.90634300  0.55702600  0.25632100  1
  Na  Na10  1  0.59365700  0.94297400  0.75632100  1
  Na  Na11  1  0.09365700  0.05702600  0.74367900  1
  Na  Na12  1  0.59365700  0.55702600  0.75632100  1
  Na  Na13  1  0.09365700  0.44297400  0.74367900  1
  Na  Na14  1  0.40634300  0.05702600  0.24367900  1
  Na  Na15  1  0.90634300  0.94297400  0.25632100  1
  Na  Na16  1  0.24400900  0.45393500  0.47654200  1
  Na  Na17  1  0.74400900  0.54606500  0.02345800  1
  Na  Na18  1  0.75599100  0.95393500  0.52345800  1
  Na  Na19  1  0.25599100  0.04606500  0.97654200  1
  Na  Na20  1  0.75599100  0.54606500  0.52345800  1
  Na  Na21  1  0.25599100  0.45393500  0.97654200  1
  Na  Na22  1  0.24400900  0.04606500  0.47654200  1
  Na  Na23  1  0.74400900  0.95393500  0.02345800  1
  Na  Na24  1  0.57048400  0.49875300  0.36590400  1
  Na  Na25  1  0.07048400  0.50124700  0.13409600  1
  Na  Na26  1  0.42951600  0.99875300  0.63409600  1
  Na  Na27  1  0.92951600  0.00124700  0.86590400  1
  Na  Na28  1  0.42951600  0.50124700  0.63409600  1
  Na  Na29  1  0.92951600  0.49875300  0.86590400  1
  Na  Na30  1  0.57048400  0.00124700  0.36590400  1
  Na  Na31  1  0.07048400  0.99875300  0.13409600  1
  Ge  Ge32  1  0.82110800  0.25000000  0.20961200  1
  Ge  Ge33  1  0.32110800  0.75000000  0.29038800  1
  Ge  Ge34  1  0.17889200  0.75000000  0.79038800  1
  Ge  Ge35  1  0.67889200  0.25000000  0.70961200  1
  Ge  Ge36  1  0.70819800  0.25000000  0.45553600  1
  Ge  Ge37  1  0.20819800  0.75000000  0.04446400  1
  Ge  Ge38  1  0.29180200  0.75000000  0.54446400  1
  Ge  Ge39  1  0.79180200  0.25000000  0.95553600  1
  Se  Se40  1  0.71840500  0.25000000  0.28876100  1
  Se  Se41  1  0.21840500  0.75000000  0.21123900  1
  Se  Se42  1  0.28159500  0.75000000  0.71123900  1
  Se  Se43  1  0.78159500  0.25000000  0.78876100  1
  Se  Se44  1  0.64912400  0.75000000  0.30407200  1
  Se  Se45  1  0.14912400  0.25000000  0.19592800  1
  Se  Se46  1  0.35087600  0.25000000  0.69592800  1
  Se  Se47  1  0.85087600  0.75000000  0.80407200  1
  Se  Se48  1  0.19779600  0.54645000  0.32681300  1
  Se  Se49  1  0.69779600  0.45355000  0.17318700  1
  Se  Se50  1  0.80220400  0.04645000  0.67318700  1
  Se  Se51  1  0.30220400  0.95355000  0.82681300  1
  Se  Se52  1  0.80220400  0.45355000  0.67318700  1
  Se  Se53  1  0.30220400  0.54645000  0.82681300  1
  Se  Se54  1  0.19779600  0.95355000  0.32681300  1
  Se  Se55  1  0.69779600  0.04645000  0.17318700  1
  Se  Se56  1  0.35989700  0.75000000  0.46391700  1
  Se  Se57  1  0.85989700  0.25000000  0.03608300  1
  Se  Se58  1  0.64010300  0.25000000  0.53608300  1
  Se  Se59  1  0.14010300  0.75000000  0.96391700  1
  Se  Se60  1  0.41873900  0.25000000  0.41571600  1
  Se  Se61  1  0.91873900  0.75000000  0.08428400  1
  Se  Se62  1  0.58126100  0.75000000  0.58428400  1
  Se  Se63  1  0.08126100  0.25000000  0.91571600  1
  Se  Se64  1  0.37774500  0.54731800  0.06951000  1
  Se  Se65  1  0.87774500  0.45268200  0.43049000  1
  Se  Se66  1  0.62225500  0.04731800  0.93049000  1
  Se  Se67  1  0.12225500  0.95268200  0.56951000  1
  Se  Se68  1  0.62225500  0.45268200  0.93049000  1
  Se  Se69  1  0.12225500  0.54731800  0.56951000  1
  Se  Se70  1  0.37774500  0.95268200  0.06951000  1
  Se  Se71  1  0.87774500  0.04731800  0.43049000  1
