data_image0
_chemical_formula_structural       Al2Bi2Co4V4
_chemical_formula_sum              "Al2 Bi2 Co4 V4"
_cell_length_a       5.74457
_cell_length_b       5.74457
_cell_length_c       7.03002
_cell_angle_alpha    65.8847
_cell_angle_beta     65.8847
_cell_angle_gamma    90

_space_group_name_H-M_alt    "P 1"
_space_group_IT_number       1

loop_
  _space_group_symop_operation_xyz
  'x, y, z'

loop_
  _atom_site_type_symbol
  _atom_site_label
  _atom_site_symmetry_multiplicity
  _atom_site_fract_x
  _atom_site_fract_y
  _atom_site_fract_z
  _atom_site_occupancy
  Al  Al1       1.0  0.00000  0.00000  0.00000  1.0000
  Al  Al2       1.0  0.25000  0.75000  0.50000  1.0000
  Bi  Bi1       1.0  0.50000  0.50000  0.00000  1.0000
  Bi  Bi2       1.0  0.75000  0.25000  0.50000  1.0000
  Co  Co1       1.0  0.12500  0.65000  0.25000  1.0000
  Co  Co2       1.0  0.62500  0.10000  0.25000  1.0000
  Co  Co3       1.0  0.35000  0.37500  0.75000  1.0000
  Co  Co4       1.0  0.90000  0.87500  0.75000  1.0000
  V   V1        1.0  0.48800  0.98800  0.02330  1.0000
  V   V2        1.0  0.76200  0.76200  0.47700  1.0000
  V   V3        1.0  0.23800  0.23800  0.52300  1.0000
  V   V4        1.0  0.01160  0.51200  0.97700  1.0000
