data_image0
_chemical_formula_structural       Bi4Co4Ta2Y2
_chemical_formula_sum              "Bi4 Co4 Ta2 Y2"
_cell_length_a       6.26968
_cell_length_b       4.41627
_cell_length_c       8.85945
_cell_angle_alpha    90
_cell_angle_beta     90
_cell_angle_gamma    90

_space_group_name_H-M_alt    "P 1"
_space_group_IT_number       1

loop_
  _space_group_symop_operation_xyz
  'x, y, z'

loop_
  _atom_site_type_symbol
  _atom_site_label
  _atom_site_symmetry_multiplicity
  _atom_site_fract_x
  _atom_site_fract_y
  _atom_site_fract_z
  _atom_site_occupancy
  Bi  Bi1       1.0  0.98200  0.50000  0.12400  1.0000
  Bi  Bi2       1.0  0.51300  0.00000  0.36900  1.0000
  Bi  Bi3       1.0  0.01320  0.50000  0.63100  1.0000
  Bi  Bi4       1.0  0.48200  0.00000  0.87600  1.0000
  Co  Co1       1.0  0.73100  0.00000  0.10800  1.0000
  Co  Co2       1.0  0.27500  0.50000  0.34800  1.0000
  Co  Co3       1.0  0.77500  0.00000  0.65200  1.0000
  Co  Co4       1.0  0.23100  0.50000  0.89200  1.0000
  Ta  Ta1       1.0  0.48800  0.50000  0.12100  1.0000
  Ta  Ta2       1.0  0.98800  0.00000  0.87900  1.0000
  Y   Y1        1.0  0.01130  0.00000  0.37600  1.0000
  Y   Y2        1.0  0.51100  0.50000  0.62400  1.0000
