data_image0
_chemical_formula_structural       In2Ir4Sb2Ta4
_chemical_formula_sum              "In2 Ir4 Sb2 Ta4"
_cell_length_a       7.63575
_cell_length_b       7.63575
_cell_length_c       6.22264
_cell_angle_alpha    114.046
_cell_angle_beta     114.046
_cell_angle_gamma    48.0917

_space_group_name_H-M_alt    "P 1"
_space_group_IT_number       1

loop_
  _space_group_symop_operation_xyz
  'x, y, z'

loop_
  _atom_site_type_symbol
  _atom_site_label
  _atom_site_symmetry_multiplicity
  _atom_site_fract_x
  _atom_site_fract_y
  _atom_site_fract_z
  _atom_site_occupancy
  In  In1       1.0  1.00000  0.75000  0.12500  1.0000
  In  In2       1.0  0.25000  0.00000  0.87500  1.0000
  Ir  Ir1       1.0  0.38400  0.61600  0.00000  1.0000
  Ir  Ir2       1.0  0.12500  0.37500  0.25900  1.0000
  Ir  Ir3       1.0  0.86600  0.13400  0.50000  1.0000
  Ir  Ir4       1.0  0.62500  0.87500  0.74100  1.0000
  Sb  Sb1       1.0  0.75000  0.50000  0.37500  1.0000
  Sb  Sb2       1.0  0.50000  0.25000  0.62500  1.0000
  Ta  Ta1       1.0  0.49600  0.24600  0.12100  1.0000
  Ta  Ta2       1.0  0.24600  0.99600  0.37100  1.0000
  Ta  Ta3       1.0  0.00358  0.75400  0.62900  1.0000
  Ta  Ta4       1.0  0.75400  0.50400  0.87900  1.0000
