data_image0
_chemical_formula_structural       Ho2Lu4O8
_chemical_formula_sum              "Ho2 Lu4 O8"
_cell_length_a       6.61253
_cell_length_b       6.61253
_cell_length_c       6.61253
_cell_angle_alpha    90.0127
_cell_angle_beta     119.993
_cell_angle_gamma    119.993

_space_group_name_H-M_alt    "P 1"
_space_group_IT_number       1

loop_
  _space_group_symop_operation_xyz
  'x, y, z'

loop_
  _atom_site_type_symbol
  _atom_site_label
  _atom_site_symmetry_multiplicity
  _atom_site_fract_x
  _atom_site_fract_y
  _atom_site_fract_z
  _atom_site_occupancy
  Ho  Ho1       1.0  0.00000  0.00000  0.00000  1.0000
  Ho  Ho2       1.0  0.50000  0.75000  0.25000  1.0000
  Lu  Lu1       1.0  0.75000  0.37500  0.12500  1.0000
  Lu  Lu2       1.0  0.25000  0.37500  0.62500  1.0000
  Lu  Lu3       1.0  0.25000  0.87500  0.62500  1.0000
  Lu  Lu4       1.0  0.75000  0.37500  0.62500  1.0000
  O   O1        1.0  0.22800  0.61400  0.38600  1.0000
  O   O2        1.0  0.77200  0.15800  0.38600  1.0000
  O   O3        1.0  0.77200  0.61400  0.38600  1.0000
  O   O4        1.0  0.27200  0.13600  0.40800  1.0000
  O   O5        1.0  0.22800  0.61400  0.84200  1.0000
  O   O6        1.0  0.72800  0.13600  0.86400  1.0000
  O   O7        1.0  0.27200  0.13600  0.86400  1.0000
  O   O8        1.0  0.72800  0.59200  0.86400  1.0000
