# generated using pymatgen
data_K(MoO2)4
_symmetry_space_group_name_H-M   'P 1'
_cell_length_a   5.81368600
_cell_length_b   10.37277841
_cell_length_c   10.41673810
_cell_angle_alpha   90.24145097
_cell_angle_beta   90.00000000
_cell_angle_gamma   90.00000000
_symmetry_Int_Tables_number   1
_chemical_formula_structural   K(MoO2)4
_chemical_formula_sum   'K4 Mo16 O32'
_cell_volume   628.16619484
_cell_formula_units_Z   4
loop_
 _symmetry_equiv_pos_site_id
 _symmetry_equiv_pos_as_xyz
  1  'x, y, z'
loop_
 _atom_site_type_symbol
 _atom_site_label
 _atom_site_symmetry_multiplicity
 _atom_site_fract_x
 _atom_site_fract_y
 _atom_site_fract_z
 _atom_site_occupancy
  K  K0  1  0.86994100  0.25000000  0.25000000  1
  K  K1  1  0.13005900  0.75000000  0.75000000  1
  K  K2  1  0.35859800  0.25000000  0.25000000  1
  K  K3  1  0.64140200  0.75000000  0.75000000  1
  Mo  Mo4  1  0.38375400  0.93189200  0.42084300  1
  Mo  Mo5  1  0.38375400  0.56810800  0.07915700  1
  Mo  Mo6  1  0.61624600  0.06810800  0.57915700  1
  Mo  Mo7  1  0.61624600  0.43189200  0.92084300  1
  Mo  Mo8  1  0.16807900  0.07531100  0.59819700  1
  Mo  Mo9  1  0.16807900  0.42468900  0.90180300  1
  Mo  Mo10  1  0.83192100  0.92468900  0.40180300  1
  Mo  Mo11  1  0.83192100  0.57531100  0.09819700  1
  Mo  Mo12  1  0.59553600  0.58307600  0.42652500  1
  Mo  Mo13  1  0.59553600  0.91692400  0.07347500  1
  Mo  Mo14  1  0.40446400  0.41692400  0.57347500  1
  Mo  Mo15  1  0.40446400  0.08307600  0.92652500  1
  Mo  Mo16  1  0.15477000  0.60381800  0.41947200  1
  Mo  Mo17  1  0.15477000  0.89618200  0.08052800  1
  Mo  Mo18  1  0.84523000  0.39618200  0.58052800  1
  Mo  Mo19  1  0.84523000  0.10381800  0.91947200  1
  O  O20  1  0.11789500  0.78732000  0.41675000  1
  O  O21  1  0.11789500  0.71268000  0.08325000  1
  O  O22  1  0.88210500  0.21268000  0.58325000  1
  O  O23  1  0.88210500  0.28732000  0.91675000  1
  O  O24  1  0.38370000  0.21907100  0.58301100  1
  O  O25  1  0.38370000  0.28092900  0.91698900  1
  O  O26  1  0.61630000  0.78092900  0.41698900  1
  O  O27  1  0.61630000  0.71907100  0.08301100  1
  O  O28  1  0.10921800  0.05898900  0.40393700  1
  O  O29  1  0.10921800  0.44101100  0.09606300  1
  O  O30  1  0.89078200  0.94101100  0.59606300  1
  O  O31  1  0.89078200  0.55898900  0.90393700  1
  O  O32  1  0.39396600  0.91875500  0.61899600  1
  O  O33  1  0.39396600  0.58124500  0.88100400  1
  O  O34  1  0.60603400  0.08124500  0.38100400  1
  O  O35  1  0.60603400  0.41875500  0.11899600  1
  O  O36  1  0.12404200  0.08283600  0.79131900  1
  O  O37  1  0.12404200  0.41716400  0.70868100  1
  O  O38  1  0.87595800  0.91716400  0.20868100  1
  O  O39  1  0.87595800  0.58283600  0.29131900  1
  O  O40  1  0.62451500  0.11581000  0.07958300  1
  O  O41  1  0.62451500  0.38419000  0.42041700  1
  O  O42  1  0.37548500  0.88419000  0.92041700  1
  O  O43  1  0.37548500  0.61581000  0.57958300  1
  O  O44  1  0.12392200  0.09255200  0.05195500  1
  O  O45  1  0.12392200  0.40744800  0.44804500  1
  O  O46  1  0.87607800  0.90744800  0.94804500  1
  O  O47  1  0.87607800  0.59255200  0.55195500  1
  O  O48  1  0.62748300  0.08171600  0.77801500  1
  O  O49  1  0.62748300  0.41828400  0.72198500  1
  O  O50  1  0.37251700  0.91828400  0.22198500  1
  O  O51  1  0.37251700  0.58171600  0.27801500  1
