data_image0
_chemical_formula_structural       Hf6Ni6Sb8
_chemical_formula_sum              "Hf6 Ni6 Sb8"
_cell_length_a       7.8666
_cell_length_b       7.8666
_cell_length_c       7.8666
_cell_angle_alpha    109.471
_cell_angle_beta     109.471
_cell_angle_gamma    109.471

_space_group_name_H-M_alt    "P 1"
_space_group_IT_number       1

loop_
  _space_group_symop_operation_xyz
  'x, y, z'

loop_
  _atom_site_type_symbol
  _atom_site_label
  _atom_site_symmetry_multiplicity
  _atom_site_fract_x
  _atom_site_fract_y
  _atom_site_fract_z
  _atom_site_occupancy
  Hf  Hf1       1.0  0.75000  0.87500  0.12500  1.0000
  Hf  Hf2       1.0  0.62500  0.37500  0.25000  1.0000
  Hf  Hf3       1.0  0.25000  0.62500  0.37500  1.0000
  Hf  Hf4       1.0  0.37500  0.25000  0.62500  1.0000
  Hf  Hf5       1.0  0.87500  0.12500  0.75000  1.0000
  Hf  Hf6       1.0  0.12500  0.75000  0.87500  1.0000
  Ni  Ni1       1.0  0.87500  0.25000  0.12500  1.0000
  Ni  Ni2       1.0  0.12500  0.87500  0.25000  1.0000
  Ni  Ni3       1.0  0.62500  0.75000  0.37500  1.0000
  Ni  Ni4       1.0  0.75000  0.37500  0.62500  1.0000
  Ni  Ni5       1.0  0.37500  0.62500  0.75000  1.0000
  Ni  Ni6       1.0  0.25000  0.12500  0.87500  1.0000
  Sb  Sb1       1.0  0.33500  0.50000  0.00000  1.0000
  Sb  Sb2       1.0  0.83500  0.50000  0.00000  1.0000
  Sb  Sb3       1.0  0.16500  0.16500  0.16500  1.0000
  Sb  Sb4       1.0  0.50000  0.00000  0.33500  1.0000
  Sb  Sb5       1.0  1.00000  0.83500  0.50000  1.0000
  Sb  Sb6       1.0  0.00000  0.33500  0.50000  1.0000
  Sb  Sb7       1.0  0.66500  0.66500  0.66500  1.0000
  Sb  Sb8       1.0  0.50000  0.00000  0.83500  1.0000
