data_image0
_chemical_formula_structural       C3Mn3S
_chemical_formula_sum              "C3 Mn3 S1"
_cell_length_a       2.69881
_cell_length_b       5.36273
_cell_length_c       5.39581
_cell_angle_alpha    109.348
_cell_angle_beta     90.0023
_cell_angle_gamma    104.573

_space_group_name_H-M_alt    "P 1"
_space_group_IT_number       1

loop_
  _space_group_symop_operation_xyz
  'x, y, z'

loop_
  _atom_site_type_symbol
  _atom_site_label
  _atom_site_symmetry_multiplicity
  _atom_site_fract_x
  _atom_site_fract_y
  _atom_site_fract_z
  _atom_site_occupancy
  C   C1        1.0  0.65900  0.62300  0.16500  1.0000
  C   C2        1.0  0.73100  0.76700  0.43000  1.0000
  C   C3        1.0  0.87900  0.06280  0.99600  1.0000
  Mn  Mn1       1.0  0.31700  0.93900  0.19500  1.0000
  Mn  Mn2       1.0  0.32200  0.94800  0.70500  1.0000
  Mn  Mn3       1.0  0.04440  0.39300  0.91400  1.0000
  S   S1        1.0  0.50200  0.30900  0.57600  1.0000
