# generated using pymatgen
data_Ba7Ga4Sb9
_symmetry_space_group_name_H-M   'P 1'
_cell_length_a   7.22471500
_cell_length_b   10.98757200
_cell_length_c   18.38533700
_cell_angle_alpha   90.00000000
_cell_angle_beta   90.00000000
_cell_angle_gamma   90.00000000
_symmetry_Int_Tables_number   1
_chemical_formula_structural   Ba7Ga4Sb9
_chemical_formula_sum   'Ba14 Ga8 Sb18'
_cell_volume   1459.46622347
_cell_formula_units_Z   2
loop_
 _symmetry_equiv_pos_site_id
 _symmetry_equiv_pos_as_xyz
  1  'x, y, z'
loop_
 _atom_site_type_symbol
 _atom_site_label
 _atom_site_symmetry_multiplicity
 _atom_site_fract_x
 _atom_site_fract_y
 _atom_site_fract_z
 _atom_site_occupancy
  Ba  Ba0  1  0.92364500  0.50000000  0.00000000  1
  Ba  Ba1  1  0.07635500  0.00000000  0.50000000  1
  Ba  Ba2  1  0.45751900  0.27098300  0.37553100  1
  Ba  Ba3  1  0.45751900  0.72901700  0.62446900  1
  Ba  Ba4  1  0.54248100  0.77098300  0.12446900  1
  Ba  Ba5  1  0.54248100  0.22901700  0.87553100  1
  Ba  Ba6  1  0.54248100  0.22901700  0.12446900  1
  Ba  Ba7  1  0.54248100  0.77098300  0.87553100  1
  Ba  Ba8  1  0.45751900  0.72901700  0.37553100  1
  Ba  Ba9  1  0.45751900  0.27098300  0.62446900  1
  Ba  Ba10  1  0.04095700  0.00000000  0.21399500  1
  Ba  Ba11  1  0.04095700  0.00000000  0.78600500  1
  Ba  Ba12  1  0.95904300  0.50000000  0.28600500  1
  Ba  Ba13  1  0.95904300  0.50000000  0.71399500  1
  Ga  Ga14  1  0.05777800  0.18056300  0.00000000  1
  Ga  Ga15  1  0.05777800  0.81943700  0.00000000  1
  Ga  Ga16  1  0.94222200  0.31943700  0.50000000  1
  Ga  Ga17  1  0.94222200  0.68056300  0.50000000  1
  Ga  Ga18  1  0.74120000  0.00000000  0.37253900  1
  Ga  Ga19  1  0.74120000  0.00000000  0.62746100  1
  Ga  Ga20  1  0.25880000  0.50000000  0.12746100  1
  Ga  Ga21  1  0.25880000  0.50000000  0.87253900  1
  Sb  Sb22  1  0.47936700  0.50000000  0.75706900  1
  Sb  Sb23  1  0.47936700  0.50000000  0.24293100  1
  Sb  Sb24  1  0.95453800  0.78979200  0.36778300  1
  Sb  Sb25  1  0.95453800  0.21020800  0.63221700  1
  Sb  Sb26  1  0.04546200  0.28979200  0.13221700  1
  Sb  Sb27  1  0.04546200  0.71020800  0.86778300  1
  Sb  Sb28  1  0.52063300  0.00000000  0.25706900  1
  Sb  Sb29  1  0.52063300  0.00000000  0.74293100  1
  Sb  Sb30  1  0.21172900  0.50000000  0.50000000  1
  Sb  Sb31  1  0.78827100  0.00000000  0.00000000  1
  Sb  Sb32  1  0.66959600  0.50000000  0.50000000  1
  Sb  Sb33  1  0.33040400  0.00000000  0.00000000  1
  Sb  Sb34  1  0.45618800  0.50000000  0.00000000  1
  Sb  Sb35  1  0.54381200  0.00000000  0.50000000  1
  Sb  Sb36  1  0.95453800  0.78979200  0.63221700  1
  Sb  Sb37  1  0.95453800  0.21020800  0.36778300  1
  Sb  Sb38  1  0.04546200  0.28979200  0.86778300  1
  Sb  Sb39  1  0.04546200  0.71020800  0.13221700  1
