data_image0
_chemical_formula_structural       C3Ca3S
_chemical_formula_sum              "C3 Ca3 S1"
_cell_length_a       3.91552
_cell_length_b       4.15064
_cell_length_c       9.36569
_cell_angle_alpha    86.5723
_cell_angle_beta     77.9927
_cell_angle_gamma    61.895

_space_group_name_H-M_alt    "P 1"
_space_group_IT_number       1

loop_
  _space_group_symop_operation_xyz
  'x, y, z'

loop_
  _atom_site_type_symbol
  _atom_site_label
  _atom_site_symmetry_multiplicity
  _atom_site_fract_x
  _atom_site_fract_y
  _atom_site_fract_z
  _atom_site_occupancy
  C   C1        1.0  0.08430  0.07900  0.10700  1.0000
  C   C2        1.0  0.01730  0.06450  0.25200  1.0000
  C   C3        1.0  0.94500  0.06130  0.39800  1.0000
  Ca  Ca1       1.0  0.33400  0.42400  0.26000  1.0000
  Ca  Ca2       1.0  0.37900  0.00504  0.58700  1.0000
  Ca  Ca3       1.0  0.82500  0.75500  0.94700  1.0000
  S   S1        1.0  0.59700  0.39400  0.76500  1.0000
