data_image0
_chemical_formula_structural       Ge2H4Nd2O8
_chemical_formula_sum              "Ge2 H4 Nd2 O8"
_cell_length_a       6.99312
_cell_length_b       6.35445
_cell_length_c       5.0059
_cell_angle_alpha    90
_cell_angle_beta     120.617
_cell_angle_gamma    90

_space_group_name_H-M_alt    "P 1"
_space_group_IT_number       1

loop_
  _space_group_symop_operation_xyz
  'x, y, z'

loop_
  _atom_site_type_symbol
  _atom_site_label
  _atom_site_symmetry_multiplicity
  _atom_site_fract_x
  _atom_site_fract_y
  _atom_site_fract_z
  _atom_site_occupancy
  Ge  Ge1       1.0  0.72100  0.25000  0.41200  1.0000
  Ge  Ge2       1.0  0.27900  0.75000  0.58800  1.0000
  H   H1        1.0  0.49400  0.75000  0.17100  1.0000
  H   H2        1.0  0.00000  0.00000  0.50000  1.0000
  H   H3        1.0  0.00000  0.50000  0.50000  1.0000
  H   H4        1.0  0.50600  0.25000  0.82900  1.0000
  Nd  Nd1       1.0  0.18600  0.25000  0.13000  1.0000
  Nd  Nd2       1.0  0.81400  0.75000  0.87000  1.0000
  O   O1        1.0  0.54100  0.75000  0.00589  1.0000
  O   O2        1.0  0.06840  0.52800  0.32600  1.0000
  O   O3        1.0  0.06840  0.97200  0.32600  1.0000
  O   O4        1.0  0.45900  0.75000  0.43400  1.0000
  O   O5        1.0  0.54100  0.25000  0.56600  1.0000
  O   O6        1.0  0.93200  0.02780  0.67400  1.0000
  O   O7        1.0  0.93200  0.47200  0.67400  1.0000
  O   O8        1.0  0.45900  0.25000  0.99400  1.0000
