data_image0
_chemical_formula_structural       Bi2Co4Ga2V4
_chemical_formula_sum              "Bi2 Co4 Ga2 V4"
_cell_length_a       7.02074
_cell_length_b       7.02074
_cell_length_c       5.74961
_cell_angle_alpha    114.172
_cell_angle_beta     114.172
_cell_angle_gamma    109.228

_space_group_name_H-M_alt    "P 1"
_space_group_IT_number       1

loop_
  _space_group_symop_operation_xyz
  'x, y, z'

loop_
  _atom_site_type_symbol
  _atom_site_label
  _atom_site_symmetry_multiplicity
  _atom_site_fract_x
  _atom_site_fract_y
  _atom_site_fract_z
  _atom_site_occupancy
  Bi  Bi1       1.0  0.50000  0.50000  0.00000  1.0000
  Bi  Bi2       1.0  0.75000  0.25000  0.50000  1.0000
  Co  Co1       1.0  0.89700  0.64700  0.02160  1.0000
  Co  Co2       1.0  0.12500  0.37500  0.47800  1.0000
  Co  Co3       1.0  0.62500  0.87500  0.52200  1.0000
  Co  Co4       1.0  0.35300  0.10300  0.97800  1.0000
  Ga  Ga1       1.0  0.00000  0.00000  0.00000  1.0000
  Ga  Ga2       1.0  0.25000  0.75000  0.50000  1.0000
  V   V1        1.0  0.76200  0.23800  0.00000  1.0000
  V   V2        1.0  0.23800  0.76200  0.00000  1.0000
  V   V3        1.0  0.48800  0.51200  0.50000  1.0000
  V   V4        1.0  0.01180  0.98800  0.50000  1.0000
