data_image0
_chemical_formula_structural       As8Hf6Pt6
_chemical_formula_sum              "As8 Hf6 Pt6"
_cell_length_a       7.82361
_cell_length_b       7.82361
_cell_length_c       7.82361
_cell_angle_alpha    109.471
_cell_angle_beta     109.471
_cell_angle_gamma    109.471

_space_group_name_H-M_alt    "P 1"
_space_group_IT_number       1

loop_
  _space_group_symop_operation_xyz
  'x, y, z'

loop_
  _atom_site_type_symbol
  _atom_site_label
  _atom_site_symmetry_multiplicity
  _atom_site_fract_x
  _atom_site_fract_y
  _atom_site_fract_z
  _atom_site_occupancy
  As  As1       1.0  0.31200  0.50000  0.00000  1.0000
  As  As2       1.0  0.81200  0.50000  0.00000  1.0000
  As  As3       1.0  0.18800  0.18800  0.18800  1.0000
  As  As4       1.0  0.50000  0.00000  0.31200  1.0000
  As  As5       1.0  0.00000  0.31200  0.50000  1.0000
  As  As6       1.0  0.00000  0.81200  0.50000  1.0000
  As  As7       1.0  0.68800  0.68800  0.68800  1.0000
  As  As8       1.0  0.50000  0.00000  0.81200  1.0000
  Hf  Hf1       1.0  0.75000  0.87500  0.12500  1.0000
  Hf  Hf2       1.0  0.62500  0.37500  0.25000  1.0000
  Hf  Hf3       1.0  0.25000  0.62500  0.37500  1.0000
  Hf  Hf4       1.0  0.37500  0.25000  0.62500  1.0000
  Hf  Hf5       1.0  0.87500  0.12500  0.75000  1.0000
  Hf  Hf6       1.0  0.12500  0.75000  0.87500  1.0000
  Pt  Pt1       1.0  0.87500  0.25000  0.12500  1.0000
  Pt  Pt2       1.0  0.12500  0.87500  0.25000  1.0000
  Pt  Pt3       1.0  0.62500  0.75000  0.37500  1.0000
  Pt  Pt4       1.0  0.75000  0.37500  0.62500  1.0000
  Pt  Pt5       1.0  0.37500  0.62500  0.75000  1.0000
  Pt  Pt6       1.0  0.25000  0.12500  0.87500  1.0000
