# generated using pymatgen
data_Mn2O7
_symmetry_space_group_name_H-M   'P 1'
_cell_length_a   17.84599800
_cell_length_b   7.15065100
_cell_length_c   9.94430159
_cell_angle_alpha   79.22414348
_cell_angle_beta   90.00000000
_cell_angle_gamma   90.00000000
_symmetry_Int_Tables_number   1
_chemical_formula_structural   Mn2O7
_chemical_formula_sum   'Mn16 O56'
_cell_volume   1246.61998957
_cell_formula_units_Z   8
loop_
 _symmetry_equiv_pos_site_id
 _symmetry_equiv_pos_as_xyz
  1  'x, y, z'
loop_
 _atom_site_type_symbol
 _atom_site_label
 _atom_site_symmetry_multiplicity
 _atom_site_fract_x
 _atom_site_fract_y
 _atom_site_fract_z
 _atom_site_occupancy
  Mn  Mn0  1  0.00232500  0.21592100  0.67137600  1
  Mn  Mn1  1  0.50232500  0.78407900  0.82862400  1
  Mn  Mn2  1  0.99767500  0.78407900  0.32862400  1
  Mn  Mn3  1  0.49767500  0.21592100  0.17137600  1
  Mn  Mn4  1  0.00268300  0.79341500  0.82590000  1
  Mn  Mn5  1  0.50268300  0.20658500  0.67410000  1
  Mn  Mn6  1  0.99731700  0.20658500  0.17410000  1
  Mn  Mn7  1  0.49731700  0.79341500  0.32590000  1
  Mn  Mn8  1  0.75347000  0.92795800  0.10900600  1
  Mn  Mn9  1  0.25347000  0.07204200  0.39099400  1
  Mn  Mn10  1  0.24653000  0.07204200  0.89099400  1
  Mn  Mn11  1  0.74653000  0.92795800  0.60900600  1
  Mn  Mn12  1  0.75390500  0.35028500  0.95371800  1
  Mn  Mn13  1  0.25390500  0.64971500  0.54628200  1
  Mn  Mn14  1  0.24609500  0.64971500  0.04628200  1
  Mn  Mn15  1  0.74609500  0.35028500  0.45371800  1
  O  O16  1  0.05311100  0.17168900  0.54994200  1
  O  O17  1  0.55311100  0.82831100  0.95005800  1
  O  O18  1  0.94688900  0.82831100  0.45005800  1
  O  O19  1  0.44688900  0.17168900  0.04994200  1
  O  O20  1  0.93973200  0.36799700  0.61537200  1
  O  O21  1  0.43973200  0.63200300  0.88462800  1
  O  O22  1  0.06026800  0.63200300  0.38462800  1
  O  O23  1  0.56026800  0.36799700  0.11537200  1
  O  O24  1  0.05301100  0.28763100  0.78266900  1
  O  O25  1  0.55301100  0.71236900  0.71733100  1
  O  O26  1  0.94698900  0.71236900  0.21733100  1
  O  O27  1  0.44698900  0.28763100  0.28266900  1
  O  O28  1  0.05669800  0.72841400  0.71644000  1
  O  O29  1  0.55669800  0.27158600  0.78356000  1
  O  O30  1  0.94330200  0.27158600  0.28356000  1
  O  O31  1  0.44330200  0.72841400  0.21644000  1
  O  O32  1  0.79220200  0.13841100  0.52970200  1
  O  O33  1  0.29220200  0.86158900  0.97029800  1
  O  O34  1  0.20779800  0.86158900  0.47029800  1
  O  O35  1  0.70779800  0.13841100  0.02970200  1
  O  O36  1  0.69597600  0.42106900  0.56619800  1
  O  O37  1  0.19597600  0.57893100  0.93380200  1
  O  O38  1  0.30402400  0.57893100  0.43380200  1
  O  O39  1  0.80402400  0.42106900  0.06619800  1
  O  O40  1  0.80832000  0.50292500  0.39713000  1
  O  O41  1  0.30832000  0.49707500  0.10287000  1
  O  O42  1  0.19168000  0.49707500  0.60287000  1
  O  O43  1  0.69168000  0.50292500  0.89713000  1
  O  O44  1  0.69466700  0.30665300  0.33292900  1
  O  O45  1  0.19466700  0.69334700  0.16707100  1
  O  O46  1  0.30533300  0.69334700  0.66707100  1
  O  O47  1  0.80533300  0.30665300  0.83292900  1
  O  O48  1  0.69150500  0.86181100  0.50157200  1
  O  O49  1  0.19150500  0.13818900  0.99842800  1
  O  O50  1  0.30849500  0.13818900  0.49842800  1
  O  O51  1  0.80849500  0.86181100  0.00157200  1
  O  O52  1  0.80896500  0.77214800  0.65721000  1
  O  O53  1  0.30896500  0.22785200  0.84279000  1
  O  O54  1  0.19103500  0.22785200  0.34279000  1
  O  O55  1  0.69103500  0.77214800  0.15721000  1
  O  O56  1  0.70009000  0.97097000  0.73615900  1
  O  O57  1  0.20009000  0.02903000  0.76384100  1
  O  O58  1  0.29991000  0.02903000  0.26384100  1
  O  O59  1  0.79991000  0.97097000  0.23615900  1
  O  O60  1  0.54348700  0.00424000  0.24833500  1
  O  O61  1  0.04348700  0.99576000  0.25166500  1
  O  O62  1  0.45651300  0.99576000  0.75166500  1
  O  O63  1  0.95651300  0.00424000  0.74833500  1
  O  O64  1  0.44970900  0.83550200  0.45193600  1
  O  O65  1  0.94970900  0.16449800  0.04806400  1
  O  O66  1  0.55029100  0.16449800  0.54806400  1
  O  O67  1  0.05029100  0.83550200  0.95193600  1
  O  O68  1  0.55940600  0.63719700  0.37528800  1
  O  O69  1  0.05940600  0.36280300  0.12471200  1
  O  O70  1  0.44059400  0.36280300  0.62471200  1
  O  O71  1  0.94059400  0.63719700  0.87528800  1
