data_image0
_chemical_formula_structural       In2Ni4Sb2Zr4
_chemical_formula_sum              "In2 Ni4 Sb2 Zr4"
_cell_length_a       7.60146
_cell_length_b       7.60146
_cell_length_c       6.17856
_cell_angle_alpha    113.979
_cell_angle_beta     113.979
_cell_angle_gamma    47.9585

_space_group_name_H-M_alt    "P 1"
_space_group_IT_number       1

loop_
  _space_group_symop_operation_xyz
  'x, y, z'

loop_
  _atom_site_type_symbol
  _atom_site_label
  _atom_site_symmetry_multiplicity
  _atom_site_fract_x
  _atom_site_fract_y
  _atom_site_fract_z
  _atom_site_occupancy
  In  In1       1.0  0.00000  0.25000  0.37500  1.0000
  In  In2       1.0  0.75000  0.00000  0.62500  1.0000
  Ni  Ni1       1.0  0.13500  0.86500  0.00000  1.0000
  Ni  Ni2       1.0  0.87500  0.62500  0.24000  1.0000
  Ni  Ni3       1.0  0.61500  0.38500  0.50000  1.0000
  Ni  Ni4       1.0  0.37500  0.12500  0.76000  1.0000
  Sb  Sb1       1.0  0.25000  0.50000  0.12500  1.0000
  Sb  Sb2       1.0  0.50000  0.75000  0.87500  1.0000
  Zr  Zr1       1.0  0.75300  0.00303  0.12800  1.0000
  Zr  Zr2       1.0  0.50300  0.75300  0.37800  1.0000
  Zr  Zr3       1.0  0.24700  0.49700  0.62200  1.0000
  Zr  Zr4       1.0  0.99700  0.24700  0.87200  1.0000
