data_image0
_chemical_formula_structural       La3Ni9
_chemical_formula_sum              "La3 Ni9"
_cell_length_a       5.04336
_cell_length_b       5.04336
_cell_length_c       8.82902
_cell_angle_alpha    73.4045
_cell_angle_beta     106.595
_cell_angle_gamma    120

_space_group_name_H-M_alt    "P 1"
_space_group_IT_number       1

loop_
  _space_group_symop_operation_xyz
  'x, y, z'

loop_
  _atom_site_type_symbol
  _atom_site_label
  _atom_site_symmetry_multiplicity
  _atom_site_fract_x
  _atom_site_fract_y
  _atom_site_fract_z
  _atom_site_occupancy
  La  La1       1.0  0.00000  0.00000  0.00000  1.0000
  La  La2       1.0  0.13800  0.86200  0.41500  1.0000
  La  La3       1.0  0.86200  0.13800  0.58500  1.0000
  Ni  Ni1       1.0  0.66800  0.33200  0.00296  1.0000
  Ni  Ni2       1.0  0.58000  0.42000  0.24300  1.0000
  Ni  Ni3       1.0  0.58000  0.91800  0.24300  1.0000
  Ni  Ni4       1.0  0.08210  0.42000  0.24300  1.0000
  Ni  Ni5       1.0  0.50000  0.50000  0.50000  1.0000
  Ni  Ni6       1.0  0.91800  0.58000  0.75700  1.0000
  Ni  Ni7       1.0  0.42000  0.08210  0.75700  1.0000
  Ni  Ni8       1.0  0.42000  0.58000  0.75700  1.0000
  Ni  Ni9       1.0  0.33200  0.66800  0.99700  1.0000
