data_image0
_chemical_formula_structural       Bi2Ga2Pd4Zr4
_chemical_formula_sum              "Bi2 Ga2 Pd4 Zr4"
_cell_length_a       6.3781
_cell_length_b       6.3781
_cell_length_c       7.78516
_cell_angle_alpha    65.8183
_cell_angle_beta     65.8183
_cell_angle_gamma    90

_space_group_name_H-M_alt    "P 1"
_space_group_IT_number       1

loop_
  _space_group_symop_operation_xyz
  'x, y, z'

loop_
  _atom_site_type_symbol
  _atom_site_label
  _atom_site_symmetry_multiplicity
  _atom_site_fract_x
  _atom_site_fract_y
  _atom_site_fract_z
  _atom_site_occupancy
  Bi  Bi1       1.0  0.50000  0.50000  0.00000  1.0000
  Bi  Bi2       1.0  0.75000  0.25000  0.50000  1.0000
  Ga  Ga1       1.0  0.00000  0.00000  0.00000  1.0000
  Ga  Ga2       1.0  0.25000  0.75000  0.50000  1.0000
  Pd  Pd1       1.0  0.62500  0.11200  0.25000  1.0000
  Pd  Pd2       1.0  0.12500  0.63800  0.25000  1.0000
  Pd  Pd3       1.0  0.36200  0.37500  0.75000  1.0000
  Pd  Pd4       1.0  0.88800  0.87500  0.75000  1.0000
  Zr  Zr1       1.0  0.49400  0.99400  0.01220  1.0000
  Zr  Zr2       1.0  0.75600  0.75600  0.48800  1.0000
  Zr  Zr3       1.0  0.24400  0.24400  0.51200  1.0000
  Zr  Zr4       1.0  0.00610  0.50600  0.98800  1.0000
