data_image0
_chemical_formula_structural       Bi8Hf6Pt6
_chemical_formula_sum              "Bi8 Hf6 Pt6"
_cell_length_a       8.33272
_cell_length_b       8.33272
_cell_length_c       8.33272
_cell_angle_alpha    109.471
_cell_angle_beta     109.471
_cell_angle_gamma    109.471

_space_group_name_H-M_alt    "P 1"
_space_group_IT_number       1

loop_
  _space_group_symop_operation_xyz
  'x, y, z'

loop_
  _atom_site_type_symbol
  _atom_site_label
  _atom_site_symmetry_multiplicity
  _atom_site_fract_x
  _atom_site_fract_y
  _atom_site_fract_z
  _atom_site_occupancy
  Bi  Bi1       1.0  0.80300  0.50000  0.00000  1.0000
  Bi  Bi2       1.0  0.30300  0.50000  0.00000  1.0000
  Bi  Bi3       1.0  0.19700  0.19700  0.19700  1.0000
  Bi  Bi4       1.0  0.50000  0.00000  0.30300  1.0000
  Bi  Bi5       1.0  0.00000  0.80300  0.50000  1.0000
  Bi  Bi6       1.0  0.00000  0.30300  0.50000  1.0000
  Bi  Bi7       1.0  0.69700  0.69700  0.69700  1.0000
  Bi  Bi8       1.0  0.50000  0.00000  0.80300  1.0000
  Hf  Hf1       1.0  0.75000  0.87500  0.12500  1.0000
  Hf  Hf2       1.0  0.62500  0.37500  0.25000  1.0000
  Hf  Hf3       1.0  0.25000  0.62500  0.37500  1.0000
  Hf  Hf4       1.0  0.37500  0.25000  0.62500  1.0000
  Hf  Hf5       1.0  0.87500  0.12500  0.75000  1.0000
  Hf  Hf6       1.0  0.12500  0.75000  0.87500  1.0000
  Pt  Pt1       1.0  0.87500  0.25000  0.12500  1.0000
  Pt  Pt2       1.0  0.12500  0.87500  0.25000  1.0000
  Pt  Pt3       1.0  0.62500  0.75000  0.37500  1.0000
  Pt  Pt4       1.0  0.75000  0.37500  0.62500  1.0000
  Pt  Pt5       1.0  0.37500  0.62500  0.75000  1.0000
  Pt  Pt6       1.0  0.25000  0.12500  0.87500  1.0000
