data_image0
_chemical_formula_structural       FeS4V2
_chemical_formula_sum              "Fe1 S4 V2"
_cell_length_a       3.18083
_cell_length_b       5.78669
_cell_length_c       6.2429
_cell_angle_alpha    114.848
_cell_angle_beta     104.759
_cell_angle_gamma    90

_space_group_name_H-M_alt    "P 1"
_space_group_IT_number       1

loop_
  _space_group_symop_operation_xyz
  'x, y, z'

loop_
  _atom_site_type_symbol
  _atom_site_label
  _atom_site_symmetry_multiplicity
  _atom_site_fract_x
  _atom_site_fract_y
  _atom_site_fract_z
  _atom_site_occupancy
  Fe  Fe1       1.0  0.00000  0.00000  0.00000  1.0000
  S   S1        1.0  0.10400  0.43700  0.20700  1.0000
  S   S2        1.0  0.63700  0.97700  0.27300  1.0000
  S   S3        1.0  0.36300  0.02320  0.72700  1.0000
  S   S4        1.0  0.89600  0.56300  0.79300  1.0000
  V   V1        1.0  0.74000  0.68600  0.48000  1.0000
  V   V2        1.0  0.26000  0.31400  0.52000  1.0000
