data_image0
_chemical_formula_structural       Be3C3S
_chemical_formula_sum              "Be3 C3 S1"
_cell_length_a       3.31019
_cell_length_b       5.18034
_cell_length_c       5.82509
_cell_angle_alpha    114.932
_cell_angle_beta     90.0226
_cell_angle_gamma    108.588

_space_group_name_H-M_alt    "P 1"
_space_group_IT_number       1

loop_
  _space_group_symop_operation_xyz
  'x, y, z'

loop_
  _atom_site_type_symbol
  _atom_site_label
  _atom_site_symmetry_multiplicity
  _atom_site_fract_x
  _atom_site_fract_y
  _atom_site_fract_z
  _atom_site_occupancy
  Be  Be1       1.0  0.23200  0.63000  0.36900  1.0000
  Be  Be2       1.0  0.96400  0.09510  0.56900  1.0000
  Be  Be3       1.0  0.62900  0.42400  0.78200  1.0000
  C   C1        1.0  0.15800  0.48300  0.64200  1.0000
  C   C2        1.0  0.43200  0.03060  0.68900  1.0000
  C   C3        1.0  0.30600  0.77800  0.71400  1.0000
  S   S1        1.0  0.75400  0.67500  0.19000  1.0000
