data_image0
_chemical_formula_structural       In2Pd4Sb2Zr4
_chemical_formula_sum              "In2 Pd4 Sb2 Zr4"
_cell_length_a       6.44387
_cell_length_b       6.44387
_cell_length_c       7.99538
_cell_angle_alpha    66.2357
_cell_angle_beta     66.2357
_cell_angle_gamma    90

_space_group_name_H-M_alt    "P 1"
_space_group_IT_number       1

loop_
  _space_group_symop_operation_xyz
  'x, y, z'

loop_
  _atom_site_type_symbol
  _atom_site_label
  _atom_site_symmetry_multiplicity
  _atom_site_fract_x
  _atom_site_fract_y
  _atom_site_fract_z
  _atom_site_occupancy
  In  In1       1.0  0.00000  0.00000  0.00000  1.0000
  In  In2       1.0  0.25000  0.75000  0.50000  1.0000
  Pd  Pd1       1.0  0.12500  0.62000  0.25000  1.0000
  Pd  Pd2       1.0  0.62500  0.13000  0.25000  1.0000
  Pd  Pd3       1.0  0.38000  0.37500  0.75000  1.0000
  Pd  Pd4       1.0  0.87000  0.87500  0.75000  1.0000
  Sb  Sb1       1.0  0.50000  0.50000  0.00000  1.0000
  Sb  Sb2       1.0  0.75000  0.25000  0.50000  1.0000
  Zr  Zr1       1.0  0.49700  0.99700  0.00557  1.0000
  Zr  Zr2       1.0  0.75300  0.75300  0.49400  1.0000
  Zr  Zr3       1.0  0.24700  0.24700  0.50600  1.0000
  Zr  Zr4       1.0  0.00279  0.50300  0.99400  1.0000
