data_image0
_chemical_formula_structural       Li3P2Sb3
_chemical_formula_sum              "Li3 P2 Sb3"
_cell_length_a       3.20028
_cell_length_b       4.72678
_cell_length_c       11.8823
_cell_angle_alpha    95.4167
_cell_angle_beta     97.5973
_cell_angle_gamma    90.0829

_space_group_name_H-M_alt    "P 1"
_space_group_IT_number       1

loop_
  _space_group_symop_operation_xyz
  'x, y, z'

loop_
  _atom_site_type_symbol
  _atom_site_label
  _atom_site_symmetry_multiplicity
  _atom_site_fract_x
  _atom_site_fract_y
  _atom_site_fract_z
  _atom_site_occupancy
  Li  Li1       1.0  0.05180  0.47100  0.11100  1.0000
  Li  Li2       1.0  0.65500  0.29400  0.32600  1.0000
  Li  Li3       1.0  0.97000  0.96400  0.94900  1.0000
  P   P1        1.0  0.08150  0.98200  0.17000  1.0000
  P   P2        1.0  0.62600  0.78500  0.26200  1.0000
  Sb  Sb1       1.0  0.25500  0.49700  0.52500  1.0000
  Sb  Sb2       1.0  0.33000  0.06620  0.68300  1.0000
  Sb  Sb3       1.0  0.44600  0.45600  0.90000  1.0000
