data_image0
_chemical_formula_structural       Be4Mn4O4Se4
_chemical_formula_sum              "Be4 Mn4 O4 Se4"
_cell_length_a       5.33636
_cell_length_b       8.36023
_cell_length_c       5.0331
_cell_angle_alpha    90
_cell_angle_beta     90
_cell_angle_gamma    90

_space_group_name_H-M_alt    "P 1"
_space_group_IT_number       1

loop_
  _space_group_symop_operation_xyz
  'x, y, z'

loop_
  _atom_site_type_symbol
  _atom_site_label
  _atom_site_symmetry_multiplicity
  _atom_site_fract_x
  _atom_site_fract_y
  _atom_site_fract_z
  _atom_site_occupancy
  Be  Be1       1.0  0.38400  0.04200  0.03020  1.0000
  Be  Be2       1.0  0.88400  0.95800  0.03020  1.0000
  Be  Be3       1.0  0.11600  0.04200  0.53000  1.0000
  Be  Be4       1.0  0.61600  0.95800  0.53000  1.0000
  Mn  Mn1       1.0  0.48400  0.32200  0.42400  1.0000
  Mn  Mn2       1.0  0.98400  0.67800  0.42400  1.0000
  Mn  Mn3       1.0  0.01590  0.32200  0.92400  1.0000
  Mn  Mn4       1.0  0.51600  0.67800  0.92400  1.0000
  O   O1        1.0  0.38700  0.04430  0.37000  1.0000
  O   O2        1.0  0.88700  0.95600  0.37000  1.0000
  O   O3        1.0  0.11300  0.04430  0.87000  1.0000
  O   O4        1.0  0.61300  0.95600  0.87000  1.0000
  Se  Se1       1.0  0.98600  0.33300  0.42500  1.0000
  Se  Se2       1.0  0.48600  0.66700  0.42500  1.0000
  Se  Se3       1.0  0.51400  0.33300  0.92500  1.0000
  Se  Se4       1.0  0.01430  0.66700  0.92500  1.0000
