data_image0
_chemical_formula_structural       Bi4Co4La2Nb2
_chemical_formula_sum              "Bi4 Co4 La2 Nb2"
_cell_length_a       6.42666
_cell_length_b       4.45349
_cell_length_c       9.11652
_cell_angle_alpha    90
_cell_angle_beta     90
_cell_angle_gamma    90

_space_group_name_H-M_alt    "P 1"
_space_group_IT_number       1

loop_
  _space_group_symop_operation_xyz
  'x, y, z'

loop_
  _atom_site_type_symbol
  _atom_site_label
  _atom_site_symmetry_multiplicity
  _atom_site_fract_x
  _atom_site_fract_y
  _atom_site_fract_z
  _atom_site_occupancy
  Bi  Bi1       1.0  0.98000  0.50000  0.11600  1.0000
  Bi  Bi2       1.0  0.51000  0.00000  0.35300  1.0000
  Bi  Bi3       1.0  0.01030  0.50000  0.64700  1.0000
  Bi  Bi4       1.0  0.48000  0.00000  0.88400  1.0000
  Co  Co1       1.0  0.73300  0.00000  0.10500  1.0000
  Co  Co2       1.0  0.28100  0.50000  0.33200  1.0000
  Co  Co3       1.0  0.78100  0.00000  0.66800  1.0000
  Co  Co4       1.0  0.23300  0.50000  0.89500  1.0000
  La  La1       1.0  0.00879  0.00000  0.37900  1.0000
  La  La2       1.0  0.50900  0.50000  0.62100  1.0000
  Nb  Nb1       1.0  0.48700  0.50000  0.11700  1.0000
  Nb  Nb2       1.0  0.98700  0.00000  0.88300  1.0000
