data_image0
_chemical_formula_structural       Sb4Zn6
_chemical_formula_sum              "Sb4 Zn6"
_cell_length_a       4.76857
_cell_length_b       7.08043
_cell_length_c       7.08043
_cell_angle_alpha    90
_cell_angle_beta     90
_cell_angle_gamma    90

_space_group_name_H-M_alt    "P 1"
_space_group_IT_number       1

loop_
  _space_group_symop_operation_xyz
  'x, y, z'

loop_
  _atom_site_type_symbol
  _atom_site_label
  _atom_site_symmetry_multiplicity
  _atom_site_fract_x
  _atom_site_fract_y
  _atom_site_fract_z
  _atom_site_occupancy
  Sb  Sb1       1.0  0.77400  0.74000  0.24000  1.0000
  Sb  Sb2       1.0  0.22600  0.24000  0.26000  1.0000
  Sb  Sb3       1.0  0.22600  0.76000  0.74000  1.0000
  Sb  Sb4       1.0  0.77400  0.26000  0.76000  1.0000
  Zn  Zn1       1.0  0.50000  0.00000  0.00000  1.0000
  Zn  Zn2       1.0  0.73600  0.36600  0.13400  1.0000
  Zn  Zn3       1.0  0.26400  0.86600  0.36600  1.0000
  Zn  Zn4       1.0  0.50000  0.50000  0.50000  1.0000
  Zn  Zn5       1.0  0.26400  0.13400  0.63400  1.0000
  Zn  Zn6       1.0  0.73600  0.63400  0.86600  1.0000
