data_image0
_chemical_formula_structural       Cs2O8Ru4
_chemical_formula_sum              "Cs2 O8 Ru4"
_cell_length_a       6.61196
_cell_length_b       6.61196
_cell_length_c       6.61115
_cell_angle_alpha    119.996
_cell_angle_beta     119.996
_cell_angle_gamma    59.9919

_space_group_name_H-M_alt    "P 1"
_space_group_IT_number       1

loop_
  _space_group_symop_operation_xyz
  'x, y, z'

loop_
  _atom_site_type_symbol
  _atom_site_label
  _atom_site_symmetry_multiplicity
  _atom_site_fract_x
  _atom_site_fract_y
  _atom_site_fract_z
  _atom_site_occupancy
  Cs  Cs1       1.0  0.00000  0.00000  0.00000  1.0000
  Cs  Cs2       1.0  0.25000  0.25000  0.75000  1.0000
  O   O1        1.0  0.84100  0.84100  0.15900  1.0000
  O   O2        1.0  0.84100  0.47700  0.15900  1.0000
  O   O3        1.0  0.47700  0.84100  0.15900  1.0000
  O   O4        1.0  0.40900  0.40900  0.22700  1.0000
  O   O5        1.0  0.84100  0.84100  0.52300  1.0000
  O   O6        1.0  0.77300  0.40900  0.59100  1.0000
  O   O7        1.0  0.40900  0.77300  0.59100  1.0000
  O   O8        1.0  0.40900  0.40900  0.59100  1.0000
  Ru  Ru1       1.0  0.62500  0.62500  0.37500  1.0000
  Ru  Ru2       1.0  0.62500  0.12500  0.37500  1.0000
  Ru  Ru3       1.0  0.12500  0.62500  0.37500  1.0000
  Ru  Ru4       1.0  0.62500  0.62500  0.87500  1.0000
