data_image0
_chemical_formula_structural       Ni5Sb4Ti5
_chemical_formula_sum              "Ni5 Sb4 Ti5"
_cell_length_a       5.92448
_cell_length_b       7.15243
_cell_length_c       7.15243
_cell_angle_alpha    80.1233
_cell_angle_beta     65.5336
_cell_angle_gamma    65.5336

_space_group_name_H-M_alt    "P 1"
_space_group_IT_number       1

loop_
  _space_group_symop_operation_xyz
  'x, y, z'

loop_
  _atom_site_type_symbol
  _atom_site_label
  _atom_site_symmetry_multiplicity
  _atom_site_fract_x
  _atom_site_fract_y
  _atom_site_fract_z
  _atom_site_occupancy
  Ni  Ni1       1.0  0.34800  0.69300  0.09740  1.0000
  Ni  Ni2       1.0  0.55400  0.09740  0.30700  1.0000
  Ni  Ni3       1.0  0.75000  0.50000  0.50000  1.0000
  Ni  Ni4       1.0  0.95800  0.90300  0.69300  1.0000
  Ni  Ni5       1.0  0.13900  0.30700  0.90300  1.0000
  Sb  Sb1       1.0  0.69500  0.39700  0.20700  1.0000
  Sb  Sb2       1.0  0.90800  0.79300  0.39700  1.0000
  Sb  Sb3       1.0  0.09770  0.20700  0.60300  1.0000
  Sb  Sb4       1.0  0.30000  0.60300  0.79300  1.0000
  Ti  Ti1       1.0  0.00000  0.00000  0.00000  1.0000
  Ti  Ti2       1.0  0.22200  0.36500  0.18400  1.0000
  Ti  Ti3       1.0  0.41300  0.81600  0.36500  1.0000
  Ti  Ti4       1.0  0.59300  0.18400  0.63500  1.0000
  Ti  Ti5       1.0  0.77200  0.63500  0.81600  1.0000
