data_image0
_chemical_formula_structural       C2N2NiS2
_chemical_formula_sum              "C2 N2 Ni1 S2"
_cell_length_a       3.60798
_cell_length_b       5.49977
_cell_length_c       6.09567
_cell_angle_alpha    105.579
_cell_angle_beta     90
_cell_angle_gamma    109.148

_space_group_name_H-M_alt    "P 1"
_space_group_IT_number       1

loop_
  _space_group_symop_operation_xyz
  'x, y, z'

loop_
  _atom_site_type_symbol
  _atom_site_label
  _atom_site_symmetry_multiplicity
  _atom_site_fract_x
  _atom_site_fract_y
  _atom_site_fract_z
  _atom_site_occupancy
  C   C1        1.0  0.76500  0.52900  0.21300  1.0000
  C   C2        1.0  0.23500  0.47100  0.78700  1.0000
  N   N1        1.0  0.86800  0.73600  0.17000  1.0000
  N   N2        1.0  0.13200  0.26400  0.83000  1.0000
  Ni  Ni1       1.0  0.00000  0.00000  0.00000  1.0000
  S   S1        1.0  0.61700  0.23500  0.26200  1.0000
  S   S2        1.0  0.38300  0.76500  0.73800  1.0000
