data_image0
_chemical_formula_structural       Nb5Rh5Sb4
_chemical_formula_sum              "Nb5 Rh5 Sb4"
_cell_length_a       6.1951
_cell_length_b       7.49734
_cell_length_c       7.49734
_cell_angle_alpha    80.1717
_cell_angle_beta     65.5969
_cell_angle_gamma    65.5969

_space_group_name_H-M_alt    "P 1"
_space_group_IT_number       1

loop_
  _space_group_symop_operation_xyz
  'x, y, z'

loop_
  _atom_site_type_symbol
  _atom_site_label
  _atom_site_symmetry_multiplicity
  _atom_site_fract_x
  _atom_site_fract_y
  _atom_site_fract_z
  _atom_site_occupancy
  Nb  Nb1       1.0  0.34400  0.69200  0.11900  1.0000
  Nb  Nb2       1.0  0.53700  0.11900  0.30800  1.0000
  Nb  Nb3       1.0  0.75000  0.50000  0.50000  1.0000
  Nb  Nb4       1.0  0.96400  0.88100  0.69200  1.0000
  Nb  Nb5       1.0  0.15500  0.30800  0.88100  1.0000
  Rh  Rh1       1.0  0.50000  0.00000  0.00000  1.0000
  Rh  Rh2       1.0  0.70200  0.40200  0.19700  1.0000
  Rh  Rh3       1.0  0.89600  0.80300  0.40200  1.0000
  Rh  Rh4       1.0  0.10200  0.19700  0.59800  1.0000
  Rh  Rh5       1.0  0.30000  0.59800  0.80300  1.0000
  Sb  Sb1       1.0  0.84600  0.70500  0.10300  1.0000
  Sb  Sb2       1.0  0.05070  0.10300  0.29500  1.0000
  Sb  Sb3       1.0  0.44900  0.89700  0.70500  1.0000
  Sb  Sb4       1.0  0.65400  0.29500  0.89700  1.0000
