data_image0
_chemical_formula_structural       Pd6Sb8Zr6
_chemical_formula_sum              "Pd6 Sb8 Zr6"
_cell_length_a       8.17818
_cell_length_b       8.17818
_cell_length_c       8.17817
_cell_angle_alpha    109.471
_cell_angle_beta     109.471
_cell_angle_gamma    109.471

_space_group_name_H-M_alt    "P 1"
_space_group_IT_number       1

loop_
  _space_group_symop_operation_xyz
  'x, y, z'

loop_
  _atom_site_type_symbol
  _atom_site_label
  _atom_site_symmetry_multiplicity
  _atom_site_fract_x
  _atom_site_fract_y
  _atom_site_fract_z
  _atom_site_occupancy
  Pd  Pd1       1.0  0.87500  0.25000  0.12500  1.0000
  Pd  Pd2       1.0  0.12500  0.87500  0.25000  1.0000
  Pd  Pd3       1.0  0.62500  0.75000  0.37500  1.0000
  Pd  Pd4       1.0  0.75000  0.37500  0.62500  1.0000
  Pd  Pd5       1.0  0.37500  0.62500  0.75000  1.0000
  Pd  Pd6       1.0  0.25000  0.12500  0.87500  1.0000
  Sb  Sb1       1.0  0.81800  0.50000  0.00000  1.0000
  Sb  Sb2       1.0  0.31800  0.50000  0.00000  1.0000
  Sb  Sb3       1.0  0.18200  0.18200  0.18200  1.0000
  Sb  Sb4       1.0  0.50000  0.00000  0.31800  1.0000
  Sb  Sb5       1.0  0.00000  0.81800  0.50000  1.0000
  Sb  Sb6       1.0  0.00000  0.31800  0.50000  1.0000
  Sb  Sb7       1.0  0.68200  0.68200  0.68200  1.0000
  Sb  Sb8       1.0  0.50000  0.00000  0.81800  1.0000
  Zr  Zr1       1.0  0.75000  0.87500  0.12500  1.0000
  Zr  Zr2       1.0  0.62500  0.37500  0.25000  1.0000
  Zr  Zr3       1.0  0.25000  0.62500  0.37500  1.0000
  Zr  Zr4       1.0  0.37500  0.25000  0.62500  1.0000
  Zr  Zr5       1.0  0.87500  0.12500  0.75000  1.0000
  Zr  Zr6       1.0  0.12500  0.75000  0.87500  1.0000
