# generated using pymatgen
data_Ba2Fe3F10
_symmetry_space_group_name_H-M   'P 1'
_cell_length_a   6.31583500
_cell_length_b   8.09136800
_cell_length_c   18.87363386
_cell_angle_alpha   68.58075113
_cell_angle_beta   90.00000000
_cell_angle_gamma   90.00000000
_symmetry_Int_Tables_number   1
_chemical_formula_structural   Ba2Fe3F10
_chemical_formula_sum   'Ba8 Fe12 F40'
_cell_volume   897.89750492
_cell_formula_units_Z   4
loop_
 _symmetry_equiv_pos_site_id
 _symmetry_equiv_pos_as_xyz
  1  'x, y, z'
loop_
 _atom_site_type_symbol
 _atom_site_label
 _atom_site_symmetry_multiplicity
 _atom_site_fract_x
 _atom_site_fract_y
 _atom_site_fract_z
 _atom_site_occupancy
  Ba  Ba0  1  0.99452500  0.18851400  0.21504000  1
  Ba  Ba1  1  0.49452500  0.81148600  0.28496000  1
  Ba  Ba2  1  0.00547500  0.81148600  0.78496000  1
  Ba  Ba3  1  0.50547500  0.18851400  0.71504000  1
  Ba  Ba4  1  0.01364000  0.78251200  0.11331200  1
  Ba  Ba5  1  0.51364000  0.21748800  0.38668800  1
  Ba  Ba6  1  0.98636000  0.21748800  0.88668800  1
  Ba  Ba7  1  0.48636000  0.78251200  0.61331200  1
  Fe  Fe8  1  0.75624200  0.50661100  0.99920300  1
  Fe  Fe9  1  0.25624200  0.49338900  0.50079700  1
  Fe  Fe10  1  0.24375800  0.49338900  0.00079700  1
  Fe  Fe11  1  0.74375800  0.50661100  0.49920300  1
  Fe  Fe12  1  0.00408500  0.51483900  0.32185600  1
  Fe  Fe13  1  0.50408500  0.48516100  0.17814400  1
  Fe  Fe14  1  0.99591500  0.48516100  0.67814400  1
  Fe  Fe15  1  0.49591500  0.51483900  0.82185600  1
  Fe  Fe16  1  0.00368900  0.95785600  0.42266000  1
  Fe  Fe17  1  0.50368900  0.04214400  0.07734000  1
  Fe  Fe18  1  0.99631100  0.04214400  0.57734000  1
  Fe  Fe19  1  0.49631100  0.95785600  0.92266000  1
  F  F20  1  0.24997900  0.44506400  0.25854500  1
  F  F21  1  0.74997900  0.55493600  0.24145500  1
  F  F22  1  0.75002100  0.55493600  0.74145500  1
  F  F23  1  0.25002100  0.44506400  0.75854500  1
  F  F24  1  0.27922000  0.01377000  0.99319700  1
  F  F25  1  0.77922000  0.98623000  0.50680300  1
  F  F26  1  0.72078000  0.98623000  0.00680300  1
  F  F27  1  0.22078000  0.01377000  0.49319700  1
  F  F28  1  0.07156700  0.76956200  0.26233500  1
  F  F29  1  0.57156700  0.23043800  0.23766500  1
  F  F30  1  0.92843300  0.23043800  0.73766500  1
  F  F31  1  0.42843300  0.76956200  0.76233500  1
  F  F32  1  0.99314800  0.31057100  0.01656900  1
  F  F33  1  0.49314800  0.68942900  0.48343100  1
  F  F34  1  0.00701600  0.68275100  0.47596700  1
  F  F35  1  0.00685200  0.68942900  0.98343100  1
  F  F36  1  0.94700700  0.24791800  0.36199800  1
  F  F37  1  0.44700700  0.75208200  0.13800200  1
  F  F38  1  0.05299300  0.75208200  0.63800200  1
  F  F39  1  0.55299300  0.24791800  0.86199800  1
  F  F40  1  0.26157100  0.46728900  0.61300100  1
  F  F41  1  0.76157100  0.53271100  0.88699900  1
  F  F42  1  0.73842900  0.53271100  0.38699900  1
  F  F43  1  0.23842900  0.46728900  0.11300100  1
  F  F44  1  0.72669900  0.48913000  0.61039300  1
  F  F45  1  0.22669900  0.51087000  0.88960700  1
  F  F46  1  0.27330100  0.51087000  0.38960700  1
  F  F47  1  0.77330100  0.48913000  0.11039300  1
  F  F48  1  0.72836400  0.95627500  0.85015200  1
  F  F49  1  0.22836400  0.04372500  0.64984800  1
  F  F50  1  0.27163600  0.04372500  0.14984800  1
  F  F51  1  0.77163600  0.95627500  0.35015200  1
  F  F52  1  0.25239500  0.00623300  0.84127300  1
  F  F53  1  0.75239500  0.99376700  0.65872700  1
  F  F54  1  0.74760500  0.99376700  0.15872700  1
  F  F55  1  0.24760500  0.00623300  0.34127300  1
  F  F56  1  0.49298400  0.68275100  0.97596700  1
  F  F57  1  0.99298400  0.31724900  0.52403300  1
  F  F58  1  0.50701600  0.31724900  0.02403300  1
  F  F59  1  0.50685200  0.31057100  0.51656900  1
