data_image0
_chemical_formula_structural       Co2Gd2O2Te2
_chemical_formula_sum              "Co2 Gd2 O2 Te2"
_cell_length_a       5.15682
_cell_length_b       5.15682
_cell_length_c       8.45103
_cell_angle_alpha    72.2358
_cell_angle_beta     107.764
_cell_angle_gamma    120

_space_group_name_H-M_alt    "P 1"
_space_group_IT_number       1

loop_
  _space_group_symop_operation_xyz
  'x, y, z'

loop_
  _atom_site_type_symbol
  _atom_site_label
  _atom_site_symmetry_multiplicity
  _atom_site_fract_x
  _atom_site_fract_y
  _atom_site_fract_z
  _atom_site_occupancy
  Co  Co1       1.0  0.38500  0.61500  0.15500  1.0000
  Co  Co2       1.0  0.61500  0.38500  0.84500  1.0000
  Gd  Gd1       1.0  0.77600  0.22400  0.32900  1.0000
  Gd  Gd2       1.0  0.22400  0.77600  0.67100  1.0000
  O   O1        1.0  0.69200  0.30800  0.07640  1.0000
  O   O2        1.0  0.30800  0.69200  0.92400  1.0000
  Te  Te1       1.0  0.08510  0.91500  0.25500  1.0000
  Te  Te2       1.0  0.91500  0.08510  0.74500  1.0000
