data_image0
_chemical_formula_structural       Cs2O2Se2V2
_chemical_formula_sum              "Cs2 O2 Se2 V2"
_cell_length_a       6.69064
_cell_length_b       4.112
_cell_length_c       8.42974
_cell_angle_alpha    90
_cell_angle_beta     90
_cell_angle_gamma    90

_space_group_name_H-M_alt    "P 1"
_space_group_IT_number       1

loop_
  _space_group_symop_operation_xyz
  'x, y, z'

loop_
  _atom_site_type_symbol
  _atom_site_label
  _atom_site_symmetry_multiplicity
  _atom_site_fract_x
  _atom_site_fract_y
  _atom_site_fract_z
  _atom_site_occupancy
  Cs  Cs1       1.0  0.09470  0.00000  0.19500  1.0000
  Cs  Cs2       1.0  0.59500  0.00000  0.80500  1.0000
  O   O1        1.0  0.25600  0.50000  0.44700  1.0000
  O   O2        1.0  0.75600  0.50000  0.55300  1.0000
  Se  Se1       1.0  0.59100  0.00000  0.23500  1.0000
  Se  Se2       1.0  0.09150  0.00000  0.76500  1.0000
  V   V1        1.0  0.54900  0.50000  0.40700  1.0000
  V   V2        1.0  0.04900  0.50000  0.59300  1.0000
