data_image0
_chemical_formula_structural       Ba2N2Nb2O2
_chemical_formula_sum              "Ba2 N2 Nb2 O2"
_cell_length_a       4.03151
_cell_length_b       6.07105
_cell_length_c       6.03242
_cell_angle_alpha    90.0002
_cell_angle_beta     90
_cell_angle_gamma    90

_space_group_name_H-M_alt    "P 1"
_space_group_IT_number       1

loop_
  _space_group_symop_operation_xyz
  'x, y, z'

loop_
  _atom_site_type_symbol
  _atom_site_label
  _atom_site_symmetry_multiplicity
  _atom_site_fract_x
  _atom_site_fract_y
  _atom_site_fract_z
  _atom_site_occupancy
  Ba  Ba1       1.0  0.50000  0.00068  0.23300  1.0000
  Ba  Ba2       1.0  0.50000  0.50100  0.76700  1.0000
  N   N1        1.0  0.00000  0.25100  0.50000  1.0000
  N   N2        1.0  0.00000  0.75100  0.50000  1.0000
  Nb  Nb1       1.0  0.00000  0.50100  0.29100  1.0000
  Nb  Nb2       1.0  0.00000  0.00125  0.70900  1.0000
  O   O1        1.0  0.50000  0.50100  0.22000  1.0000
  O   O2        1.0  0.50000  0.00089  0.78000  1.0000
