data_image0
_chemical_formula_structural       Mo2N2Nb2O2
_chemical_formula_sum              "Mo2 N2 Nb2 O2"
_cell_length_a       3.02708
_cell_length_b       6.50617
_cell_length_c       5.04792
_cell_angle_alpha    90
_cell_angle_beta     90
_cell_angle_gamma    90

_space_group_name_H-M_alt    "P 1"
_space_group_IT_number       1

loop_
  _space_group_symop_operation_xyz
  'x, y, z'

loop_
  _atom_site_type_symbol
  _atom_site_label
  _atom_site_symmetry_multiplicity
  _atom_site_fract_x
  _atom_site_fract_y
  _atom_site_fract_z
  _atom_site_occupancy
  Mo  Mo1       1.0  0.50000  0.02460  0.17900  1.0000
  Mo  Mo2       1.0  0.50000  0.52500  0.82100  1.0000
  N   N1        1.0  0.00000  0.85000  0.32300  1.0000
  N   N2        1.0  0.00000  0.35000  0.67700  1.0000
  Nb  Nb1       1.0  0.00000  0.54100  0.32900  1.0000
  Nb  Nb2       1.0  0.00000  0.04080  0.67100  1.0000
  O   O1        1.0  0.50000  0.33900  0.17800  1.0000
  O   O2        1.0  0.50000  0.83900  0.82200  1.0000
