data_image0
_chemical_formula_structural       Cs2Fe2O2Se2
_chemical_formula_sum              "Cs2 Fe2 O2 Se2"
_cell_length_a       3.98855
_cell_length_b       8.37406
_cell_length_c       6.66649
_cell_angle_alpha    90
_cell_angle_beta     90
_cell_angle_gamma    90

_space_group_name_H-M_alt    "P 1"
_space_group_IT_number       1

loop_
  _space_group_symop_operation_xyz
  'x, y, z'

loop_
  _atom_site_type_symbol
  _atom_site_label
  _atom_site_symmetry_multiplicity
  _atom_site_fract_x
  _atom_site_fract_y
  _atom_site_fract_z
  _atom_site_occupancy
  Cs  Cs1       1.0  0.00000  0.29500  0.09250  1.0000
  Cs  Cs2       1.0  0.00000  0.70500  0.59200  1.0000
  Fe  Fe1       1.0  0.50000  0.90300  0.04320  1.0000
  Fe  Fe2       1.0  0.50000  0.09710  0.54300  1.0000
  O   O1        1.0  0.50000  0.04530  0.26300  1.0000
  O   O2        1.0  0.50000  0.95500  0.76300  1.0000
  Se  Se1       1.0  0.00000  0.72700  0.09220  1.0000
  Se  Se2       1.0  0.00000  0.27300  0.59200  1.0000
