data_image0
_chemical_formula_structural       N2O2Sr2Zn2
_chemical_formula_sum              "N2 O2 Sr2 Zn2"
_cell_length_a       3.56467
_cell_length_b       5.33789
_cell_length_c       6.25995
_cell_angle_alpha    90
_cell_angle_beta     90
_cell_angle_gamma    90

_space_group_name_H-M_alt    "P 1"
_space_group_IT_number       1

loop_
  _space_group_symop_operation_xyz
  'x, y, z'

loop_
  _atom_site_type_symbol
  _atom_site_label
  _atom_site_symmetry_multiplicity
  _atom_site_fract_x
  _atom_site_fract_y
  _atom_site_fract_z
  _atom_site_occupancy
  N   N1        1.0  0.00000  0.75600  0.49700  1.0000
  N   N2        1.0  0.00000  0.25600  0.50300  1.0000
  O   O1        1.0  0.50000  0.48800  0.12800  1.0000
  O   O2        1.0  0.50000  0.98800  0.87200  1.0000
  Sr  Sr1       1.0  0.50000  0.00661  0.26100  1.0000
  Sr  Sr2       1.0  0.50000  0.50700  0.73900  1.0000
  Zn  Zn1       1.0  0.00000  0.50300  0.26900  1.0000
  Zn  Zn2       1.0  0.00000  0.00316  0.73100  1.0000
