data_image0
_chemical_formula_structural       CEr2N2O2
_chemical_formula_sum              "C1 Er2 N2 O2"
_cell_length_a       3.6548
_cell_length_b       3.6548
_cell_length_c       8.12661
_cell_angle_alpha    90
_cell_angle_beta     89.9999
_cell_angle_gamma    120

_space_group_name_H-M_alt    "P 1"
_space_group_IT_number       1

loop_
  _space_group_symop_operation_xyz
  'x, y, z'

loop_
  _atom_site_type_symbol
  _atom_site_label
  _atom_site_symmetry_multiplicity
  _atom_site_fract_x
  _atom_site_fract_y
  _atom_site_fract_z
  _atom_site_occupancy
  C   C1        1.0  0.00000  0.00000  0.50000  1.0000
  Er  Er1       1.0  0.33300  0.66700  0.17700  1.0000
  Er  Er2       1.0  0.66700  0.33300  0.82300  1.0000
  N   N1        1.0  0.00000  0.00000  0.34800  1.0000
  N   N2        1.0  0.00000  0.00000  0.65200  1.0000
  O   O1        1.0  0.66700  0.33300  0.10300  1.0000
  O   O2        1.0  0.33300  0.66700  0.89700  1.0000
