data_image0
_chemical_formula_structural       N2O2Sr2Tl2
_chemical_formula_sum              "N2 O2 Sr2 Tl2"
_cell_length_a       3.88577
_cell_length_b       6.23137
_cell_length_c       6.65761
_cell_angle_alpha    90
_cell_angle_beta     90
_cell_angle_gamma    90

_space_group_name_H-M_alt    "P 1"
_space_group_IT_number       1

loop_
  _space_group_symop_operation_xyz
  'x, y, z'

loop_
  _atom_site_type_symbol
  _atom_site_label
  _atom_site_symmetry_multiplicity
  _atom_site_fract_x
  _atom_site_fract_y
  _atom_site_fract_z
  _atom_site_occupancy
  N   N1        1.0  0.00000  0.85100  0.34000  1.0000
  N   N2        1.0  0.00000  0.35100  0.66000  1.0000
  O   O1        1.0  0.50000  0.39500  0.18200  1.0000
  O   O2        1.0  0.50000  0.89500  0.81800  1.0000
  Sr  Sr1       1.0  0.50000  0.00406  0.16700  1.0000
  Sr  Sr2       1.0  0.50000  0.50400  0.83300  1.0000
  Tl  Tl1       1.0  0.00000  0.50500  0.36500  1.0000
  Tl  Tl2       1.0  0.00000  0.00456  0.63500  1.0000
