data_image0
_chemical_formula_structural       N4Nb4O4
_chemical_formula_sum              "N4 Nb4 O4"
_cell_length_a       4.99821
_cell_length_b       5.06682
_cell_length_c       5.21981
_cell_angle_alpha    90
_cell_angle_beta     99.8942
_cell_angle_gamma    90

_space_group_name_H-M_alt    "P 1"
_space_group_IT_number       1

loop_
  _space_group_symop_operation_xyz
  'x, y, z'

loop_
  _atom_site_type_symbol
  _atom_site_label
  _atom_site_symmetry_multiplicity
  _atom_site_fract_x
  _atom_site_fract_y
  _atom_site_fract_z
  _atom_site_occupancy
  N   N1        1.0  0.56000  0.25500  0.02170  1.0000
  N   N2        1.0  0.44000  0.75500  0.47800  1.0000
  N   N3        1.0  0.56000  0.24500  0.52200  1.0000
  N   N4        1.0  0.44000  0.74500  0.97800  1.0000
  Nb  Nb1       1.0  0.29400  0.04840  0.21900  1.0000
  Nb  Nb2       1.0  0.70600  0.54800  0.28100  1.0000
  Nb  Nb3       1.0  0.29400  0.45200  0.71900  1.0000
  Nb  Nb4       1.0  0.70600  0.95200  0.78100  1.0000
  O   O1        1.0  0.93800  0.82500  0.15300  1.0000
  O   O2        1.0  0.06240  0.32500  0.34700  1.0000
  O   O3        1.0  0.93800  0.67500  0.65300  1.0000
  O   O4        1.0  0.06240  0.17500  0.84700  1.0000
