data_image0
_chemical_formula_structural       Bi2N2O2Zn2
_chemical_formula_sum              "Bi2 N2 O2 Zn2"
_cell_length_a       3.66262
_cell_length_b       5.91956
_cell_length_c       5.63201
_cell_angle_alpha    90
_cell_angle_beta     90
_cell_angle_gamma    90

_space_group_name_H-M_alt    "P 1"
_space_group_IT_number       1

loop_
  _space_group_symop_operation_xyz
  'x, y, z'

loop_
  _atom_site_type_symbol
  _atom_site_label
  _atom_site_symmetry_multiplicity
  _atom_site_fract_x
  _atom_site_fract_y
  _atom_site_fract_z
  _atom_site_occupancy
  Bi  Bi1       1.0  0.00000  0.52100  0.26900  1.0000
  Bi  Bi2       1.0  1.00000  0.02120  0.73100  1.0000
  N   N1        1.0  0.00000  0.91700  0.35900  1.0000
  N   N2        1.0  0.00000  0.41700  0.64100  1.0000
  O   O1        1.0  0.50000  0.32200  0.11600  1.0000
  O   O2        1.0  0.50000  0.82200  0.88400  1.0000
  Zn  Zn1       1.0  0.50000  0.99400  0.21900  1.0000
  Zn  Zn2       1.0  0.50000  0.49400  0.78100  1.0000
