# generated using pymatgen
data_SnF2
_symmetry_space_group_name_H-M   'P 1'
_cell_length_a   7.17185928
_cell_length_b   7.17185928
_cell_length_c   14.20044991
_cell_angle_alpha   73.09329288
_cell_angle_beta   73.09329288
_cell_angle_gamma   41.95621520
_symmetry_Int_Tables_number   1
_chemical_formula_structural   SnF2
_chemical_formula_sum   'Sn8 F16'
_cell_volume   464.03418571
_cell_formula_units_Z   8
loop_
 _symmetry_equiv_pos_site_id
 _symmetry_equiv_pos_as_xyz
  1  'x, y, z'
loop_
 _atom_site_type_symbol
 _atom_site_label
 _atom_site_symmetry_multiplicity
 _atom_site_fract_x
 _atom_site_fract_y
 _atom_site_fract_z
 _atom_site_occupancy
  Sn  Sn0  1  0.37516300  0.38434400  0.68588800  1
  Sn  Sn1  1  0.61565600  0.62483700  0.81411200  1
  Sn  Sn2  1  0.62483700  0.61565600  0.31411200  1
  Sn  Sn3  1  0.38434400  0.37516300  0.18588800  1
  Sn  Sn4  1  0.10451200  0.15051300  0.55679800  1
  Sn  Sn5  1  0.84948700  0.89548800  0.94320200  1
  Sn  Sn6  1  0.89548800  0.84948700  0.44320200  1
  Sn  Sn7  1  0.15051300  0.10451200  0.05679800  1
  F  F8  1  0.87846100  0.19336000  0.91429500  1
  F  F9  1  0.80664000  0.12153900  0.58570500  1
  F  F10  1  0.12153900  0.80664000  0.08570500  1
  F  F11  1  0.19336000  0.87846100  0.41429500  1
  F  F12  1  0.17884300  0.47439900  0.53830100  1
  F  F13  1  0.52560100  0.82115700  0.96169900  1
  F  F14  1  0.82115700  0.52560100  0.46169900  1
  F  F15  1  0.47439900  0.17884300  0.03830100  1
  F  F16  1  0.51621100  0.98444100  0.30384400  1
  F  F17  1  0.01555900  0.48378900  0.19615600  1
  F  F18  1  0.48378900  0.01555900  0.69615600  1
  F  F19  1  0.98444100  0.51621100  0.80384400  1
  F  F20  1  0.40012700  0.82813300  0.17859100  1
  F  F21  1  0.17186700  0.59987300  0.32140900  1
  F  F22  1  0.59987300  0.17186700  0.82140900  1
  F  F23  1  0.82813300  0.40012700  0.67859100  1
