data_image0
_chemical_formula_structural       C3Mo2Sm2
_chemical_formula_sum              "C3 Mo2 Sm2"
_cell_length_a       3.45679
_cell_length_b       5.81682
_cell_length_c       5.94246
_cell_angle_alpha    105.644
_cell_angle_beta     106.909
_cell_angle_gamma    90

_space_group_name_H-M_alt    "P 1"
_space_group_IT_number       1

loop_
  _space_group_symop_operation_xyz
  'x, y, z'

loop_
  _atom_site_type_symbol
  _atom_site_label
  _atom_site_symmetry_multiplicity
  _atom_site_fract_x
  _atom_site_fract_y
  _atom_site_fract_z
  _atom_site_occupancy
  C   C1        1.0  0.00000  0.50000  0.00000  1.0000
  C   C2        1.0  0.72600  0.26600  0.45100  1.0000
  C   C3        1.0  0.27400  0.73400  0.54900  1.0000
  Mo  Mo1       1.0  0.15200  0.38200  0.30500  1.0000
  Mo  Mo2       1.0  0.84800  0.61800  0.69500  1.0000
  Sm  Sm1       1.0  0.61100  0.82400  0.22200  1.0000
  Sm  Sm2       1.0  0.38900  0.17600  0.77800  1.0000
