data_image0
_chemical_formula_structural       O8Ru2U4
_chemical_formula_sum              "O8 Ru2 U4"
_cell_length_a       6.93581
_cell_length_b       6.93581
_cell_length_c       6.93581
_cell_angle_alpha    119.445
_cell_angle_beta     119.445
_cell_angle_gamma    90.9633

_space_group_name_H-M_alt    "P 1"
_space_group_IT_number       1

loop_
  _space_group_symop_operation_xyz
  'x, y, z'

loop_
  _atom_site_type_symbol
  _atom_site_label
  _atom_site_symmetry_multiplicity
  _atom_site_fract_x
  _atom_site_fract_y
  _atom_site_fract_z
  _atom_site_occupancy
  O   O1        1.0  0.38900  0.60100  0.21200  1.0000
  O   O2        1.0  0.82300  0.61100  0.21200  1.0000
  O   O3        1.0  0.86100  0.14900  0.28800  1.0000
  O   O4        1.0  0.42700  0.13900  0.28800  1.0000
  O   O5        1.0  0.86100  0.57300  0.71200  1.0000
  O   O6        1.0  0.85100  0.13900  0.71200  1.0000
  O   O7        1.0  0.38900  0.17700  0.78800  1.0000
  O   O8        1.0  0.39900  0.61100  0.78800  1.0000
  Ru  Ru1       1.0  0.00000  0.00000  0.00000  1.0000
  Ru  Ru2       1.0  0.25000  0.75000  0.50000  1.0000
  U   U1        1.0  0.62500  0.37500  0.25000  1.0000
  U   U2        1.0  0.62500  0.87500  0.25000  1.0000
  U   U3        1.0  0.12500  0.37500  0.75000  1.0000
  U   U4        1.0  0.62500  0.37500  0.75000  1.0000
