data_image0
_chemical_formula_structural       Cu2N2O2W2
_chemical_formula_sum              "Cu2 N2 O2 W2"
_cell_length_a       2.82174
_cell_length_b       5.71637
_cell_length_c       5.77338
_cell_angle_alpha    90
_cell_angle_beta     90
_cell_angle_gamma    90

_space_group_name_H-M_alt    "P 1"
_space_group_IT_number       1

loop_
  _space_group_symop_operation_xyz
  'x, y, z'

loop_
  _atom_site_type_symbol
  _atom_site_label
  _atom_site_symmetry_multiplicity
  _atom_site_fract_x
  _atom_site_fract_y
  _atom_site_fract_z
  _atom_site_occupancy
  Cu  Cu1       1.0  0.50000  0.03620  0.21400  1.0000
  Cu  Cu2       1.0  0.50000  0.53600  0.78600  1.0000
  N   N1        1.0  0.00000  0.83500  0.37400  1.0000
  N   N2        1.0  0.00000  0.33500  0.62600  1.0000
  O   O1        1.0  0.50000  0.37900  0.11200  1.0000
  O   O2        1.0  0.50000  0.87900  0.88800  1.0000
  W   W1        1.0  0.00000  0.50300  0.34500  1.0000
  W   W2        1.0  1.00000  0.00292  0.65500  1.0000
