data_image0
_chemical_formula_structural       O8Pu2Tc4
_chemical_formula_sum              "O8 Pu2 Tc4"
_cell_length_a       6.42055
_cell_length_b       6.42055
_cell_length_c       6.42055
_cell_angle_alpha    119.997
_cell_angle_beta     119.997
_cell_angle_gamma    90.0049

_space_group_name_H-M_alt    "P 1"
_space_group_IT_number       1

loop_
  _space_group_symop_operation_xyz
  'x, y, z'

loop_
  _atom_site_type_symbol
  _atom_site_label
  _atom_site_symmetry_multiplicity
  _atom_site_fract_x
  _atom_site_fract_y
  _atom_site_fract_z
  _atom_site_occupancy
  O   O1        1.0  0.39400  0.60600  0.21200  1.0000
  O   O2        1.0  0.81800  0.60600  0.21200  1.0000
  O   O3        1.0  0.43200  0.14400  0.28800  1.0000
  O   O4        1.0  0.85600  0.14400  0.28800  1.0000
  O   O5        1.0  0.85600  0.14400  0.71200  1.0000
  O   O6        1.0  0.85600  0.56800  0.71200  1.0000
  O   O7        1.0  0.39400  0.18200  0.78800  1.0000
  O   O8        1.0  0.39400  0.60600  0.78800  1.0000
  Pu  Pu1       1.0  0.00000  0.00000  0.00000  1.0000
  Pu  Pu2       1.0  0.25000  0.75000  0.50000  1.0000
  Tc  Tc1       1.0  0.62500  0.37500  0.25000  1.0000
  Tc  Tc2       1.0  0.62500  0.87500  0.25000  1.0000
  Tc  Tc3       1.0  0.12500  0.37500  0.75000  1.0000
  Tc  Tc4       1.0  0.62500  0.37500  0.75000  1.0000
