data_image0
_chemical_formula_structural       N4O4V4
_chemical_formula_sum              "N4 O4 V4"
_cell_length_a       4.76115
_cell_length_b       4.73238
_cell_length_c       4.91349
_cell_angle_alpha    90
_cell_angle_beta     99.5144
_cell_angle_gamma    90

_space_group_name_H-M_alt    "P 1"
_space_group_IT_number       1

loop_
  _space_group_symop_operation_xyz
  'x, y, z'

loop_
  _atom_site_type_symbol
  _atom_site_label
  _atom_site_symmetry_multiplicity
  _atom_site_fract_x
  _atom_site_fract_y
  _atom_site_fract_z
  _atom_site_occupancy
  N   N1        1.0  0.56200  0.25800  0.02060  1.0000
  N   N2        1.0  0.43800  0.75800  0.47900  1.0000
  N   N3        1.0  0.56200  0.24200  0.52100  1.0000
  N   N4        1.0  0.43800  0.74200  0.97900  1.0000
  O   O1        1.0  0.93200  0.82300  0.15100  1.0000
  O   O2        1.0  0.06780  0.32300  0.34900  1.0000
  O   O3        1.0  0.93200  0.67700  0.65100  1.0000
  O   O4        1.0  0.06780  0.17700  0.84900  1.0000
  V   V1        1.0  0.29100  0.05540  0.21800  1.0000
  V   V2        1.0  0.70900  0.55500  0.28200  1.0000
  V   V3        1.0  0.29100  0.44500  0.71800  1.0000
  V   V4        1.0  0.70900  0.94500  0.78200  1.0000
