data_image0
_chemical_formula_structural       Cr2N2O2Y2
_chemical_formula_sum              "Cr2 N2 O2 Y2"
_cell_length_a       3.99966
_cell_length_b       4.8372
_cell_length_c       5.84053
_cell_angle_alpha    90
_cell_angle_beta     90
_cell_angle_gamma    90

_space_group_name_H-M_alt    "P 1"
_space_group_IT_number       1

loop_
  _space_group_symop_operation_xyz
  'x, y, z'

loop_
  _atom_site_type_symbol
  _atom_site_label
  _atom_site_symmetry_multiplicity
  _atom_site_fract_x
  _atom_site_fract_y
  _atom_site_fract_z
  _atom_site_occupancy
  Cr  Cr1       1.0  0.50000  0.95600  0.20900  1.0000
  Cr  Cr2       1.0  0.50000  0.45600  0.79100  1.0000
  N   N1        1.0  0.00000  0.94100  0.30600  1.0000
  N   N2        1.0  0.00000  0.44100  0.69400  1.0000
  O   O1        1.0  0.50000  0.41000  0.16100  1.0000
  O   O2        1.0  0.50000  0.91000  0.83900  1.0000
  Y   Y1        1.0  0.00000  0.44700  0.29800  1.0000
  Y   Y2        1.0  0.00000  0.94700  0.70200  1.0000
