# generated using pymatgen
data_Na2TbO3
_symmetry_space_group_name_H-M   'P 1'
_cell_length_a   5.98966633
_cell_length_b   5.98966633
_cell_length_c   11.34652258
_cell_angle_alpha   84.88122537
_cell_angle_beta   84.88122537
_cell_angle_gamma   120.11948109
_symmetry_Int_Tables_number   1
_chemical_formula_structural   Na2TbO3
_chemical_formula_sum   'Na8 Tb4 O12'
_cell_volume   346.43513628
_cell_formula_units_Z   4
loop_
 _symmetry_equiv_pos_site_id
 _symmetry_equiv_pos_as_xyz
  1  'x, y, z'
loop_
 _atom_site_type_symbol
 _atom_site_label
 _atom_site_symmetry_multiplicity
 _atom_site_fract_x
 _atom_site_fract_y
 _atom_site_fract_z
 _atom_site_occupancy
  Na  Na0  1  0.08587300  0.91412700  0.25000000  1
  Na  Na1  1  0.15917200  0.31822200  0.00016300  1
  Na  Na2  1  0.31822200  0.15917200  0.50016300  1
  Na  Na3  1  0.84082800  0.68177800  0.99983700  1
  Na  Na4  1  0.50000000  0.00000000  0.00000000  1
  Na  Na5  1  0.00000000  0.50000000  0.50000000  1
  Na  Na6  1  0.91412700  0.08587300  0.75000000  1
  Na  Na7  1  0.68177800  0.84082800  0.49983700  1
  Tb  Tb8  1  0.75247200  0.24752800  0.25000000  1
  Tb  Tb9  1  0.24752800  0.75247200  0.75000000  1
  Tb  Tb10  1  0.41841100  0.58158900  0.25000000  1
  Tb  Tb11  1  0.58158900  0.41841100  0.75000000  1
  O  O12  1  0.04640100  0.23958100  0.36367800  1
  O  O13  1  0.76041900  0.95359900  0.13632200  1
  O  O14  1  0.95359900  0.76041900  0.63632200  1
  O  O15  1  0.23958100  0.04640100  0.86367800  1
  O  O16  1  0.41023300  0.87709100  0.36130900  1
  O  O17  1  0.12290900  0.58976700  0.13869100  1
  O  O18  1  0.58976700  0.12290900  0.63869100  1
  O  O19  1  0.87709100  0.41023300  0.86130900  1
  O  O20  1  0.68441200  0.51472700  0.36087200  1
  O  O21  1  0.51472700  0.68441200  0.86087200  1
  O  O22  1  0.31558800  0.48527300  0.63912800  1
  O  O23  1  0.48527300  0.31558800  0.13912800  1
