# generated using pymatgen
data_UTe5
_symmetry_space_group_name_H-M   'P 1'
_cell_length_a   4.26654900
_cell_length_b   10.50694200
_cell_length_c   17.95024100
_cell_angle_alpha   90.00000000
_cell_angle_beta   90.00000000
_cell_angle_gamma   90.00000000
_symmetry_Int_Tables_number   1
_chemical_formula_structural   UTe5
_chemical_formula_sum   'U4 Te20'
_cell_volume   804.68027639
_cell_formula_units_Z   4
loop_
 _symmetry_equiv_pos_site_id
 _symmetry_equiv_pos_as_xyz
  1  'x, y, z'
loop_
 _atom_site_type_symbol
 _atom_site_label
 _atom_site_symmetry_multiplicity
 _atom_site_fract_x
 _atom_site_fract_y
 _atom_site_fract_z
 _atom_site_occupancy
  U  U0  1  0.39529600  0.25000000  0.58625800  1
  U  U1  1  0.60470400  0.75000000  0.41374200  1
  U  U2  1  0.89529600  0.75000000  0.91374200  1
  U  U3  1  0.10470400  0.25000000  0.08625800  1
  Te  Te4  1  0.88725500  0.43047800  0.66024100  1
  Te  Te5  1  0.88087100  0.25000000  0.46150000  1
  Te  Te6  1  0.00000000  0.50000000  0.00000000  1
  Te  Te7  1  0.11912900  0.75000000  0.53850000  1
  Te  Te8  1  0.82365200  0.75000000  0.24380400  1
  Te  Te9  1  0.67634800  0.75000000  0.74380400  1
  Te  Te10  1  0.61912900  0.25000000  0.96150000  1
  Te  Te11  1  0.17634800  0.25000000  0.75619600  1
  Te  Te12  1  0.88725500  0.06952200  0.66024100  1
  Te  Te13  1  0.32365200  0.25000000  0.25619600  1
  Te  Te14  1  0.50000000  0.00000000  0.50000000  1
  Te  Te15  1  0.61274500  0.43047800  0.16024100  1
  Te  Te16  1  0.50000000  0.50000000  0.50000000  1
  Te  Te17  1  0.11274500  0.56952200  0.33975900  1
  Te  Te18  1  0.38087100  0.75000000  0.03850000  1
  Te  Te19  1  0.00000000  0.00000000  0.00000000  1
  Te  Te20  1  0.61274500  0.06952200  0.16024100  1
  Te  Te21  1  0.38725500  0.56952200  0.83975900  1
  Te  Te22  1  0.11274500  0.93047800  0.33975900  1
  Te  Te23  1  0.38725500  0.93047800  0.83975900  1
