data_image0
_chemical_formula_structural       Ac2Co2N2O2
_chemical_formula_sum              "Ac2 Co2 N2 O2"
_cell_length_a       3.68175
_cell_length_b       5.91111
_cell_length_c       5.8158
_cell_angle_alpha    90
_cell_angle_beta     90
_cell_angle_gamma    90

_space_group_name_H-M_alt    "P 1"
_space_group_IT_number       1

loop_
  _space_group_symop_operation_xyz
  'x, y, z'

loop_
  _atom_site_type_symbol
  _atom_site_label
  _atom_site_symmetry_multiplicity
  _atom_site_fract_x
  _atom_site_fract_y
  _atom_site_fract_z
  _atom_site_occupancy
  Ac  Ac1       1.0  0.50000  0.02650  0.27700  1.0000
  Ac  Ac2       1.0  0.50000  0.52600  0.72300  1.0000
  Co  Co1       1.0  0.00000  0.50600  0.27400  1.0000
  Co  Co2       1.0  0.00000  0.00636  0.72600  1.0000
  N   N1        1.0  0.00000  0.77700  0.45700  1.0000
  N   N2        1.0  0.00000  0.27700  0.54300  1.0000
  O   O1        1.0  0.50000  0.44400  0.13300  1.0000
  O   O2        1.0  0.50000  0.94400  0.86700  1.0000
