# generated using pymatgen
data_C15S4
_symmetry_space_group_name_H-M   'P 1'
_cell_length_a   15.76385477
_cell_length_b   15.76385477
_cell_length_c   11.18867855
_cell_angle_alpha   75.38811813
_cell_angle_beta   75.38811813
_cell_angle_gamma   90.51849314
_symmetry_Int_Tables_number   1
_chemical_formula_structural   C15S4
_chemical_formula_sum   'C120 S32'
_cell_volume   2595.57658432
_cell_formula_units_Z   8
loop_
 _symmetry_equiv_pos_site_id
 _symmetry_equiv_pos_as_xyz
  1  'x, y, z'
loop_
 _atom_site_type_symbol
 _atom_site_label
 _atom_site_symmetry_multiplicity
 _atom_site_fract_x
 _atom_site_fract_y
 _atom_site_fract_z
 _atom_site_occupancy
  C  C0  1  0.74713300  0.42514400  0.64584800  1
  C  C1  1  0.57485600  0.25286700  0.85415200  1
  C  C2  1  0.25286700  0.57485600  0.35415200  1
  C  C3  1  0.42514400  0.74713300  0.14584800  1
  C  C4  1  0.82222600  0.43532300  0.69559300  1
  C  C5  1  0.56467700  0.17777400  0.80440700  1
  C  C6  1  0.17777400  0.56467700  0.30440700  1
  C  C7  1  0.43532300  0.82222600  0.19559300  1
  C  C8  1  0.79318400  0.40625600  0.83439600  1
  C  C9  1  0.59374400  0.20681600  0.66560400  1
  C  C10  1  0.20681600  0.59374400  0.16560400  1
  C  C11  1  0.40625600  0.79318400  0.33439600  1
  C  C12  1  0.70013900  0.37819500  0.87059600  1
  C  C13  1  0.62180500  0.29986100  0.62940400  1
  C  C14  1  0.29986100  0.62180500  0.12940400  1
  C  C15  1  0.37819500  0.70013900  0.37059600  1
  C  C16  1  0.67162100  0.38984300  0.75402800  1
  C  C17  1  0.61015700  0.32837900  0.74597200  1
  C  C18  1  0.32837900  0.61015700  0.24597200  1
  C  C19  1  0.38984300  0.67162100  0.25402800  1
  C  C20  1  0.96345000  0.37053400  0.70320400  1
  C  C21  1  0.62946600  0.03655000  0.79679600  1
  C  C22  1  0.03655000  0.62946600  0.29679600  1
  C  C23  1  0.37053400  0.96345000  0.20320400  1
  C  C24  1  0.90576500  0.41779800  0.63117700  1
  C  C25  1  0.58220200  0.09423500  0.86882300  1
  C  C26  1  0.09423500  0.58220200  0.36882300  1
  C  C27  1  0.41779800  0.90576500  0.13117700  1
  C  C28  1  0.91737400  0.38937600  0.51460800  1
  C  C29  1  0.61062400  0.08262600  0.98539200  1
  C  C30  1  0.08262600  0.61062400  0.48539200  1
  C  C31  1  0.38937600  0.91737400  0.01460800  1
  C  C32  1  0.98226700  0.32447700  0.51463500  1
  C  C33  1  0.67552300  0.01773300  0.98536500  1
  C  C34  1  0.01773300  0.67552300  0.48536500  1
  C  C35  1  0.32447700  0.98226700  0.01463500  1
  C  C36  1  0.01074600  0.31283700  0.63116800  1
  C  C37  1  0.68716300  0.98925400  0.86883200  1
  C  C38  1  0.98925400  0.68716300  0.36883200  1
  C  C39  1  0.31283700  0.01074600  0.13116800  1
  C  C40  1  0.93547000  0.34254300  0.83690900  1
  C  C41  1  0.65745700  0.06453000  0.66309100  1
  C  C42  1  0.06453000  0.65745700  0.16309100  1
  C  C43  1  0.34254300  0.93547000  0.33690900  1
  C  C44  1  0.95375800  0.25582700  0.90382700  1
  C  C45  1  0.74417300  0.04624200  0.59617300  1
  C  C46  1  0.04624200  0.74417300  0.09617300  1
  C  C47  1  0.25582700  0.95375800  0.40382700  1
  C  C48  1  0.87833200  0.22050100  0.01209300  1
  C  C49  1  0.77949900  0.12166800  0.48790700  1
  C  C50  1  0.12166800  0.77949900  0.98790700  1
  C  C51  1  0.22050100  0.87833200  0.51209300  1
  C  C52  1  0.81343200  0.28537400  0.01202400  1
  C  C53  1  0.71462600  0.18656800  0.48797600  1
  C  C54  1  0.18656800  0.71462600  0.98797600  1
  C  C55  1  0.28537400  0.81343200  0.51202400  1
  C  C56  1  0.84875900  0.36075400  0.90374900  1
  C  C57  1  0.63924600  0.15124100  0.59625100  1
  C  C58  1  0.15124100  0.63924600  0.09625100  1
  C  C59  1  0.36075400  0.84875900  0.40374900  1
  C  C60  1  0.99925200  0.20028200  0.83441200  1
  C  C61  1  0.79971800  0.00074800  0.66558800  1
  C  C62  1  0.00074800  0.79971800  0.16558800  1
  C  C63  1  0.20028200  0.99925200  0.33441200  1
  C  C64  1  0.02830400  0.22930100  0.69555700  1
  C  C65  1  0.77069900  0.97169600  0.80444300  1
  C  C66  1  0.97169600  0.77069900  0.30444300  1
  C  C67  1  0.22930100  0.02830400  0.19555700  1
  C  C68  1  0.01812700  0.15418300  0.64583000  1
  C  C69  1  0.84581700  0.98187300  0.85417000  1
  C  C70  1  0.98187300  0.84581700  0.35417000  1
  C  C71  1  0.15418300  0.01812700  0.14583000  1
  C  C72  1  0.98277700  0.07870700  0.75403100  1
  C  C73  1  0.92129300  0.01722300  0.74596900  1
  C  C74  1  0.01722300  0.92129300  0.24596900  1
  C  C75  1  0.07870700  0.98277700  0.25403100  1
  C  C76  1  0.97109900  0.10725500  0.87054300  1
  C  C77  1  0.89274500  0.02890100  0.62945700  1
  C  C78  1  0.02890100  0.89274500  0.12945700  1
  C  C79  1  0.10725500  0.97109900  0.37054300  1
  C  C80  1  0.89843100  0.07321400  0.97476000  1
  C  C81  1  0.92678600  0.10156900  0.52524000  1
  C  C82  1  0.10156900  0.92678600  0.02524000  1
  C  C83  1  0.07321400  0.89843100  0.47476000  1
  C  C84  1  0.99062700  0.16540500  0.53363600  1
  C  C85  1  0.83459500  0.00937300  0.96636400  1
  C  C86  1  0.00937300  0.83459500  0.46636400  1
  C  C87  1  0.16540500  0.99062700  0.03363600  1
  C  C88  1  0.97236500  0.25213000  0.46684300  1
  C  C89  1  0.74787000  0.02763500  0.03315700  1
  C  C90  1  0.02763500  0.74787000  0.53315700  1
  C  C91  1  0.25213000  0.97236500  0.96684300  1
  C  C92  1  0.89726800  0.24190800  0.41703800  1
  C  C93  1  0.75809200  0.10273200  0.08296200  1
  C  C94  1  0.10273200  0.75809200  0.58296200  1
  C  C95  1  0.24190800  0.89726800  0.91703800  1
  C  C96  1  0.86913800  0.14884800  0.45309800  1
  C  C97  1  0.85115200  0.13086200  0.04690200  1
  C  C98  1  0.13086200  0.85115200  0.54690200  1
  C  C99  1  0.14884800  0.86913800  0.95309800  1
  C  C100  1  0.74172200  0.27620900  0.45314100  1
  C  C101  1  0.72379100  0.25827800  0.04685900  1
  C  C102  1  0.25827800  0.72379100  0.54685900  1
  C  C103  1  0.27620900  0.74172200  0.95314100  1
  C  C104  1  0.83478300  0.30438500  0.41700200  1
  C  C105  1  0.69561500  0.16521700  0.08299800  1
  C  C106  1  0.16521700  0.69561500  0.58299800  1
  C  C107  1  0.30438500  0.83478300  0.91700200  1
  C  C108  1  0.84503600  0.37952300  0.46673100  1
  C  C109  1  0.62047700  0.15496400  0.03326900  1
  C  C110  1  0.15496400  0.62047700  0.53326900  1
  C  C111  1  0.37952300  0.84503600  0.96673100  1
  C  C112  1  0.75830600  0.39772100  0.53362900  1
  C  C113  1  0.60227900  0.24169400  0.96637100  1
  C  C114  1  0.24169400  0.60227900  0.46637100  1
  C  C115  1  0.39772100  0.75830600  0.03362900  1
  C  C116  1  0.66608400  0.30557000  0.97480800  1
  C  C117  1  0.69443000  0.33391600  0.52519200  1
  C  C118  1  0.33391600  0.69443000  0.02519200  1
  C  C119  1  0.30557000  0.66608400  0.47480800  1
  S  S120  1  0.73082200  0.87873600  0.37014000  1
  S  S121  1  0.12126400  0.26917800  0.12986000  1
  S  S122  1  0.26917800  0.12126400  0.62986000  1
  S  S123  1  0.87873600  0.73082200  0.87014000  1
  S  S124  1  0.72453700  0.77863000  0.28364700  1
  S  S125  1  0.22137000  0.27546300  0.21635300  1
  S  S126  1  0.27546300  0.22137000  0.71635300  1
  S  S127  1  0.77863000  0.72453700  0.78364700  1
  S  S128  1  0.72634400  0.65997800  0.41300200  1
  S  S129  1  0.34002200  0.27365600  0.08699800  1
  S  S130  1  0.27365600  0.34002200  0.58699800  1
  S  S131  1  0.65997800  0.72634400  0.91300200  1
  S  S132  1  0.59905900  0.60640100  0.49912300  1
  S  S133  1  0.39359900  0.40094100  0.00087700  1
  S  S134  1  0.40094100  0.39359900  0.50087700  1
  S  S135  1  0.60640100  0.59905900  0.99912300  1
  S  S136  1  0.55766800  0.63569600  0.67304200  1
  S  S137  1  0.36430400  0.44233200  0.82695800  1
  S  S138  1  0.44233200  0.36430400  0.32695800  1
  S  S139  1  0.63569600  0.55766800  0.17304200  1
  S  S140  1  0.48238500  0.74200400  0.65371300  1
  S  S141  1  0.25799600  0.51761500  0.84628700  1
  S  S142  1  0.51761500  0.25799600  0.34628700  1
  S  S143  1  0.74200400  0.48238500  0.15371300  1
  S  S144  1  0.55865900  0.85588100  0.62641700  1
  S  S145  1  0.14411900  0.44134100  0.87358300  1
  S  S146  1  0.44134100  0.14411900  0.37358300  1
  S  S147  1  0.85588100  0.55865900  0.12641700  1
  S  S148  1  0.60549700  0.91525600  0.43329600  1
  S  S149  1  0.08474400  0.39450300  0.06670400  1
  S  S150  1  0.39450300  0.08474400  0.56670400  1
  S  S151  1  0.91525600  0.60549700  0.93329600  1
