data_image0
_chemical_formula_structural       O2Os2Se2Tl2
_chemical_formula_sum              "O2 Os2 Se2 Tl2"
_cell_length_a       4.17902
_cell_length_b       4.17902
_cell_length_c       10.1829
_cell_angle_alpha    90
_cell_angle_beta     90
_cell_angle_gamma    90

_space_group_name_H-M_alt    "P 1"
_space_group_IT_number       1

loop_
  _space_group_symop_operation_xyz
  'x, y, z'

loop_
  _atom_site_type_symbol
  _atom_site_label
  _atom_site_symmetry_multiplicity
  _atom_site_fract_x
  _atom_site_fract_y
  _atom_site_fract_z
  _atom_site_occupancy
  O   O1        1.0  0.75000  0.25000  0.00000  1.0000
  O   O2        1.0  0.25000  0.75000  0.00000  1.0000
  Os  Os1       1.0  0.75000  0.75000  0.04370  1.0000
  Os  Os2       1.0  0.25000  0.25000  0.95600  1.0000
  Se  Se1       1.0  0.75000  0.75000  0.27000  1.0000
  Se  Se2       1.0  0.25000  0.25000  0.73000  1.0000
  Tl  Tl1       1.0  0.75000  0.25000  0.50000  1.0000
  Tl  Tl2       1.0  0.25000  0.75000  0.50000  1.0000
