# generated using pymatgen
data_In2Si2O7
_symmetry_space_group_name_H-M   'P 1'
_cell_length_a   5.51872150
_cell_length_b   5.51872150
_cell_length_c   4.76372237
_cell_angle_alpha   82.19679722
_cell_angle_beta   82.19679722
_cell_angle_gamma   104.98614838
_symmetry_Int_Tables_number   1
_chemical_formula_structural   In2Si2O7
_chemical_formula_sum   'In2 Si2 O7'
_cell_volume   136.62171779
_cell_formula_units_Z   1
loop_
 _symmetry_equiv_pos_site_id
 _symmetry_equiv_pos_as_xyz
  1  'x, y, z'
loop_
 _atom_site_type_symbol
 _atom_site_label
 _atom_site_symmetry_multiplicity
 _atom_site_fract_x
 _atom_site_fract_y
 _atom_site_fract_z
 _atom_site_occupancy
  In  In0  1  0.30830200  0.69169800  0.00000000  1
  In  In1  1  0.69169800  0.30830200  0.00000000  1
  Si  Si2  1  0.21919300  0.21919300  0.59081100  1
  Si  Si3  1  0.78080700  0.78080700  0.40918900  1
  O  O4  1  0.92144600  0.61071100  0.21820400  1
  O  O5  1  0.38928900  0.07855400  0.78179600  1
  O  O6  1  0.07855400  0.38928900  0.78179600  1
  O  O7  1  0.61071100  0.92144600  0.21820400  1
  O  O8  1  0.00000000  0.00000000  0.50000000  1
  O  O9  1  0.61034400  0.61034400  0.71586900  1
  O  O10  1  0.38965600  0.38965600  0.28413100  1
