# generated using pymatgen
data_Se2NCl3
_symmetry_space_group_name_H-M   'P 1'
_cell_length_a   8.37821300
_cell_length_b   13.36754500
_cell_length_c   26.28344000
_cell_angle_alpha   90.00000000
_cell_angle_beta   90.00000000
_cell_angle_gamma   90.00000000
_symmetry_Int_Tables_number   1
_chemical_formula_structural   Se2NCl3
_chemical_formula_sum   'Se32 N16 Cl48'
_cell_volume   2943.64380745
_cell_formula_units_Z   16
loop_
 _symmetry_equiv_pos_site_id
 _symmetry_equiv_pos_as_xyz
  1  'x, y, z'
loop_
 _atom_site_type_symbol
 _atom_site_label
 _atom_site_symmetry_multiplicity
 _atom_site_fract_x
 _atom_site_fract_y
 _atom_site_fract_z
 _atom_site_occupancy
  Se  Se0  1  0.58923000  0.29739400  0.37375500  1
  Se  Se1  1  0.08923000  0.70260600  0.12624500  1
  Se  Se2  1  0.91077000  0.79739400  0.62624500  1
  Se  Se3  1  0.41077000  0.20260600  0.87375500  1
  Se  Se4  1  0.41077000  0.70260600  0.62624500  1
  Se  Se5  1  0.91077000  0.29739400  0.87375500  1
  Se  Se6  1  0.08923000  0.20260600  0.37375500  1
  Se  Se7  1  0.58923000  0.79739400  0.12624500  1
  Se  Se8  1  0.77806300  0.44527600  0.43734800  1
  Se  Se9  1  0.27806300  0.55472400  0.06265200  1
  Se  Se10  1  0.72193700  0.94527600  0.56265200  1
  Se  Se11  1  0.22193700  0.05472400  0.93734800  1
  Se  Se12  1  0.22193700  0.55472400  0.56265200  1
  Se  Se13  1  0.72193700  0.44527600  0.93734800  1
  Se  Se14  1  0.27806300  0.05472400  0.43734800  1
  Se  Se15  1  0.77806300  0.94527600  0.06265200  1
  Se  Se16  1  0.77740400  0.90346900  0.30441700  1
  Se  Se17  1  0.27740400  0.09653100  0.19558300  1
  Se  Se18  1  0.72259600  0.40346900  0.69558300  1
  Se  Se19  1  0.22259600  0.59653100  0.80441700  1
  Se  Se20  1  0.22259600  0.09653100  0.69558300  1
  Se  Se21  1  0.72259600  0.90346900  0.80441700  1
  Se  Se22  1  0.27740400  0.59653100  0.30441700  1
  Se  Se23  1  0.77740400  0.40346900  0.19558300  1
  Se  Se24  1  0.93475800  0.80911300  0.39617000  1
  Se  Se25  1  0.43475800  0.19088700  0.10383000  1
  Se  Se26  1  0.56524200  0.30911300  0.60383000  1
  Se  Se27  1  0.06524200  0.69088700  0.89617000  1
  Se  Se28  1  0.06524200  0.19088700  0.60383000  1
  Se  Se29  1  0.56524200  0.80911300  0.89617000  1
  Se  Se30  1  0.43475800  0.69088700  0.39617000  1
  Se  Se31  1  0.93475800  0.30911300  0.10383000  1
  N  N32  1  0.77519100  0.35182800  0.38975000  1
  N  N33  1  0.27519100  0.64817200  0.11025000  1
  N  N34  1  0.72480900  0.85182800  0.61025000  1
  N  N35  1  0.22480900  0.14817200  0.88975000  1
  N  N36  1  0.22480900  0.64817200  0.61025000  1
  N  N37  1  0.72480900  0.35182800  0.88975000  1
  N  N38  1  0.27519100  0.14817200  0.38975000  1
  N  N39  1  0.77519100  0.85182800  0.11025000  1
  N  N40  1  0.75832800  0.83562700  0.36176300  1
  N  N41  1  0.25832800  0.16437300  0.13823700  1
  N  N42  1  0.74167200  0.33562700  0.63823700  1
  N  N43  1  0.24167200  0.66437300  0.86176300  1
  N  N44  1  0.24167200  0.16437300  0.63823700  1
  N  N45  1  0.74167200  0.83562700  0.86176300  1
  N  N46  1  0.25832800  0.66437300  0.36176300  1
  N  N47  1  0.75832800  0.33562700  0.13823700  1
  Cl  Cl48  1  0.51456400  0.89964700  0.28742900  1
  Cl  Cl49  1  0.29699000  0.77343800  0.45866600  1
  Cl  Cl50  1  0.70301000  0.72656200  0.95866600  1
  Cl  Cl51  1  0.20301000  0.27343800  0.54133400  1
  Cl  Cl52  1  0.20301000  0.77343800  0.95866600  1
  Cl  Cl53  1  0.70301000  0.22656200  0.54133400  1
  Cl  Cl54  1  0.29699000  0.27343800  0.04133400  1
  Cl  Cl55  1  0.79699000  0.72656200  0.45866600  1
  Cl  Cl56  1  0.04211100  0.97018400  0.06996500  1
  Cl  Cl57  1  0.01456400  0.60035300  0.28742900  1
  Cl  Cl58  1  0.98543600  0.89964700  0.78742900  1
  Cl  Cl59  1  0.48543600  0.10035300  0.71257100  1
  Cl  Cl60  1  0.48543600  0.60035300  0.78742900  1
  Cl  Cl61  1  0.98543600  0.39964700  0.71257100  1
  Cl  Cl62  1  0.01456400  0.10035300  0.21257100  1
  Cl  Cl63  1  0.79699000  0.22656200  0.04133400  1
  Cl  Cl64  1  0.08178200  0.40443500  0.17361300  1
  Cl  Cl65  1  0.58178200  0.59556500  0.32638700  1
  Cl  Cl66  1  0.41821800  0.90443500  0.82638700  1
  Cl  Cl67  1  0.91821800  0.09556500  0.67361300  1
  Cl  Cl68  1  0.91821800  0.59556500  0.82638700  1
  Cl  Cl69  1  0.41821800  0.40443500  0.67361300  1
  Cl  Cl70  1  0.58178200  0.09556500  0.17361300  1
  Cl  Cl71  1  0.08178200  0.90443500  0.32638700  1
  Cl  Cl72  1  0.47041700  0.91281800  0.05759500  1
  Cl  Cl73  1  0.97041700  0.08718200  0.44240500  1
  Cl  Cl74  1  0.02958300  0.41281800  0.94240500  1
  Cl  Cl75  1  0.52958300  0.58718200  0.55759500  1
  Cl  Cl76  1  0.52958300  0.08718200  0.94240500  1
  Cl  Cl77  1  0.02958300  0.91281800  0.55759500  1
  Cl  Cl78  1  0.97041700  0.58718200  0.05759500  1
  Cl  Cl79  1  0.47041700  0.41281800  0.44240500  1
  Cl  Cl80  1  0.69992000  0.19939000  0.31274600  1
  Cl  Cl81  1  0.19992000  0.80061000  0.18725400  1
  Cl  Cl82  1  0.80008000  0.69939000  0.68725400  1
  Cl  Cl83  1  0.30008000  0.30061000  0.81274600  1
  Cl  Cl84  1  0.30008000  0.80061000  0.68725400  1
  Cl  Cl85  1  0.80008000  0.19939000  0.81274600  1
  Cl  Cl86  1  0.19992000  0.30061000  0.31274600  1
  Cl  Cl87  1  0.69992000  0.69939000  0.18725400  1
  Cl  Cl88  1  0.04211100  0.47018400  0.43003500  1
  Cl  Cl89  1  0.54211100  0.52981600  0.06996500  1
  Cl  Cl90  1  0.45788900  0.97018400  0.56996500  1
  Cl  Cl91  1  0.95788900  0.02981600  0.93003500  1
  Cl  Cl92  1  0.95788900  0.52981600  0.56996500  1
  Cl  Cl93  1  0.45788900  0.47018400  0.93003500  1
  Cl  Cl94  1  0.54211100  0.02981600  0.43003500  1
  Cl  Cl95  1  0.51456400  0.39964700  0.21257100  1
