data_image0
_chemical_formula_structural       N4O2Zr4
_chemical_formula_sum              "N4 O2 Zr4"
_cell_length_a       3.51013
_cell_length_b       3.51013
_cell_length_c       11.8062
_cell_angle_alpha    90
_cell_angle_beta     90
_cell_angle_gamma    120

_space_group_name_H-M_alt    "P 1"
_space_group_IT_number       1

loop_
  _space_group_symop_operation_xyz
  'x, y, z'

loop_
  _atom_site_type_symbol
  _atom_site_label
  _atom_site_symmetry_multiplicity
  _atom_site_fract_x
  _atom_site_fract_y
  _atom_site_fract_z
  _atom_site_occupancy
  N   N1        1.0  0.33300  0.66700  0.07310  1.0000
  N   N2        1.0  0.33300  0.66700  0.42700  1.0000
  N   N3        1.0  0.66700  0.33300  0.57300  1.0000
  N   N4        1.0  0.66700  0.33300  0.92700  1.0000
  O   O1        1.0  0.00000  0.00000  0.25000  1.0000
  O   O2        1.0  0.00000  0.00000  0.75000  1.0000
  Zr  Zr1       1.0  0.66700  0.33300  0.11500  1.0000
  Zr  Zr2       1.0  0.66700  0.33300  0.38500  1.0000
  Zr  Zr3       1.0  0.33300  0.66700  0.61500  1.0000
  Zr  Zr4       1.0  0.33300  0.66700  0.88500  1.0000
