data_image0
_chemical_formula_structural       Cs2Ho2N2O2
_chemical_formula_sum              "Cs2 Ho2 N2 O2"
_cell_length_a       3.73022
_cell_length_b       6.72732
_cell_length_c       7.76813
_cell_angle_alpha    90
_cell_angle_beta     90
_cell_angle_gamma    90

_space_group_name_H-M_alt    "P 1"
_space_group_IT_number       1

loop_
  _space_group_symop_operation_xyz
  'x, y, z'

loop_
  _atom_site_type_symbol
  _atom_site_label
  _atom_site_symmetry_multiplicity
  _atom_site_fract_x
  _atom_site_fract_y
  _atom_site_fract_z
  _atom_site_occupancy
  Cs  Cs1       1.0  0.50000  0.99800  0.16100  1.0000
  Cs  Cs2       1.0  0.50000  0.49800  0.83900  1.0000
  Ho  Ho1       1.0  0.00000  0.49500  0.34700  1.0000
  Ho  Ho2       1.0  0.00000  0.99500  0.65300  1.0000
  N   N1        1.0  0.00000  0.81800  0.41100  1.0000
  N   N2        1.0  0.00000  0.31800  0.58900  1.0000
  O   O1        1.0  0.50000  0.44200  0.21600  1.0000
  O   O2        1.0  0.50000  0.94200  0.78400  1.0000
