data_image0
_chemical_formula_structural       NiSe4V2
_chemical_formula_sum              "Ni1 Se4 V2"
_cell_length_a       3.38301
_cell_length_b       6.16828
_cell_length_c       6.693
_cell_angle_alpha    115.95
_cell_angle_beta     104.639
_cell_angle_gamma    90

_space_group_name_H-M_alt    "P 1"
_space_group_IT_number       1

loop_
  _space_group_symop_operation_xyz
  'x, y, z'

loop_
  _atom_site_type_symbol
  _atom_site_label
  _atom_site_symmetry_multiplicity
  _atom_site_fract_x
  _atom_site_fract_y
  _atom_site_fract_z
  _atom_site_occupancy
  Ni  Ni1       1.0  0.00000  0.00000  0.00000  1.0000
  Se  Se1       1.0  0.10500  0.44600  0.20900  1.0000
  Se  Se2       1.0  0.64000  0.97800  0.28000  1.0000
  Se  Se3       1.0  0.36000  0.02210  0.72000  1.0000
  Se  Se4       1.0  0.89500  0.55400  0.79100  1.0000
  V   V1        1.0  0.74600  0.68700  0.49100  1.0000
  V   V2        1.0  0.25400  0.31300  0.50900  1.0000
