# generated using pymatgen
data_K3(Mo7O11)2
_symmetry_space_group_name_H-M   'P 1'
_cell_length_a   9.91336900
_cell_length_b   10.57431200
_cell_length_c   11.58181832
_cell_angle_alpha   76.65926980
_cell_angle_beta   90.00000000
_cell_angle_gamma   90.00000000
_symmetry_Int_Tables_number   1
_chemical_formula_structural   K3(Mo7O11)2
_chemical_formula_sum   'K6 Mo28 O44'
_cell_volume   1181.32587371
_cell_formula_units_Z   2
loop_
 _symmetry_equiv_pos_site_id
 _symmetry_equiv_pos_as_xyz
  1  'x, y, z'
loop_
 _atom_site_type_symbol
 _atom_site_label
 _atom_site_symmetry_multiplicity
 _atom_site_fract_x
 _atom_site_fract_y
 _atom_site_fract_z
 _atom_site_occupancy
  K  K0  1  0.00000000  0.00000000  0.00000000  1
  K  K1  1  0.50000000  0.50000000  0.00000000  1
  K  K2  1  0.02662000  0.94730800  0.32873000  1
  K  K3  1  0.52662000  0.55269200  0.67127000  1
  K  K4  1  0.97338000  0.05269200  0.67127000  1
  K  K5  1  0.47338000  0.44730800  0.32873000  1
  Mo  Mo6  1  0.36823500  0.86309000  0.14640800  1
  Mo  Mo7  1  0.86823500  0.63691000  0.85359200  1
  Mo  Mo8  1  0.63176500  0.13691000  0.85359200  1
  Mo  Mo9  1  0.13176500  0.36309000  0.14640800  1
  Mo  Mo10  1  0.36887200  0.09875100  0.28584000  1
  Mo  Mo11  1  0.86887200  0.40124900  0.71416000  1
  Mo  Mo12  1  0.63112800  0.90124900  0.71416000  1
  Mo  Mo13  1  0.13112800  0.59875100  0.28584000  1
  Mo  Mo14  1  0.64273100  0.75996000  0.28904600  1
  Mo  Mo15  1  0.14273100  0.74004000  0.71095400  1
  Mo  Mo16  1  0.35726900  0.24004000  0.71095400  1
  Mo  Mo17  1  0.85726900  0.25996000  0.28904600  1
  Mo  Mo18  1  0.36031300  0.16646900  0.99970100  1
  Mo  Mo19  1  0.86031300  0.33353100  0.00029900  1
  Mo  Mo20  1  0.63968700  0.83353100  0.00029900  1
  Mo  Mo21  1  0.13968700  0.66646900  0.99970100  1
  Mo  Mo22  1  0.37146100  0.78519600  0.43159500  1
  Mo  Mo23  1  0.87146100  0.71480400  0.56840500  1
  Mo  Mo24  1  0.62853900  0.21480400  0.56840500  1
  Mo  Mo25  1  0.12853900  0.28519600  0.43159500  1
  Mo  Mo26  1  0.36358800  0.93593700  0.86142000  1
  Mo  Mo27  1  0.86358800  0.56406300  0.13858000  1
  Mo  Mo28  1  0.63641200  0.06406300  0.13858000  1
  Mo  Mo29  1  0.13641200  0.43593700  0.86142000  1
  Mo  Mo30  1  0.35844700  0.02003400  0.57353200  1
  Mo  Mo31  1  0.85844700  0.47996600  0.42646800  1
  Mo  Mo32  1  0.64155300  0.97996600  0.42646800  1
  Mo  Mo33  1  0.14155300  0.52003400  0.57353200  1
  O  O34  1  0.76053800  0.67342200  0.99628800  1
  O  O35  1  0.26053800  0.82657800  0.00371200  1
  O  O36  1  0.23946200  0.32657800  0.00371200  1
  O  O37  1  0.73946200  0.17342200  0.99628800  1
  O  O38  1  0.76730700  0.59796500  0.29155600  1
  O  O39  1  0.26730700  0.90203500  0.70844400  1
  O  O40  1  0.23269300  0.40203500  0.70844400  1
  O  O41  1  0.73269300  0.09796500  0.29155600  1
  O  O42  1  0.25336000  0.67694700  0.56991900  1
  O  O43  1  0.75336000  0.82305300  0.43008100  1
  O  O44  1  0.74664000  0.32305300  0.43008100  1
  O  O45  1  0.24664000  0.17694700  0.56991900  1
  O  O46  1  0.50238200  0.87453100  0.55764800  1
  O  O47  1  0.00238200  0.62546900  0.44235200  1
  O  O48  1  0.49761800  0.12546900  0.44235200  1
  O  O49  1  0.99761800  0.37453100  0.55764800  1
  O  O50  1  0.51694300  0.79807600  0.85992000  1
  O  O51  1  0.01694300  0.70192400  0.14008000  1
  O  O52  1  0.48305700  0.20192400  0.14008000  1
  O  O53  1  0.98305700  0.29807600  0.85992000  1
  O  O54  1  0.47627000  0.27486900  0.85283200  1
  O  O55  1  0.97627000  0.22513100  0.14716800  1
  O  O56  1  0.52373000  0.72513100  0.14716800  1
  O  O57  1  0.02373000  0.77486900  0.85283200  1
  O  O58  1  0.24158900  0.60918800  0.85679200  1
  O  O59  1  0.74158900  0.89081200  0.14320800  1
  O  O60  1  0.75841100  0.39081200  0.14320800  1
  O  O61  1  0.25841100  0.10918800  0.85679200  1
  O  O62  1  0.48528300  0.33454300  0.57141000  1
  O  O63  1  0.98528300  0.16545700  0.42859000  1
  O  O64  1  0.51471700  0.66545700  0.42859000  1
  O  O65  1  0.01471700  0.83454300  0.57141000  1
  O  O66  1  0.72368100  0.03789600  0.56882000  1
  O  O67  1  0.22368100  0.46210400  0.43118000  1
  O  O68  1  0.27631900  0.96210400  0.43118000  1
  O  O69  1  0.77631900  0.53789600  0.56882000  1
  O  O70  1  0.75901200  0.74317300  0.70380800  1
  O  O71  1  0.25901200  0.75682700  0.29619200  1
  O  O72  1  0.24098800  0.25682700  0.29619200  1
  O  O73  1  0.74098800  0.24317300  0.70380800  1
  O  O74  1  0.26317100  0.03814300  0.14884400  1
  O  O75  1  0.76317100  0.46185700  0.85115600  1
  O  O76  1  0.73682900  0.96185700  0.85115600  1
  O  O77  1  0.23682900  0.53814300  0.14884400  1
