# generated using pymatgen
data_S2N2Cl
_symmetry_space_group_name_H-M   'P 1'
_cell_length_a   7.05977600
_cell_length_b   9.95575000
_cell_length_c   14.06961563
_cell_angle_alpha   69.26344140
_cell_angle_beta   90.00000000
_cell_angle_gamma   90.00000000
_symmetry_Int_Tables_number   1
_chemical_formula_structural   S2N2Cl
_chemical_formula_sum   'S16 N16 Cl8'
_cell_volume   924.82621774
_cell_formula_units_Z   8
loop_
 _symmetry_equiv_pos_site_id
 _symmetry_equiv_pos_as_xyz
  1  'x, y, z'
loop_
 _atom_site_type_symbol
 _atom_site_label
 _atom_site_symmetry_multiplicity
 _atom_site_fract_x
 _atom_site_fract_y
 _atom_site_fract_z
 _atom_site_occupancy
  S  S0  1  0.36451900  0.94603600  0.71042400  1
  S  S1  1  0.25737700  0.65447900  0.77161500  1
  S  S2  1  0.53665300  0.73421000  0.64913500  1
  S  S3  1  0.96334700  0.73421000  0.14913500  1
  S  S4  1  0.46334700  0.26579000  0.35086500  1
  S  S5  1  0.86451900  0.05396400  0.78957600  1
  S  S6  1  0.24262300  0.65447900  0.27161500  1
  S  S7  1  0.63548100  0.05396400  0.28957600  1
  S  S8  1  0.69701100  0.33306800  0.92964300  1
  S  S9  1  0.03665300  0.26579000  0.85086500  1
  S  S10  1  0.30298900  0.66693200  0.07035700  1
  S  S11  1  0.75737700  0.34552100  0.72838500  1
  S  S12  1  0.13548100  0.94603600  0.21042400  1
  S  S13  1  0.80298900  0.33306800  0.42964300  1
  S  S14  1  0.74262300  0.34552100  0.22838500  1
  S  S15  1  0.19701100  0.66693200  0.57035700  1
  N  N16  1  0.61783800  0.34531200  0.82048600  1
  N  N17  1  0.09822500  0.73741400  0.05476700  1
  N  N18  1  0.75765500  0.19283300  0.71269400  1
  N  N19  1  0.54072700  0.88743600  0.66384800  1
  N  N20  1  0.95927300  0.88743600  0.16384800  1
  N  N21  1  0.90177500  0.26258600  0.94523300  1
  N  N22  1  0.45927300  0.11256400  0.33615200  1
  N  N23  1  0.88216200  0.34531200  0.32048600  1
  N  N24  1  0.04072700  0.11256400  0.83615200  1
  N  N25  1  0.25765500  0.80716700  0.78730600  1
  N  N26  1  0.74234500  0.19283300  0.21269400  1
  N  N27  1  0.24234500  0.80716700  0.28730600  1
  N  N28  1  0.11783800  0.65468800  0.67951400  1
  N  N29  1  0.38216200  0.65468800  0.17951400  1
  N  N30  1  0.40177500  0.73741400  0.55476700  1
  N  N31  1  0.59822500  0.26258600  0.44523300  1
  Cl  Cl32  1  0.33348000  0.04319700  0.08513200  1
  Cl  Cl33  1  0.24856200  0.43463100  0.58751600  1
  Cl  Cl34  1  0.25143800  0.43463100  0.08751600  1
  Cl  Cl35  1  0.16652000  0.04319700  0.58513200  1
  Cl  Cl36  1  0.66652000  0.95680300  0.91486800  1
  Cl  Cl37  1  0.75143800  0.56536900  0.41248400  1
  Cl  Cl38  1  0.83348000  0.95680300  0.41486800  1
  Cl  Cl39  1  0.74856200  0.56536900  0.91248400  1
