# generated using pymatgen
data_Ho5(Ge5Ir2)2
_symmetry_space_group_name_H-M   'P 1'
_cell_length_a   13.84245100
_cell_length_b   13.84245100
_cell_length_c   4.35966400
_cell_angle_alpha   90.00000000
_cell_angle_beta   90.00000000
_cell_angle_gamma   90.00000000
_symmetry_Int_Tables_number   1
_chemical_formula_structural   Ho5(Ge5Ir2)2
_chemical_formula_sum   'Ho10 Ge20 Ir8'
_cell_volume   835.37025852
_cell_formula_units_Z   2
loop_
 _symmetry_equiv_pos_site_id
 _symmetry_equiv_pos_as_xyz
  1  'x, y, z'
loop_
 _atom_site_type_symbol
 _atom_site_label
 _atom_site_symmetry_multiplicity
 _atom_site_fract_x
 _atom_site_fract_y
 _atom_site_fract_z
 _atom_site_occupancy
  Ho  Ho0  1  0.00000000  0.00000000  0.00000000  1
  Ho  Ho1  1  0.50000000  0.50000000  0.00000000  1
  Ho  Ho2  1  0.70441100  0.20441100  0.50000000  1
  Ho  Ho3  1  0.20441100  0.29558900  0.50000000  1
  Ho  Ho4  1  0.79558900  0.70441100  0.50000000  1
  Ho  Ho5  1  0.29558900  0.79558900  0.50000000  1
  Ho  Ho6  1  0.90302700  0.40302700  0.00000000  1
  Ho  Ho7  1  0.40302700  0.09697300  0.00000000  1
  Ho  Ho8  1  0.09697300  0.59697300  0.00000000  1
  Ho  Ho9  1  0.59697300  0.90302700  0.00000000  1
  Ge  Ge10  1  0.14880200  0.97950200  0.50000000  1
  Ge  Ge11  1  0.85119800  0.02049800  0.50000000  1
  Ge  Ge12  1  0.02049800  0.14880200  0.50000000  1
  Ge  Ge13  1  0.97950200  0.85119800  0.50000000  1
  Ge  Ge14  1  0.47950200  0.64880200  0.50000000  1
  Ge  Ge15  1  0.64880200  0.52049800  0.50000000  1
  Ge  Ge16  1  0.35119800  0.47950200  0.50000000  1
  Ge  Ge17  1  0.52049800  0.35119800  0.50000000  1
  Ge  Ge18  1  0.36624500  0.29717500  0.00000000  1
  Ge  Ge19  1  0.63375500  0.70282500  0.00000000  1
  Ge  Ge20  1  0.70282500  0.36624500  0.00000000  1
  Ge  Ge21  1  0.29717500  0.63375500  0.00000000  1
  Ge  Ge22  1  0.79717500  0.86624500  0.00000000  1
  Ge  Ge23  1  0.86624500  0.20282500  0.00000000  1
  Ge  Ge24  1  0.13375500  0.79717500  0.00000000  1
  Ge  Ge25  1  0.20282500  0.13375500  0.00000000  1
  Ge  Ge26  1  0.39629000  0.89629000  0.00000000  1
  Ge  Ge27  1  0.89629000  0.60371000  0.00000000  1
  Ge  Ge28  1  0.60371000  0.10371000  0.00000000  1
  Ge  Ge29  1  0.10371000  0.39629000  0.00000000  1
  Ir  Ir30  1  0.54843700  0.27329700  0.00000000  1
  Ir  Ir31  1  0.27329700  0.45156300  0.00000000  1
  Ir  Ir32  1  0.72670300  0.54843700  0.00000000  1
  Ir  Ir33  1  0.45156300  0.72670300  0.00000000  1
  Ir  Ir34  1  0.95156300  0.77329700  0.00000000  1
  Ir  Ir35  1  0.04843700  0.22670300  0.00000000  1
  Ir  Ir36  1  0.77329700  0.04843700  0.00000000  1
  Ir  Ir37  1  0.22670300  0.95156300  0.00000000  1
