# generated using pymatgen
data_B2AsCl2
_symmetry_space_group_name_H-M   'P 1'
_cell_length_a   7.39730500
_cell_length_b   7.66471383
_cell_length_c   11.45798107
_cell_angle_alpha   99.41099693
_cell_angle_beta   100.30175143
_cell_angle_gamma   117.12146227
_symmetry_Int_Tables_number   1
_chemical_formula_structural   B2AsCl2
_chemical_formula_sum   'B8 As4 Cl8'
_cell_volume   546.16565737
_cell_formula_units_Z   4
loop_
 _symmetry_equiv_pos_site_id
 _symmetry_equiv_pos_as_xyz
  1  'x, y, z'
loop_
 _atom_site_type_symbol
 _atom_site_label
 _atom_site_symmetry_multiplicity
 _atom_site_fract_x
 _atom_site_fract_y
 _atom_site_fract_z
 _atom_site_occupancy
  B  B0  1  0.15699800  0.77559600  0.70951400  1
  B  B1  1  0.84300200  0.22440400  0.29048600  1
  B  B2  1  0.10567000  0.73176100  0.84877300  1
  B  B3  1  0.89433000  0.26823900  0.15122700  1
  B  B4  1  0.90197500  0.72966800  0.64084500  1
  B  B5  1  0.09802500  0.27033200  0.35915500  1
  B  B6  1  0.05995300  0.90692600  0.78568300  1
  B  B7  1  0.94004700  0.09307400  0.21431700  1
  As  As8  1  0.77560200  0.66116600  0.79577600  1
  As  As9  1  0.22439800  0.33883400  0.20422400  1
  As  As10  1  0.91690400  0.46960600  0.68585300  1
  As  As11  1  0.08309600  0.53039400  0.31414700  1
  Cl  Cl12  1  0.74221500  0.25274500  0.00972600  1
  Cl  Cl13  1  0.25778500  0.74725500  0.99027400  1
  Cl  Cl14  1  0.61302900  0.14365300  0.34005000  1
  Cl  Cl15  1  0.38697100  0.85634700  0.65995000  1
  Cl  Cl16  1  0.77855600  0.74179000  0.49893100  1
  Cl  Cl17  1  0.22144400  0.25821000  0.50106900  1
  Cl  Cl18  1  0.15642200  0.17008100  0.84372700  1
  Cl  Cl19  1  0.84357800  0.82991900  0.15627300  1
