data_image0
_chemical_formula_structural       CdGa2Se4
_chemical_formula_sum              "Cd1 Ga2 Se4"
_cell_length_a       5.84368
_cell_length_b       5.84368
_cell_length_c       6.85587
_cell_angle_alpha    115.225
_cell_angle_beta     115.225
_cell_angle_gamma    90

_space_group_name_H-M_alt    "P 1"
_space_group_IT_number       1

loop_
  _space_group_symop_operation_xyz
  'x, y, z'

loop_
  _atom_site_type_symbol
  _atom_site_label
  _atom_site_symmetry_multiplicity
  _atom_site_fract_x
  _atom_site_fract_y
  _atom_site_fract_z
  _atom_site_occupancy
  Cd  Cd1       1.0  0.00000  0.00000  0.00000  1.0000
  Ga  Ga1       1.0  0.50000  0.50000  0.00000  1.0000
  Ga  Ga2       1.0  0.25000  0.75000  0.50000  1.0000
  Se  Se1       1.0  0.41500  0.39900  0.27900  1.0000
  Se  Se2       1.0  0.86400  0.88000  0.27900  1.0000
  Se  Se3       1.0  0.12000  0.58500  0.72100  1.0000
  Se  Se4       1.0  0.60100  0.13600  0.72100  1.0000
