data_image0
_chemical_formula_structural       Np2O8Re4
_chemical_formula_sum              "Np2 O8 Re4"
_cell_length_a       6.45046
_cell_length_b       6.45046
_cell_length_c       6.45046
_cell_angle_alpha    90.0011
_cell_angle_beta     119.999
_cell_angle_gamma    119.999

_space_group_name_H-M_alt    "P 1"
_space_group_IT_number       1

loop_
  _space_group_symop_operation_xyz
  'x, y, z'

loop_
  _atom_site_type_symbol
  _atom_site_label
  _atom_site_symmetry_multiplicity
  _atom_site_fract_x
  _atom_site_fract_y
  _atom_site_fract_z
  _atom_site_occupancy
  Np  Np1       1.0  0.00000  0.00000  0.00000  1.0000
  Np  Np2       1.0  0.50000  0.75000  0.25000  1.0000
  O   O1        1.0  0.79100  0.60400  0.39500  1.0000
  O   O2        1.0  0.79100  0.18700  0.39600  1.0000
  O   O3        1.0  0.20900  0.60500  0.39600  1.0000
  O   O4        1.0  0.29100  0.14600  0.43700  1.0000
  O   O5        1.0  0.20900  0.60400  0.81300  1.0000
  O   O6        1.0  0.29100  0.14500  0.85400  1.0000
  O   O7        1.0  0.70900  0.56300  0.85400  1.0000
  O   O8        1.0  0.70900  0.14600  0.85500  1.0000
  Re  Re1       1.0  0.75000  0.37500  0.12500  1.0000
  Re  Re2       1.0  0.25000  0.37500  0.62500  1.0000
  Re  Re3       1.0  0.75000  0.37500  0.62500  1.0000
  Re  Re4       1.0  0.25000  0.87500  0.62500  1.0000
