# generated using pymatgen
data_Hg2Mo5O16
_symmetry_space_group_name_H-M   'P 1'
_cell_length_a   5.64023100
_cell_length_b   9.40430200
_cell_length_c   14.57298267
_cell_angle_alpha   70.59846780
_cell_angle_beta   90.00000000
_cell_angle_gamma   90.00000000
_symmetry_Int_Tables_number   1
_chemical_formula_structural   Hg2Mo5O16
_chemical_formula_sum   'Hg4 Mo10 O32'
_cell_volume   729.09151092
_cell_formula_units_Z   2
loop_
 _symmetry_equiv_pos_site_id
 _symmetry_equiv_pos_as_xyz
  1  'x, y, z'
loop_
 _atom_site_type_symbol
 _atom_site_label
 _atom_site_symmetry_multiplicity
 _atom_site_fract_x
 _atom_site_fract_y
 _atom_site_fract_z
 _atom_site_occupancy
  Hg  Hg0  1  0.72810000  0.41126200  0.19798400  1
  Hg  Hg1  1  0.72810000  0.58873800  0.30201600  1
  Hg  Hg2  1  0.27190000  0.58873800  0.80201600  1
  Hg  Hg3  1  0.27190000  0.41126200  0.69798400  1
  Mo  Mo4  1  0.62483600  0.00000000  0.25000000  1
  Mo  Mo5  1  0.37516400  0.00000000  0.75000000  1
  Mo  Mo6  1  0.27702400  0.23187900  0.07126000  1
  Mo  Mo7  1  0.27702400  0.76812100  0.42874000  1
  Mo  Mo8  1  0.72297600  0.76812100  0.92874000  1
  Mo  Mo9  1  0.72297600  0.23187900  0.57126000  1
  Mo  Mo10  1  0.17637000  0.12904900  0.41335900  1
  Mo  Mo11  1  0.17637000  0.87095100  0.08664100  1
  Mo  Mo12  1  0.82363000  0.87095100  0.58664100  1
  Mo  Mo13  1  0.82363000  0.12904900  0.91335900  1
  O  O14  1  0.33081300  0.40206500  0.97948900  1
  O  O15  1  0.33081300  0.59793500  0.52051100  1
  O  O16  1  0.66918700  0.59793500  0.02051100  1
  O  O17  1  0.66918700  0.40206500  0.47948900  1
  O  O18  1  0.14335300  0.30521800  0.32709600  1
  O  O19  1  0.14335300  0.69478200  0.17290400  1
  O  O20  1  0.85664700  0.69478200  0.67290400  1
  O  O21  1  0.85664700  0.30521800  0.82709600  1
  O  O22  1  0.04394700  0.27857600  0.13388300  1
  O  O23  1  0.04394700  0.72142400  0.36611700  1
  O  O24  1  0.95605300  0.72142400  0.86611700  1
  O  O25  1  0.95605300  0.27857600  0.63388300  1
  O  O26  1  0.53820000  0.21167900  0.16604900  1
  O  O27  1  0.53820000  0.78832100  0.33395100  1
  O  O28  1  0.67747300  0.01143200  0.84489100  1
  O  O29  1  0.67747300  0.98856800  0.65510900  1
  O  O30  1  0.32252700  0.98856800  0.15510900  1
  O  O31  1  0.32252700  0.01143200  0.34489100  1
  O  O32  1  0.81753400  0.06164000  0.32298500  1
  O  O33  1  0.81753400  0.93836000  0.17701500  1
  O  O34  1  0.18246600  0.93836000  0.67701500  1
  O  O35  1  0.18246600  0.06164000  0.82298500  1
  O  O36  1  0.90197300  0.11990600  0.50048800  1
  O  O37  1  0.90197300  0.88009400  0.99951200  1
  O  O38  1  0.09802700  0.88009400  0.49951200  1
  O  O39  1  0.09802700  0.11990600  0.00048800  1
  O  O40  1  0.59395000  0.15475800  0.98679100  1
  O  O41  1  0.59395000  0.84524200  0.51320900  1
  O  O42  1  0.40605000  0.84524200  0.01320900  1
  O  O43  1  0.40605000  0.15475800  0.48679100  1
  O  O44  1  0.46180000  0.21167900  0.66604900  1
  O  O45  1  0.46180000  0.78832100  0.83395100  1
