data_image0
_chemical_formula_structural       Co4Ni4O4Te4
_chemical_formula_sum              "Co4 Ni4 O4 Te4"
_cell_length_a       6.17686
_cell_length_b       3.24167
_cell_length_c       12.7613
_cell_angle_alpha    90
_cell_angle_beta     90
_cell_angle_gamma    90

_space_group_name_H-M_alt    "P 1"
_space_group_IT_number       1

loop_
  _space_group_symop_operation_xyz
  'x, y, z'

loop_
  _atom_site_type_symbol
  _atom_site_label
  _atom_site_symmetry_multiplicity
  _atom_site_fract_x
  _atom_site_fract_y
  _atom_site_fract_z
  _atom_site_occupancy
  Co  Co1       1.0  0.22900  0.75000  0.07880  1.0000
  Co  Co2       1.0  0.72900  0.75000  0.42100  1.0000
  Co  Co3       1.0  0.27100  0.25000  0.57900  1.0000
  Co  Co4       1.0  0.77100  0.25000  0.92100  1.0000
  Ni  Ni1       1.0  0.55600  0.25000  0.24100  1.0000
  Ni  Ni2       1.0  0.05570  0.25000  0.25900  1.0000
  Ni  Ni3       1.0  0.94400  0.75000  0.74100  1.0000
  Ni  Ni4       1.0  0.44400  0.75000  0.75900  1.0000
  O   O1        1.0  0.29300  0.25000  0.15500  1.0000
  O   O2        1.0  0.79300  0.25000  0.34500  1.0000
  O   O3        1.0  0.20700  0.75000  0.65500  1.0000
  O   O4        1.0  0.70700  0.75000  0.84500  1.0000
  Te  Te1       1.0  0.78200  0.75000  0.10500  1.0000
  Te  Te2       1.0  0.28200  0.75000  0.39500  1.0000
  Te  Te3       1.0  0.71800  0.25000  0.60500  1.0000
  Te  Te4       1.0  0.21800  0.25000  0.89500  1.0000
