# generated using pymatgen
data_Th2Ta2O9
_symmetry_space_group_name_H-M   'P 1'
_cell_length_a   9.78327549
_cell_length_b   9.78327549
_cell_length_c   7.47353100
_cell_angle_alpha   90.00000000
_cell_angle_beta   90.00000000
_cell_angle_gamma   106.66450570
_symmetry_Int_Tables_number   1
_chemical_formula_structural   Th2Ta2O9
_chemical_formula_sum   'Th8 Ta8 O36'
_cell_volume   685.26738899
_cell_formula_units_Z   4
loop_
 _symmetry_equiv_pos_site_id
 _symmetry_equiv_pos_as_xyz
  1  'x, y, z'
loop_
 _atom_site_type_symbol
 _atom_site_label
 _atom_site_symmetry_multiplicity
 _atom_site_fract_x
 _atom_site_fract_y
 _atom_site_fract_z
 _atom_site_occupancy
  Th  Th0  1  0.79332600  0.20667400  0.75000000  1
  Th  Th1  1  0.20667400  0.79332600  0.25000000  1
  Th  Th2  1  0.23857800  0.76142200  0.75000000  1
  Th  Th3  1  0.76142200  0.23857800  0.25000000  1
  Th  Th4  1  0.13445300  0.38988300  0.48738200  1
  Th  Th5  1  0.86554800  0.61011700  0.98738200  1
  Th  Th6  1  0.38988300  0.13445300  0.51261800  1
  Th  Th7  1  0.61011700  0.86554800  0.01261800  1
  Ta  Ta8  1  0.99130500  0.99130500  0.50000000  1
  Ta  Ta9  1  0.00869500  0.00869500  0.00000000  1
  Ta  Ta10  1  0.49460300  0.50539700  0.75000000  1
  Ta  Ta11  1  0.50539700  0.49460300  0.25000000  1
  Ta  Ta12  1  0.60034500  0.85458200  0.50143300  1
  Ta  Ta13  1  0.39965500  0.14541800  0.00143300  1
  Ta  Ta14  1  0.85458200  0.60034500  0.49856700  1
  Ta  Ta15  1  0.14541800  0.39965500  0.99856700  1
  O  O16  1  0.17618800  0.17618800  0.50000000  1
  O  O17  1  0.82381200  0.82381200  0.00000000  1
  O  O18  1  0.81779700  0.81779700  0.50000000  1
  O  O19  1  0.18220300  0.18220300  0.00000000  1
  O  O20  1  0.43107200  0.43107200  0.50000000  1
  O  O21  1  0.56892800  0.56892800  0.00000000  1
  O  O22  1  0.97306000  0.02694000  0.75000000  1
  O  O23  1  0.02694000  0.97306000  0.25000000  1
  O  O24  1  0.29240900  0.49087100  0.80143100  1
  O  O25  1  0.70759100  0.50912900  0.30143100  1
  O  O26  1  0.49087100  0.29240900  0.19856900  1
  O  O27  1  0.50912900  0.70759100  0.69856900  1
  O  O28  1  0.37113300  0.79176700  0.02013300  1
  O  O29  1  0.62886700  0.20823300  0.52013300  1
  O  O30  1  0.79176700  0.37113300  0.97986700  1
  O  O31  1  0.20823300  0.62886700  0.47986700  1
  O  O32  1  0.10115300  0.85252700  0.96893700  1
  O  O33  1  0.89884700  0.14747300  0.46893700  1
  O  O34  1  0.85252700  0.10115300  0.03106300  1
  O  O35  1  0.14747300  0.89884700  0.53106300  1
  O  O36  1  0.66967700  0.96649200  0.71703600  1
  O  O37  1  0.33032300  0.03350800  0.21703600  1
  O  O38  1  0.96649200  0.66967700  0.28296400  1
  O  O39  1  0.03350800  0.33032300  0.78296400  1
  O  O40  1  0.65749700  0.97805400  0.29651800  1
  O  O41  1  0.34250300  0.02194600  0.79651800  1
  O  O42  1  0.97805400  0.65749700  0.70348200  1
  O  O43  1  0.02194600  0.34250300  0.20348200  1
  O  O44  1  0.58313500  0.10703200  0.99979800  1
  O  O45  1  0.41686500  0.89296800  0.49979800  1
  O  O46  1  0.10703200  0.58313500  0.00020200  1
  O  O47  1  0.89296800  0.41686500  0.50020200  1
  O  O48  1  0.54354600  0.69712700  0.32099600  1
  O  O49  1  0.45645400  0.30287300  0.82099600  1
  O  O50  1  0.69712700  0.54354600  0.67900400  1
  O  O51  1  0.30287300  0.45645400  0.17900400  1
