# generated using pymatgen
data_WN3F5
_symmetry_space_group_name_H-M   'P 1'
_cell_length_a   10.02607000
_cell_length_b   5.47951500
_cell_length_c   11.31401286
_cell_angle_alpha   77.30222587
_cell_angle_beta   90.00000000
_cell_angle_gamma   90.00000000
_symmetry_Int_Tables_number   1
_chemical_formula_structural   WN3F5
_chemical_formula_sum   'W4 N12 F20'
_cell_volume   606.36758252
_cell_formula_units_Z   4
loop_
 _symmetry_equiv_pos_site_id
 _symmetry_equiv_pos_as_xyz
  1  'x, y, z'
loop_
 _atom_site_type_symbol
 _atom_site_label
 _atom_site_symmetry_multiplicity
 _atom_site_fract_x
 _atom_site_fract_y
 _atom_site_fract_z
 _atom_site_occupancy
  W  W0  1  0.53619700  0.84953300  0.78737100  1
  W  W1  1  0.03619700  0.15046700  0.71262900  1
  W  W2  1  0.46380300  0.15046700  0.21262900  1
  W  W3  1  0.96380300  0.84953300  0.28737100  1
  N  N4  1  0.83679500  0.40298700  0.99321700  1
  N  N5  1  0.33679500  0.59701300  0.50678300  1
  N  N6  1  0.16320500  0.59701300  0.00678300  1
  N  N7  1  0.66320500  0.40298700  0.49321700  1
  N  N8  1  0.25047700  0.47756100  0.05214600  1
  N  N9  1  0.75047700  0.52243900  0.44785400  1
  N  N10  1  0.65565300  0.64775200  0.90199300  1
  N  N11  1  0.15565300  0.35224800  0.59800700  1
  N  N12  1  0.34434700  0.35224800  0.09800700  1
  N  N13  1  0.84434700  0.64775200  0.40199300  1
  N  N14  1  0.74952300  0.52243900  0.94785400  1
  N  N15  1  0.24952300  0.47756100  0.55214600  1
  F  F16  1  0.63153500  0.14637000  0.79154700  1
  F  F17  1  0.57395800  0.42851900  0.22043200  1
  F  F18  1  0.92604200  0.42851900  0.72043200  1
  F  F19  1  0.07395800  0.57148100  0.27956800  1
  F  F20  1  0.07901900  0.91418700  0.40993200  1
  F  F21  1  0.57901900  0.08581300  0.09006800  1
  F  F22  1  0.92098100  0.08581300  0.59006800  1
  F  F23  1  0.42098100  0.91418700  0.90993200  1
  F  F24  1  0.85942500  0.79419800  0.15628800  1
  F  F25  1  0.35942500  0.20580200  0.34371200  1
  F  F26  1  0.14057500  0.20580200  0.84371200  1
  F  F27  1  0.64057500  0.79419800  0.65628800  1
  F  F28  1  0.36846500  0.85363000  0.20845300  1
  F  F29  1  0.86846500  0.14637000  0.29154700  1
  F  F30  1  0.42378300  0.04766800  0.66875200  1
  F  F31  1  0.92378300  0.95233200  0.83124800  1
  F  F32  1  0.57621700  0.95233200  0.33124800  1
  F  F33  1  0.07621700  0.04766800  0.16875200  1
  F  F34  1  0.42604200  0.57148100  0.77956800  1
  F  F35  1  0.13153500  0.85363000  0.70845300  1
