# generated using pymatgen
data_Ta(TeCl3)2
_symmetry_space_group_name_H-M   'P 1'
_cell_length_a   7.16192700
_cell_length_b   7.66870425
_cell_length_c   11.83897803
_cell_angle_alpha   78.98952573
_cell_angle_beta   75.82876652
_cell_angle_gamma   83.68975437
_symmetry_Int_Tables_number   1
_chemical_formula_structural   Ta(TeCl3)2
_chemical_formula_sum   'Ta2 Te4 Cl12'
_cell_volume   617.47216998
_cell_formula_units_Z   2
loop_
 _symmetry_equiv_pos_site_id
 _symmetry_equiv_pos_as_xyz
  1  'x, y, z'
loop_
 _atom_site_type_symbol
 _atom_site_label
 _atom_site_symmetry_multiplicity
 _atom_site_fract_x
 _atom_site_fract_y
 _atom_site_fract_z
 _atom_site_occupancy
  Ta  Ta0  1  0.79527400  0.33001300  0.79731700  1
  Ta  Ta1  1  0.20472600  0.66998700  0.20268300  1
  Te  Te2  1  0.27050200  0.15666400  0.49542700  1
  Te  Te3  1  0.72949800  0.84333600  0.50457300  1
  Te  Te4  1  0.39205900  0.90635900  0.66265800  1
  Te  Te5  1  0.60794100  0.09364100  0.33734200  1
  Cl  Cl6  1  0.85617100  0.28890600  0.98488700  1
  Cl  Cl7  1  0.14382900  0.71109400  0.01511300  1
  Cl  Cl8  1  0.94706200  0.04022500  0.76295800  1
  Cl  Cl9  1  0.05293800  0.95977500  0.23704200  1
  Cl  Cl10  1  0.10123900  0.44713900  0.71452500  1
  Cl  Cl11  1  0.89876100  0.55286100  0.28547500  1
  Cl  Cl12  1  0.26347500  0.62792700  0.39740600  1
  Cl  Cl13  1  0.73652500  0.37207300  0.60259400  1
  Cl  Cl14  1  0.49937200  0.79943000  0.12689900  1
  Cl  Cl15  1  0.50062800  0.20057000  0.87310100  1
  Cl  Cl16  1  0.34543100  0.37755800  0.18693200  1
  Cl  Cl17  1  0.65456900  0.62244200  0.81306800  1
