# generated using pymatgen
data_CIF7
_symmetry_space_group_name_H-M   'P 1'
_cell_length_a   8.63516200
_cell_length_b   7.78151800
_cell_length_c   8.80036804
_cell_angle_alpha   79.90514979
_cell_angle_beta   90.00000000
_cell_angle_gamma   90.00000000
_symmetry_Int_Tables_number   1
_chemical_formula_structural   CIF7
_chemical_formula_sum   'C4 I4 F28'
_cell_volume   582.18327631
_cell_formula_units_Z   4
loop_
 _symmetry_equiv_pos_site_id
 _symmetry_equiv_pos_as_xyz
  1  'x, y, z'
loop_
 _atom_site_type_symbol
 _atom_site_label
 _atom_site_symmetry_multiplicity
 _atom_site_fract_x
 _atom_site_fract_y
 _atom_site_fract_z
 _atom_site_occupancy
  C  C0  1  0.42498500  0.66958300  0.71841500  1
  C  C1  1  0.92498500  0.33041700  0.78158500  1
  C  C2  1  0.57501500  0.33041700  0.28158500  1
  C  C3  1  0.07501500  0.66958300  0.21841500  1
  I  I4  1  0.59719200  0.84956200  0.81213900  1
  I  I5  1  0.09719200  0.15043800  0.68786100  1
  I  I6  1  0.40280800  0.15043800  0.18786100  1
  I  I7  1  0.90280800  0.84956200  0.31213900  1
  F  F8  1  0.06988400  0.70541200  0.06504800  1
  F  F9  1  0.56988400  0.29458800  0.43495200  1
  F  F10  1  0.93011600  0.29458800  0.93495200  1
  F  F11  1  0.43011600  0.70541200  0.56504800  1
  F  F12  1  0.03512600  0.50513900  0.27092600  1
  F  F13  1  0.53512600  0.49486100  0.22907400  1
  F  F14  1  0.96487400  0.49486100  0.72907400  1
  F  F15  1  0.46487400  0.50513900  0.77092600  1
  F  F16  1  0.21533800  0.70440300  0.26944200  1
  F  F17  1  0.71533800  0.29559700  0.23055800  1
  F  F18  1  0.78466200  0.29559700  0.73055800  1
  F  F19  1  0.28466200  0.70440300  0.76944200  1
  F  F20  1  0.04636100  0.02813600  0.20655600  1
  F  F21  1  0.54636100  0.97186400  0.29344400  1
  F  F22  1  0.95363900  0.97186400  0.79344400  1
  F  F23  1  0.45363900  0.02813600  0.70655600  1
  F  F24  1  0.04123300  0.81003200  0.49170600  1
  F  F25  1  0.54123300  0.18996800  0.00829400  1
  F  F26  1  0.95876700  0.18996800  0.50829400  1
  F  F27  1  0.45876700  0.81003200  0.99170600  1
  F  F28  1  0.79290200  0.63443700  0.39204400  1
  F  F29  1  0.29290200  0.36556300  0.10795600  1
  F  F30  1  0.20709800  0.36556300  0.60795600  1
  F  F31  1  0.70709800  0.63443700  0.89204400  1
  F  F32  1  0.79894400  0.85579700  0.11357500  1
  F  F33  1  0.29894400  0.14420300  0.38642500  1
  F  F34  1  0.20105600  0.14420300  0.88642500  1
  F  F35  1  0.70105600  0.85579700  0.61357500  1
