# generated using pymatgen
data_UNb2O7
_symmetry_space_group_name_H-M   'P 1'
_cell_length_a   10.81807734
_cell_length_b   10.81807734
_cell_length_c   6.54308300
_cell_angle_alpha   90.00000000
_cell_angle_beta   90.00000000
_cell_angle_gamma   159.67399374
_symmetry_Int_Tables_number   1
_chemical_formula_structural   UNb2O7
_chemical_formula_sum   'U2 Nb4 O14'
_cell_volume   265.98922776
_cell_formula_units_Z   2
loop_
 _symmetry_equiv_pos_site_id
 _symmetry_equiv_pos_as_xyz
  1  'x, y, z'
loop_
 _atom_site_type_symbol
 _atom_site_label
 _atom_site_symmetry_multiplicity
 _atom_site_fract_x
 _atom_site_fract_y
 _atom_site_fract_z
 _atom_site_occupancy
  U  U0  1  0.14363100  0.85636900  0.25000000  1
  U  U1  1  0.85636900  0.14363100  0.75000000  1
  Nb  Nb2  1  0.66440400  0.33559600  0.75000000  1
  Nb  Nb3  1  0.33559600  0.66440400  0.25000000  1
  Nb  Nb4  1  0.02394100  0.97605900  0.75000000  1
  Nb  Nb5  1  0.97605900  0.02394100  0.25000000  1
  O  O6  1  0.65287000  0.34713000  0.05577400  1
  O  O7  1  0.34713000  0.65287000  0.94422600  1
  O  O8  1  0.34713000  0.65287000  0.55577400  1
  O  O9  1  0.65287000  0.34713000  0.44422600  1
  O  O10  1  0.75100500  0.24899500  0.75000000  1
  O  O11  1  0.24899500  0.75100500  0.25000000  1
  O  O12  1  0.45060500  0.54939500  0.25000000  1
  O  O13  1  0.54939500  0.45060500  0.75000000  1
  O  O14  1  0.86335900  0.13664100  0.25000000  1
  O  O15  1  0.13664100  0.86335900  0.75000000  1
  O  O16  1  0.05190700  0.94809300  0.43444100  1
  O  O17  1  0.94809300  0.05190700  0.56555900  1
  O  O18  1  0.94809300  0.05190700  0.93444100  1
  O  O19  1  0.05190700  0.94809300  0.06555900  1
