data_image0
_chemical_formula_structural       As4Cu2HNa3O14
_chemical_formula_sum              "As4 Cu2 H1 Na3 O14"
_cell_length_a       5.3193
_cell_length_b       5.51256
_cell_length_c       12.2747
_cell_angle_alpha    88.0354
_cell_angle_beta     78.1414
_cell_angle_gamma    61.8067

_space_group_name_H-M_alt    "P 1"
_space_group_IT_number       1

loop_
  _space_group_symop_operation_xyz
  'x, y, z'

loop_
  _atom_site_type_symbol
  _atom_site_label
  _atom_site_symmetry_multiplicity
  _atom_site_fract_x
  _atom_site_fract_y
  _atom_site_fract_z
  _atom_site_occupancy
  As  As1       1.0  0.41400  0.52600  0.15200  1.0000
  As  As2       1.0  0.43100  0.26000  0.36600  1.0000
  As  As3       1.0  0.56900  0.74000  0.63400  1.0000
  As  As4       1.0  0.58600  0.47400  0.84800  1.0000
  Cu  Cu1       1.0  0.03760  0.20500  0.22100  1.0000
  Cu  Cu2       1.0  0.96200  0.79500  0.77900  1.0000
  H   H1        1.0  0.50000  0.50000  0.50000  1.0000
  Na  Na1       1.0  0.80200  0.84200  0.04220  1.0000
  Na  Na2       1.0  0.00000  0.00000  0.50000  1.0000
  Na  Na3       1.0  0.19800  0.15800  0.95800  1.0000
  O   O1        1.0  0.21200  0.82500  0.09930  1.0000
  O   O2        1.0  0.77900  0.43600  0.12100  1.0000
  O   O3        1.0  0.35300  0.25600  0.12200  1.0000
  O   O4        1.0  0.30200  0.57800  0.30100  1.0000
  O   O5        1.0  0.79000  0.06590  0.30500  1.0000
  O   O6        1.0  0.22800  0.11000  0.34800  1.0000
  O   O7        1.0  0.62100  0.64000  0.49700  1.0000
  O   O8        1.0  0.37900  0.36000  0.50300  1.0000
  O   O9        1.0  0.77200  0.89000  0.65200  1.0000
  O   O10       1.0  0.21000  0.93400  0.69500  1.0000
  O   O11       1.0  0.69800  0.42200  0.69900  1.0000
  O   O12       1.0  0.64700  0.74400  0.87800  1.0000
  O   O13       1.0  0.22100  0.56400  0.87900  1.0000
  O   O14       1.0  0.78800  0.17500  0.90100  1.0000
