# generated using pymatgen
data_Yb(Mo3S4)2
_symmetry_space_group_name_H-M   'P 1'
_cell_length_a   6.53371455
_cell_length_b   6.53371455
_cell_length_c   6.53371466
_cell_angle_alpha   89.42893731
_cell_angle_beta   89.42893731
_cell_angle_gamma   89.42894149
_symmetry_Int_Tables_number   1
_chemical_formula_structural   Yb(Mo3S4)2
_chemical_formula_sum   'Yb1 Mo6 S8'
_cell_volume   278.87924070
_cell_formula_units_Z   1
loop_
 _symmetry_equiv_pos_site_id
 _symmetry_equiv_pos_as_xyz
  1  'x, y, z'
loop_
 _atom_site_type_symbol
 _atom_site_label
 _atom_site_symmetry_multiplicity
 _atom_site_fract_x
 _atom_site_fract_y
 _atom_site_fract_z
 _atom_site_occupancy
  Yb  Yb0  1  0.00000000  0.00000000  0.00000000  1
  Mo  Mo1  1  0.77657500  0.58182100  0.44045900  1
  Mo  Mo2  1  0.41817900  0.55954100  0.22342500  1
  Mo  Mo3  1  0.55954100  0.22342500  0.41817900  1
  Mo  Mo4  1  0.44045900  0.77657500  0.58182100  1
  Mo  Mo5  1  0.58182100  0.44045900  0.77657500  1
  Mo  Mo6  1  0.22342500  0.41817900  0.55954100  1
  S  S7  1  0.23896000  0.23896000  0.23896000  1
  S  S8  1  0.12769100  0.74592600  0.37661400  1
  S  S9  1  0.74592600  0.37661400  0.12769100  1
  S  S10  1  0.37661400  0.12769100  0.74592600  1
  S  S11  1  0.87230900  0.25407400  0.62338600  1
  S  S12  1  0.25407400  0.62338600  0.87230900  1
  S  S13  1  0.76104000  0.76104000  0.76104000  1
  S  S14  1  0.62338600  0.87230900  0.25407400  1
