# generated using pymatgen
data_Pd(Se3Cl)2
_symmetry_space_group_name_H-M   'P 1'
_cell_length_a   8.60234700
_cell_length_b   4.95376500
_cell_length_c   13.27015752
_cell_angle_alpha   77.66901505
_cell_angle_beta   90.00000000
_cell_angle_gamma   90.00000000
_symmetry_Int_Tables_number   1
_chemical_formula_structural   Pd(Se3Cl)2
_chemical_formula_sum   'Pd2 Se12 Cl4'
_cell_volume   552.44873418
_cell_formula_units_Z   2
loop_
 _symmetry_equiv_pos_site_id
 _symmetry_equiv_pos_as_xyz
  1  'x, y, z'
loop_
 _atom_site_type_symbol
 _atom_site_label
 _atom_site_symmetry_multiplicity
 _atom_site_fract_x
 _atom_site_fract_y
 _atom_site_fract_z
 _atom_site_occupancy
  Pd  Pd0  1  0.50000000  0.00000000  0.50000000  1
  Pd  Pd1  1  0.00000000  0.00000000  0.00000000  1
  Se  Se2  1  0.12126200  0.17970800  0.35281800  1
  Se  Se3  1  0.87873800  0.82029200  0.64718200  1
  Se  Se4  1  0.36877600  0.00545600  0.13947700  1
  Se  Se5  1  0.37873800  0.17970800  0.85281800  1
  Se  Se6  1  0.63122400  0.99454400  0.86052300  1
  Se  Se7  1  0.13122400  0.00545600  0.63947700  1
  Se  Se8  1  0.73227100  0.16091700  0.00661600  1
  Se  Se9  1  0.23227100  0.83908300  0.49338400  1
  Se  Se10  1  0.26772900  0.83908300  0.99338400  1
  Se  Se11  1  0.76772900  0.16091700  0.50661600  1
  Se  Se12  1  0.86877600  0.99454400  0.36052300  1
  Se  Se13  1  0.62126200  0.82029200  0.14718200  1
  Cl  Cl14  1  0.53665400  0.64578300  0.64444800  1
  Cl  Cl15  1  0.03665400  0.35421700  0.85555200  1
  Cl  Cl16  1  0.46334600  0.35421700  0.35555200  1
  Cl  Cl17  1  0.96334600  0.64578300  0.14444800  1
