data_image0
_chemical_formula_structural       O8Pu2Sn4
_chemical_formula_sum              "O8 Pu2 Sn4"
_cell_length_a       6.94069
_cell_length_b       6.94069
_cell_length_c       6.94069
_cell_angle_alpha    91.1522
_cell_angle_beta     119.337
_cell_angle_gamma    119.337

_space_group_name_H-M_alt    "P 1"
_space_group_IT_number       1

loop_
  _space_group_symop_operation_xyz
  'x, y, z'

loop_
  _atom_site_type_symbol
  _atom_site_label
  _atom_site_symmetry_multiplicity
  _atom_site_fract_x
  _atom_site_fract_y
  _atom_site_fract_z
  _atom_site_occupancy
  O   O1        1.0  0.23400  0.61400  0.38000  1.0000
  O   O2        1.0  0.76600  0.14600  0.38000  1.0000
  O   O3        1.0  0.76600  0.62000  0.38600  1.0000
  O   O4        1.0  0.26600  0.13000  0.39600  1.0000
  O   O5        1.0  0.23400  0.62000  0.85400  1.0000
  O   O6        1.0  0.73400  0.13000  0.86400  1.0000
  O   O7        1.0  0.26600  0.13600  0.87000  1.0000
  O   O8        1.0  0.73400  0.60400  0.87000  1.0000
  Pu  Pu1       1.0  0.00000  0.00000  0.00000  1.0000
  Pu  Pu2       1.0  0.50000  0.75000  0.25000  1.0000
  Sn  Sn1       1.0  0.75000  0.37500  0.12500  1.0000
  Sn  Sn2       1.0  0.25000  0.87500  0.62500  1.0000
  Sn  Sn3       1.0  0.25000  0.37500  0.62500  1.0000
  Sn  Sn4       1.0  0.75000  0.37500  0.62500  1.0000
