# generated using pymatgen
data_Cd7P10
_symmetry_space_group_name_H-M   'P 1'
_cell_length_a   18.18194533
_cell_length_b   14.15424422
_cell_length_c   11.88464377
_cell_angle_alpha   88.12561957
_cell_angle_beta   51.08342529
_cell_angle_gamma   40.79095514
_symmetry_Int_Tables_number   1
_chemical_formula_structural   Cd7P10
_chemical_formula_sum   'Cd14 P20'
_cell_volume   762.94458974
_cell_formula_units_Z   2
loop_
 _symmetry_equiv_pos_site_id
 _symmetry_equiv_pos_as_xyz
  1  'x, y, z'
loop_
 _atom_site_type_symbol
 _atom_site_label
 _atom_site_symmetry_multiplicity
 _atom_site_fract_x
 _atom_site_fract_y
 _atom_site_fract_z
 _atom_site_occupancy
  Cd  Cd0  1  0.97687400  0.92610700  0.51718500  1
  Cd  Cd1  1  0.57983500  0.51718500  0.92610700  1
  Cd  Cd2  1  0.73281500  0.67016500  0.27312600  1
  Cd  Cd3  1  0.32389300  0.27312600  0.67016500  1
  Cd  Cd4  1  0.26108000  0.57412300  0.97685700  1
  Cd  Cd5  1  0.18794000  0.97685700  0.57412300  1
  Cd  Cd6  1  0.27314300  0.06206000  0.98892000  1
  Cd  Cd7  1  0.67587700  0.98892000  0.06206000  1
  Cd  Cd8  1  0.75229800  0.82318200  0.48247400  1
  Cd  Cd9  1  0.94204600  0.48247400  0.82318200  1
  Cd  Cd10  1  0.76752600  0.30795400  0.49770200  1
  Cd  Cd11  1  0.42681800  0.49770200  0.30795400  1
  Cd  Cd12  1  0.25542500  0.24457500  0.24457500  1
  Cd  Cd13  1  0.00542500  0.99457500  0.99457500  1
  P  P14  1  0.62033500  0.25182500  0.46291200  1
  P  P15  1  0.66492800  0.46291200  0.25182500  1
  P  P16  1  0.78708800  0.58507200  0.62966500  1
  P  P17  1  0.99817500  0.62966500  0.58507200  1
  P  P18  1  0.81044000  0.92920200  0.27712900  1
  P  P19  1  0.98322900  0.27712900  0.92920200  1
  P  P20  1  0.97287100  0.26677100  0.43956000  1
  P  P21  1  0.32079800  0.43956000  0.26677100  1
  P  P22  1  0.22187500  0.77454800  0.11262000  1
  P  P23  1  0.89095700  0.11262000  0.77454800  1
  P  P24  1  0.13738000  0.35904300  0.02812500  1
  P  P25  1  0.47545200  0.02812500  0.35904300  1
  P  P26  1  0.52076800  0.24717800  0.91148700  1
  P  P27  1  0.32056700  0.91148700  0.24717800  1
  P  P28  1  0.27354600  0.59778700  0.65400800  1
  P  P29  1  0.47465800  0.65400800  0.59778700  1
  P  P30  1  0.59599200  0.77534200  0.97645400  1
  P  P31  1  0.65221300  0.97645400  0.77534200  1
  P  P32  1  0.00282200  0.72923200  0.92943300  1
  P  P33  1  0.33851300  0.92943300  0.72923300  1
