# generated using pymatgen
data_CsCrCl3
_symmetry_space_group_name_H-M   'P 1'
_cell_length_a   7.42028538
_cell_length_b   7.42028538
_cell_length_c   6.31714205
_cell_angle_alpha   88.81917968
_cell_angle_beta   88.81917968
_cell_angle_gamma   59.51341099
_symmetry_Int_Tables_number   1
_chemical_formula_structural   CsCrCl3
_chemical_formula_sum   'Cs2 Cr2 Cl6'
_cell_volume   299.65374990
_cell_formula_units_Z   2
loop_
 _symmetry_equiv_pos_site_id
 _symmetry_equiv_pos_as_xyz
  1  'x, y, z'
loop_
 _atom_site_type_symbol
 _atom_site_label
 _atom_site_symmetry_multiplicity
 _atom_site_fract_x
 _atom_site_fract_y
 _atom_site_fract_z
 _atom_site_occupancy
  Cs  Cs0  1  0.33294600  0.33294600  0.74664800  1
  Cs  Cs1  1  0.66705400  0.66705400  0.25335200  1
  Cr  Cr2  1  0.00000000  0.00000000  0.50000000  1
  Cr  Cr3  1  0.00000000  0.00000000  0.00000000  1
  Cl  Cl4  1  0.69589200  0.15403100  0.23087400  1
  Cl  Cl5  1  0.84596900  0.30410800  0.76912600  1
  Cl  Cl6  1  0.30410800  0.84596900  0.76912600  1
  Cl  Cl7  1  0.15403100  0.69589200  0.23087400  1
  Cl  Cl8  1  0.84237300  0.84237300  0.70631200  1
  Cl  Cl9  1  0.15762700  0.15762700  0.29368800  1
