# generated using pymatgen
data_Sr2Bi
_symmetry_space_group_name_H-M   'P 1'
_cell_length_a   9.78169246
_cell_length_b   9.78169246
_cell_length_c   9.78169246
_cell_angle_alpha   149.45839113
_cell_angle_beta   149.45839113
_cell_angle_gamma   43.73701134
_symmetry_Int_Tables_number   1
_chemical_formula_structural   Sr2Bi
_chemical_formula_sum   'Sr4 Bi2'
_cell_volume   241.01264116
_cell_formula_units_Z   2
loop_
 _symmetry_equiv_pos_site_id
 _symmetry_equiv_pos_as_xyz
  1  'x, y, z'
loop_
 _atom_site_type_symbol
 _atom_site_label
 _atom_site_symmetry_multiplicity
 _atom_site_fract_x
 _atom_site_fract_y
 _atom_site_fract_z
 _atom_site_occupancy
  Sr  Sr0  1  0.00000000  0.50000000  0.50000000  1
  Sr  Sr1  1  0.50000000  0.00000000  0.50000000  1
  Sr  Sr2  1  0.32323200  0.32323200  0.00000000  1
  Sr  Sr3  1  0.67676800  0.67676800  0.00000000  1
  Bi  Bi4  1  0.13554400  0.13554400  0.00000000  1
  Bi  Bi5  1  0.86445600  0.86445600  0.00000000  1
