data_image0
_chemical_formula_structural       O8Tc2U4
_chemical_formula_sum              "O8 Tc2 U4"
_cell_length_a       6.82599
_cell_length_b       6.82599
_cell_length_c       6.84034
_cell_angle_alpha    60.0694
_cell_angle_beta     60.0694
_cell_angle_gamma    90

_space_group_name_H-M_alt    "P 1"
_space_group_IT_number       1

loop_
  _space_group_symop_operation_xyz
  'x, y, z'

loop_
  _atom_site_type_symbol
  _atom_site_label
  _atom_site_symmetry_multiplicity
  _atom_site_fract_x
  _atom_site_fract_y
  _atom_site_fract_z
  _atom_site_occupancy
  O   O1        1.0  0.38000  0.61600  0.24100  1.0000
  O   O2        1.0  0.38000  0.14400  0.24100  1.0000
  O   O3        1.0  0.87000  0.13400  0.25900  1.0000
  O   O4        1.0  0.87000  0.60600  0.25900  1.0000
  O   O5        1.0  0.39400  0.13000  0.74100  1.0000
  O   O6        1.0  0.86600  0.13000  0.74100  1.0000
  O   O7        1.0  0.38400  0.62000  0.75900  1.0000
  O   O8        1.0  0.85600  0.62000  0.75900  1.0000
  Tc  Tc1       1.0  0.00000  0.00000  0.00000  1.0000
  Tc  Tc2       1.0  0.25000  0.75000  0.50000  1.0000
  U   U1        1.0  0.12500  0.37500  0.25000  1.0000
  U   U2        1.0  0.62500  0.37500  0.25000  1.0000
  U   U3        1.0  0.62500  0.37500  0.75000  1.0000
  U   U4        1.0  0.62500  0.87500  0.75000  1.0000
