# generated using pymatgen
data_B2H4C
_symmetry_space_group_name_H-M   'P 1'
_cell_length_a   10.83623600
_cell_length_b   5.99924600
_cell_length_c   10.49290036
_cell_angle_alpha   61.52429980
_cell_angle_beta   90.00000000
_cell_angle_gamma   90.00000000
_symmetry_Int_Tables_number   1
_chemical_formula_structural   B2H4C
_chemical_formula_sum   'B16 H32 C8'
_cell_volume   599.61037032
_cell_formula_units_Z   8
loop_
 _symmetry_equiv_pos_site_id
 _symmetry_equiv_pos_as_xyz
  1  'x, y, z'
loop_
 _atom_site_type_symbol
 _atom_site_label
 _atom_site_symmetry_multiplicity
 _atom_site_fract_x
 _atom_site_fract_y
 _atom_site_fract_z
 _atom_site_occupancy
  B  B0  1  0.87906000  0.92529900  0.71194600  1
  B  B1  1  0.37906000  0.07470100  0.78805400  1
  B  B2  1  0.12094000  0.07470100  0.28805400  1
  B  B3  1  0.62094000  0.92529900  0.21194600  1
  B  B4  1  0.81081900  0.63921200  0.82955700  1
  B  B5  1  0.31081900  0.36078800  0.67044300  1
  B  B6  1  0.18918100  0.36078800  0.17044300  1
  B  B7  1  0.68918100  0.63921200  0.32955700  1
  B  B8  1  0.57056200  0.64381400  0.21094400  1
  B  B9  1  0.07056200  0.35618600  0.28905600  1
  B  B10  1  0.42943800  0.35618600  0.78905600  1
  B  B11  1  0.92943800  0.64381400  0.71094400  1
  B  B12  1  0.62186600  0.82679700  0.40092600  1
  B  B13  1  0.12186600  0.17320300  0.09907400  1
  B  B14  1  0.37813400  0.17320300  0.59907400  1
  B  B15  1  0.87813400  0.82679700  0.90092600  1
  H  H16  1  0.61147700  0.45949100  0.33576000  1
  H  H17  1  0.11147700  0.54050900  0.16424000  1
  H  H18  1  0.38852300  0.54050900  0.66424000  1
  H  H19  1  0.88852300  0.45949100  0.83576000  1
  H  H20  1  0.64583800  0.58106600  0.46206300  1
  H  H21  1  0.14583800  0.41893400  0.03793700  1
  H  H22  1  0.35416200  0.41893400  0.53793700  1
  H  H23  1  0.85416200  0.58106600  0.96206300  1
  H  H24  1  0.58114800  0.57817000  0.12071600  1
  H  H25  1  0.08114800  0.42183000  0.37928400  1
  H  H26  1  0.41885200  0.42183000  0.87928400  1
  H  H27  1  0.91885200  0.57817000  0.62071600  1
  H  H28  1  0.67473000  0.91282500  0.46721100  1
  H  H29  1  0.17473000  0.08717500  0.03278900  1
  H  H30  1  0.32527000  0.08717500  0.53278900  1
  H  H31  1  0.82527000  0.91282500  0.96721100  1
  H  H32  1  0.79276400  0.56684800  0.33961000  1
  H  H33  1  0.29276400  0.43315200  0.16039000  1
  H  H34  1  0.20723600  0.43315200  0.66039000  1
  H  H35  1  0.70723600  0.56684800  0.83961000  1
  H  H36  1  0.66346800  0.11247600  0.11548600  1
  H  H37  1  0.16346800  0.88752400  0.38451400  1
  H  H38  1  0.33653200  0.88752400  0.88451400  1
  H  H39  1  0.83653200  0.11247600  0.61548600  1
  H  H40  1  0.05515000  0.06713900  0.81535300  1
  H  H41  1  0.55515000  0.93286100  0.68464700  1
  H  H42  1  0.94485000  0.93286100  0.18464700  1
  H  H43  1  0.44485000  0.06713900  0.31535300  1
  H  H44  1  0.10142500  0.90198000  0.64403000  1
  H  H45  1  0.60142500  0.09802000  0.85597000  1
  H  H46  1  0.89857500  0.09802000  0.35597000  1
  H  H47  1  0.39857500  0.90198000  0.14403000  1
  C  C48  1  0.00252700  0.90548800  0.82368700  1
  C  C49  1  0.50252700  0.09451200  0.67631300  1
  C  C50  1  0.99747300  0.09451200  0.17631300  1
  C  C51  1  0.49747300  0.90548800  0.32368700  1
  C  C52  1  0.02917500  0.81041700  0.72512100  1
  C  C53  1  0.52917500  0.18958300  0.77487900  1
  C  C54  1  0.97082500  0.18958300  0.27487900  1
  C  C55  1  0.47082500  0.81041700  0.22512100  1
