# generated using pymatgen
data_Ta4Mn11O21
_symmetry_space_group_name_H-M   'P 1'
_cell_length_a   5.45070252
_cell_length_b   5.45070252
_cell_length_c   34.36120200
_cell_angle_alpha   90.00000000
_cell_angle_beta   90.00000000
_cell_angle_gamma   120.00000630
_symmetry_Int_Tables_number   1
_chemical_formula_structural   Ta4Mn11O21
_chemical_formula_sum   'Ta8 Mn22 O42'
_cell_volume   884.10513385
_cell_formula_units_Z   2
loop_
 _symmetry_equiv_pos_site_id
 _symmetry_equiv_pos_as_xyz
  1  'x, y, z'
loop_
 _atom_site_type_symbol
 _atom_site_label
 _atom_site_symmetry_multiplicity
 _atom_site_fract_x
 _atom_site_fract_y
 _atom_site_fract_z
 _atom_site_occupancy
  Ta  Ta0  1  0.33333300  0.66666700  0.07083500  1
  Ta  Ta1  1  0.66666700  0.33333300  0.42916500  1
  Ta  Ta2  1  0.66666700  0.33333300  0.92916500  1
  Ta  Ta3  1  0.33333300  0.66666700  0.57083500  1
  Ta  Ta4  1  0.00000000  0.00000000  0.20529700  1
  Ta  Ta5  1  0.00000000  0.00000000  0.29470300  1
  Ta  Ta6  1  0.00000000  0.00000000  0.79470300  1
  Ta  Ta7  1  0.00000000  0.00000000  0.70529700  1
  Mn  Mn8  1  0.00000000  0.00000000  0.08774700  1
  Mn  Mn9  1  0.00000000  0.00000000  0.41225300  1
  Mn  Mn10  1  0.00000000  0.00000000  0.91225300  1
  Mn  Mn11  1  0.00000000  0.00000000  0.58774700  1
  Mn  Mn12  1  0.33333300  0.66666700  0.98015000  1
  Mn  Mn13  1  0.66666700  0.33333300  0.51985000  1
  Mn  Mn14  1  0.66666700  0.33333300  0.01985000  1
  Mn  Mn15  1  0.33333300  0.66666700  0.48015000  1
  Mn  Mn16  1  0.33333300  0.66666700  0.15690600  1
  Mn  Mn17  1  0.66666700  0.33333300  0.34309400  1
  Mn  Mn18  1  0.66666700  0.33333300  0.84309400  1
  Mn  Mn19  1  0.33333300  0.66666700  0.65690600  1
  Mn  Mn20  1  0.66666700  0.33333300  0.13495400  1
  Mn  Mn21  1  0.33333300  0.66666700  0.36504600  1
  Mn  Mn22  1  0.33333300  0.66666700  0.86504600  1
  Mn  Mn23  1  0.66666700  0.33333300  0.63495400  1
  Mn  Mn24  1  0.66666700  0.33333300  0.22628500  1
  Mn  Mn25  1  0.33333300  0.66666700  0.27371500  1
  Mn  Mn26  1  0.33333300  0.66666700  0.77371500  1
  Mn  Mn27  1  0.66666700  0.33333300  0.72628500  1
  Mn  Mn28  1  0.00000000  0.00000000  0.00000000  1
  Mn  Mn29  1  0.00000000  0.00000000  0.50000000  1
  O  O30  1  0.64798000  0.69631200  0.03648200  1
  O  O31  1  0.30368800  0.95166800  0.03648200  1
  O  O32  1  0.04833200  0.35202000  0.03648200  1
  O  O33  1  0.95166800  0.30368800  0.46351800  1
  O  O34  1  0.35202000  0.04833200  0.46351800  1
  O  O35  1  0.69631200  0.64798000  0.46351800  1
  O  O36  1  0.35202000  0.30368800  0.96351800  1
  O  O37  1  0.69631200  0.04833200  0.96351800  1
  O  O38  1  0.95166800  0.64798000  0.96351800  1
  O  O39  1  0.04833200  0.69631200  0.53648200  1
  O  O40  1  0.64798000  0.95166800  0.53648200  1
  O  O41  1  0.30368800  0.35202000  0.53648200  1
  O  O42  1  0.34624600  0.38251100  0.10653200  1
  O  O43  1  0.61748900  0.96373500  0.10653200  1
  O  O44  1  0.03626500  0.65375400  0.10653200  1
  O  O45  1  0.96373500  0.61748900  0.39346800  1
  O  O46  1  0.65375400  0.03626500  0.39346800  1
  O  O47  1  0.38251100  0.34624600  0.39346800  1
  O  O48  1  0.65375400  0.61748900  0.89346800  1
  O  O49  1  0.38251100  0.03626500  0.89346800  1
  O  O50  1  0.96373500  0.34624600  0.89346800  1
  O  O51  1  0.03626500  0.38251100  0.60653200  1
  O  O52  1  0.34624600  0.96373500  0.60653200  1
  O  O53  1  0.61748900  0.65375400  0.60653200  1
  O  O54  1  0.69995100  0.66801000  0.18095000  1
  O  O55  1  0.33199000  0.03194100  0.18095000  1
  O  O56  1  0.96805900  0.30004900  0.18095000  1
  O  O57  1  0.03194100  0.33199000  0.31905000  1
  O  O58  1  0.30004900  0.96805900  0.31905000  1
  O  O59  1  0.66801000  0.69995100  0.31905000  1
  O  O60  1  0.30004900  0.33199000  0.81905000  1
  O  O61  1  0.66801000  0.96805900  0.81905000  1
  O  O62  1  0.03194100  0.69995100  0.81905000  1
  O  O63  1  0.96805900  0.66801000  0.68095000  1
  O  O64  1  0.69995100  0.03194100  0.68095000  1
  O  O65  1  0.33199000  0.30004900  0.68095000  1
  O  O66  1  0.27588400  0.27588400  0.25000000  1
  O  O67  1  0.72411600  0.00000000  0.25000000  1
  O  O68  1  0.00000000  0.72411600  0.25000000  1
  O  O69  1  0.72411600  0.72411600  0.75000000  1
  O  O70  1  0.27588400  0.00000000  0.75000000  1
  O  O71  1  0.00000000  0.27588400  0.75000000  1
