# generated using pymatgen
data_Er2Ge5
_symmetry_space_group_name_H-M   'P 1'
_cell_length_a   3.92467300
_cell_length_b   4.04404200
_cell_length_c   18.31952200
_cell_angle_alpha   90.00000000
_cell_angle_beta   90.00000000
_cell_angle_gamma   90.00000000
_symmetry_Int_Tables_number   1
_chemical_formula_structural   Er2Ge5
_chemical_formula_sum   'Er4 Ge10'
_cell_volume   290.75907105
_cell_formula_units_Z   2
loop_
 _symmetry_equiv_pos_site_id
 _symmetry_equiv_pos_as_xyz
  1  'x, y, z'
loop_
 _atom_site_type_symbol
 _atom_site_label
 _atom_site_symmetry_multiplicity
 _atom_site_fract_x
 _atom_site_fract_y
 _atom_site_fract_z
 _atom_site_occupancy
  Er  Er0  1  0.50000000  0.50000000  0.62734300  1
  Er  Er1  1  0.00000000  0.00000000  0.37265700  1
  Er  Er2  1  0.50000000  0.00000000  0.19074400  1
  Er  Er3  1  0.00000000  0.50000000  0.80925600  1
  Ge  Ge4  1  0.50000000  0.00000000  0.50344700  1
  Ge  Ge5  1  0.00000000  0.50000000  0.49655300  1
  Ge  Ge6  1  0.50000000  0.50000000  0.33024100  1
  Ge  Ge7  1  0.00000000  0.00000000  0.66975900  1
  Ge  Ge8  1  0.00000000  0.00000000  0.06785800  1
  Ge  Ge9  1  0.50000000  0.50000000  0.93214200  1
  Ge  Ge10  1  0.00000000  0.00000000  0.93096500  1
  Ge  Ge11  1  0.50000000  0.50000000  0.06903500  1
  Ge  Ge12  1  0.00000000  0.50000000  0.23805300  1
  Ge  Ge13  1  0.50000000  0.00000000  0.76194700  1
