# generated using pymatgen
data_K2Mo9S11
_symmetry_space_group_name_H-M   'P 1'
_cell_length_a   13.22665278
_cell_length_b   13.22665278
_cell_length_c   13.22665311
_cell_angle_alpha   41.65874757
_cell_angle_beta   41.65874757
_cell_angle_gamma   41.65874912
_symmetry_Int_Tables_number   1
_chemical_formula_structural   K2Mo9S11
_chemical_formula_sum   'K4 Mo18 S22'
_cell_volume   924.14089827
_cell_formula_units_Z   2
loop_
 _symmetry_equiv_pos_site_id
 _symmetry_equiv_pos_as_xyz
  1  'x, y, z'
loop_
 _atom_site_type_symbol
 _atom_site_label
 _atom_site_symmetry_multiplicity
 _atom_site_fract_x
 _atom_site_fract_y
 _atom_site_fract_z
 _atom_site_occupancy
  K  K0  1  0.05357200  0.05357200  0.05357200  1
  K  K1  1  0.94642800  0.94642800  0.94642800  1
  K  K2  1  0.44642800  0.44642800  0.44642800  1
  K  K3  1  0.55357200  0.55357200  0.55357200  1
  Mo  Mo4  1  0.02825800  0.35577300  0.17693100  1
  Mo  Mo5  1  0.17693100  0.02825800  0.35577300  1
  Mo  Mo6  1  0.35577300  0.17693100  0.02825800  1
  Mo  Mo7  1  0.47174200  0.32306900  0.14422700  1
  Mo  Mo8  1  0.14422700  0.47174200  0.32306900  1
  Mo  Mo9  1  0.32306900  0.14422700  0.47174200  1
  Mo  Mo10  1  0.97174200  0.64422700  0.82306900  1
  Mo  Mo11  1  0.82306900  0.97174200  0.64422700  1
  Mo  Mo12  1  0.64422700  0.82306900  0.97174200  1
  Mo  Mo13  1  0.52825800  0.67693100  0.85577300  1
  Mo  Mo14  1  0.85577300  0.52825800  0.67693100  1
  Mo  Mo15  1  0.67693100  0.85577300  0.52825800  1
  Mo  Mo16  1  0.41763300  0.08236700  0.25000000  1
  Mo  Mo17  1  0.25000000  0.41763300  0.08236700  1
  Mo  Mo18  1  0.08236700  0.25000000  0.41763300  1
  Mo  Mo19  1  0.58236700  0.91763300  0.75000000  1
  Mo  Mo20  1  0.75000000  0.58236700  0.91763300  1
  Mo  Mo21  1  0.91763300  0.75000000  0.58236700  1
  S  S22  1  0.94653900  0.55346100  0.25000000  1
  S  S23  1  0.98344700  0.71392300  0.37886200  1
  S  S24  1  0.55346100  0.25000000  0.94653900  1
  S  S25  1  0.71392300  0.37886200  0.98344700  1
  S  S26  1  0.13618600  0.13618600  0.13618600  1
  S  S27  1  0.36381400  0.36381400  0.36381400  1
  S  S28  1  0.86381400  0.86381400  0.86381400  1
  S  S29  1  0.63618600  0.63618600  0.63618600  1
  S  S30  1  0.87886200  0.21392300  0.48344700  1
  S  S31  1  0.48344700  0.87886200  0.21392300  1
  S  S32  1  0.21392300  0.48344700  0.87886200  1
  S  S33  1  0.62113800  0.01655300  0.28607700  1
  S  S34  1  0.28607700  0.62113800  0.01655300  1
  S  S35  1  0.01655300  0.28607700  0.62113800  1
  S  S36  1  0.12113800  0.78607700  0.51655300  1
  S  S37  1  0.51655300  0.12113800  0.78607700  1
  S  S38  1  0.78607700  0.51655300  0.12113800  1
  S  S39  1  0.37886200  0.98344700  0.71392300  1
  S  S40  1  0.75000000  0.05346100  0.44653900  1
  S  S41  1  0.05346100  0.44653900  0.75000000  1
  S  S42  1  0.44653900  0.75000000  0.05346100  1
  S  S43  1  0.25000000  0.94653900  0.55346100  1
