data_image0
_chemical_formula_structural       Cd4Co4O4Se4
_chemical_formula_sum              "Cd4 Co4 O4 Se4"
_cell_length_a       6.27931
_cell_length_b       3.48996
_cell_length_c       13.2205
_cell_angle_alpha    90
_cell_angle_beta     90
_cell_angle_gamma    90

_space_group_name_H-M_alt    "P 1"
_space_group_IT_number       1

loop_
  _space_group_symop_operation_xyz
  'x, y, z'

loop_
  _atom_site_type_symbol
  _atom_site_label
  _atom_site_symmetry_multiplicity
  _atom_site_fract_x
  _atom_site_fract_y
  _atom_site_fract_z
  _atom_site_occupancy
  Cd  Cd1       1.0  0.60500  0.25000  0.19100  1.0000
  Cd  Cd2       1.0  0.10500  0.25000  0.30900  1.0000
  Cd  Cd3       1.0  0.89500  0.75000  0.69100  1.0000
  Cd  Cd4       1.0  0.39500  0.75000  0.80900  1.0000
  Co  Co1       1.0  0.19900  0.75000  0.08360  1.0000
  Co  Co2       1.0  0.69900  0.75000  0.41600  1.0000
  Co  Co3       1.0  0.30100  0.25000  0.58400  1.0000
  Co  Co4       1.0  0.80100  0.25000  0.91600  1.0000
  O   O1        1.0  0.26200  0.25000  0.16000  1.0000
  O   O2        1.0  0.76200  0.25000  0.34000  1.0000
  O   O3        1.0  0.23800  0.75000  0.66000  1.0000
  O   O4        1.0  0.73800  0.75000  0.84000  1.0000
  Se  Se1       1.0  0.79900  0.75000  0.06860  1.0000
  Se  Se2       1.0  0.29900  0.75000  0.43100  1.0000
  Se  Se3       1.0  0.70100  0.25000  0.56900  1.0000
  Se  Se4       1.0  0.20100  0.25000  0.93100  1.0000
