data_image0
_chemical_formula_structural       Ca2N2O2U2
_chemical_formula_sum              "Ca2 N2 O2 U2"
_cell_length_a       4.04509
_cell_length_b       5.63383
_cell_length_c       6.59917
_cell_angle_alpha    90
_cell_angle_beta     90
_cell_angle_gamma    90

_space_group_name_H-M_alt    "P 1"
_space_group_IT_number       1

loop_
  _space_group_symop_operation_xyz
  'x, y, z'

loop_
  _atom_site_type_symbol
  _atom_site_label
  _atom_site_symmetry_multiplicity
  _atom_site_fract_x
  _atom_site_fract_y
  _atom_site_fract_z
  _atom_site_occupancy
  Ca  Ca1       1.0  0.50000  0.98300  0.17700  1.0000
  Ca  Ca2       1.0  0.50000  0.48300  0.82300  1.0000
  N   N1        1.0  0.00000  0.89200  0.34300  1.0000
  N   N2        1.0  0.00000  0.39200  0.65700  1.0000
  O   O1        1.0  0.50000  0.39700  0.16400  1.0000
  O   O2        1.0  0.50000  0.89700  0.83600  1.0000
  U   U1        1.0  0.00000  0.48200  0.32400  1.0000
  U   U2        1.0  0.00000  0.98200  0.67600  1.0000
