# generated using pymatgen
data_B3H5
_symmetry_space_group_name_H-M   'P 1'
_cell_length_a   6.12233820
_cell_length_b   6.12233820
_cell_length_c   8.89804200
_cell_angle_alpha   90.00000000
_cell_angle_beta   90.00000000
_cell_angle_gamma   101.86306958
_symmetry_Int_Tables_number   1
_chemical_formula_structural   B3H5
_chemical_formula_sum   'B12 H20'
_cell_volume   326.40199025
_cell_formula_units_Z   4
loop_
 _symmetry_equiv_pos_site_id
 _symmetry_equiv_pos_as_xyz
  1  'x, y, z'
loop_
 _atom_site_type_symbol
 _atom_site_label
 _atom_site_symmetry_multiplicity
 _atom_site_fract_x
 _atom_site_fract_y
 _atom_site_fract_z
 _atom_site_occupancy
  B  B0  1  0.69936900  0.30063100  0.86310400  1
  B  B1  1  0.30063100  0.69936900  0.36310400  1
  B  B2  1  0.97508500  0.39105400  0.78994600  1
  B  B3  1  0.02491500  0.60894600  0.28994600  1
  B  B4  1  0.60894600  0.02491500  0.78994600  1
  B  B5  1  0.39105400  0.97508500  0.28994600  1
  B  B6  1  0.03478100  0.17838700  0.67880800  1
  B  B7  1  0.96521900  0.82161300  0.17880800  1
  B  B8  1  0.82161300  0.96521900  0.67880800  1
  B  B9  1  0.17838700  0.03478100  0.17880800  1
  B  B10  1  0.75988500  0.24011500  0.67776200  1
  B  B11  1  0.24011500  0.75988500  0.17776200  1
  H  H12  1  0.10694100  0.24477200  0.81623500  1
  H  H13  1  0.89305900  0.75522800  0.31623500  1
  H  H14  1  0.75522800  0.89305900  0.81623500  1
  H  H15  1  0.24477200  0.10694100  0.31623500  1
  H  H16  1  0.89089200  0.35639500  0.93337200  1
  H  H17  1  0.10910800  0.64360500  0.43337200  1
  H  H18  1  0.64360500  0.10910800  0.93337200  1
  H  H19  1  0.35639500  0.89089200  0.43337200  1
  H  H20  1  0.58130100  0.41869900  0.90772100  1
  H  H21  1  0.41869900  0.58130100  0.40772100  1
  H  H22  1  0.07071500  0.58122300  0.79183100  1
  H  H23  1  0.92928500  0.41877700  0.29183100  1
  H  H24  1  0.31947700  0.68052300  0.07387300  1
  H  H25  1  0.68052300  0.31947700  0.57387300  1
  H  H26  1  0.23320100  0.18446900  0.09167700  1
  H  H27  1  0.76679900  0.81553100  0.59167700  1
  H  H28  1  0.81553100  0.76679900  0.09167700  1
  H  H29  1  0.18446900  0.23320100  0.59167700  1
  H  H30  1  0.58122300  0.07071500  0.29183100  1
  H  H31  1  0.41877700  0.92928500  0.79183100  1
