data_image0
_chemical_formula_structural       Ac2Ca2N2O2
_chemical_formula_sum              "Ac2 Ca2 N2 O2"
_cell_length_a       3.98584
_cell_length_b       6.16679
_cell_length_c       6.87093
_cell_angle_alpha    90
_cell_angle_beta     90
_cell_angle_gamma    90

_space_group_name_H-M_alt    "P 1"
_space_group_IT_number       1

loop_
  _space_group_symop_operation_xyz
  'x, y, z'

loop_
  _atom_site_type_symbol
  _atom_site_label
  _atom_site_symmetry_multiplicity
  _atom_site_fract_x
  _atom_site_fract_y
  _atom_site_fract_z
  _atom_site_occupancy
  Ac  Ac1       1.0  0.50000  0.99500  0.17600  1.0000
  Ac  Ac2       1.0  0.50000  0.49500  0.82400  1.0000
  Ca  Ca1       1.0  0.00000  0.49200  0.34100  1.0000
  Ca  Ca2       1.0  0.00000  0.99200  0.65900  1.0000
  N   N1        1.0  0.00000  0.86900  0.33800  1.0000
  N   N2        1.0  1.00000  0.36900  0.66200  1.0000
  O   O1        1.0  0.50000  0.39800  0.17500  1.0000
  O   O2        1.0  0.50000  0.89800  0.82500  1.0000
