data_image0
_chemical_formula_structural       B2C2Dy2
_chemical_formula_sum              "B2 C2 Dy2"
_cell_length_a       3.38616
_cell_length_b       3.51613
_cell_length_c       8.40956
_cell_angle_alpha    90
_cell_angle_beta     78.3854
_cell_angle_gamma    90

_space_group_name_H-M_alt    "P 1"
_space_group_IT_number       1

loop_
  _space_group_symop_operation_xyz
  'x, y, z'

loop_
  _atom_site_type_symbol
  _atom_site_label
  _atom_site_symmetry_multiplicity
  _atom_site_fract_x
  _atom_site_fract_y
  _atom_site_fract_z
  _atom_site_occupancy
  B   B1        1.0  0.28100  0.50000  0.43800  1.0000
  B   B2        1.0  0.71900  0.50000  0.56200  1.0000
  C   C1        1.0  0.37100  0.50000  0.25700  1.0000
  C   C2        1.0  0.62900  0.50000  0.74300  1.0000
  Dy  Dy1       1.0  0.85900  0.00000  0.28200  1.0000
  Dy  Dy2       1.0  0.14100  0.00000  0.71800  1.0000
