# generated using pymatgen
data_La2Fe2S5
_symmetry_space_group_name_H-M   'P 1'
_cell_length_a   8.51545438
_cell_length_b   8.51545438
_cell_length_c   11.30803200
_cell_angle_alpha   90.00000000
_cell_angle_beta   90.00000000
_cell_angle_gamma   153.07158999
_symmetry_Int_Tables_number   1
_chemical_formula_structural   La2Fe2S5
_chemical_formula_sum   'La4 Fe4 S10'
_cell_volume   371.34946554
_cell_formula_units_Z   2
loop_
 _symmetry_equiv_pos_site_id
 _symmetry_equiv_pos_as_xyz
  1  'x, y, z'
loop_
 _atom_site_type_symbol
 _atom_site_label
 _atom_site_symmetry_multiplicity
 _atom_site_fract_x
 _atom_site_fract_y
 _atom_site_fract_z
 _atom_site_occupancy
  La  La0  1  0.37685800  0.62314200  0.06960700  1
  La  La1  1  0.62314200  0.37685800  0.56960700  1
  La  La2  1  0.37886600  0.62113400  0.45120000  1
  La  La3  1  0.62113400  0.37886600  0.95120000  1
  Fe  Fe4  1  0.08543800  0.91456200  0.28590700  1
  Fe  Fe5  1  0.91456200  0.08543800  0.78590700  1
  Fe  Fe6  1  0.69554600  0.30445400  0.24827600  1
  Fe  Fe7  1  0.30445400  0.69554600  0.74827600  1
  S  S8  1  0.54171800  0.45828200  0.20086100  1
  S  S9  1  0.45828200  0.54171800  0.70086100  1
  S  S10  1  0.00967500  0.99032500  0.46591000  1
  S  S11  1  0.99032500  0.00967500  0.96591000  1
  S  S12  1  0.84542100  0.15457900  0.25699800  1
  S  S13  1  0.15457900  0.84542100  0.75699800  1
  S  S14  1  0.19892600  0.80107400  0.10514500  1
  S  S15  1  0.80107400  0.19892600  0.60514500  1
  S  S16  1  0.80022400  0.19977600  0.90609600  1
  S  S17  1  0.19977600  0.80022400  0.40609600  1
