data_image0
_chemical_formula_structural       N8Na8O8
_chemical_formula_sum              "N8 Na8 O8"
_cell_length_a       5.06412
_cell_length_b       9.11475
_cell_length_c       5.99498
_cell_angle_alpha    90
_cell_angle_beta     98.8464
_cell_angle_gamma    90

_space_group_name_H-M_alt    "P 1"
_space_group_IT_number       1

loop_
  _space_group_symop_operation_xyz
  'x, y, z'

loop_
  _atom_site_type_symbol
  _atom_site_label
  _atom_site_symmetry_multiplicity
  _atom_site_fract_x
  _atom_site_fract_y
  _atom_site_fract_z
  _atom_site_occupancy
  N   N1        1.0  0.21800  0.32700  0.15400  1.0000
  N   N2        1.0  0.09480  0.42700  0.24800  1.0000
  N   N3        1.0  0.90500  0.92700  0.25200  1.0000
  N   N4        1.0  0.78200  0.82700  0.34600  1.0000
  N   N5        1.0  0.21800  0.17300  0.65400  1.0000
  N   N6        1.0  0.09480  0.07280  0.74800  1.0000
  N   N7        1.0  0.90500  0.57300  0.75200  1.0000
  N   N8        1.0  0.78200  0.67300  0.84600  1.0000
  Na  Na1       1.0  0.20800  0.75300  0.06760  1.0000
  Na  Na2       1.0  0.31800  0.06460  0.21900  1.0000
  Na  Na3       1.0  0.68200  0.56500  0.28100  1.0000
  Na  Na4       1.0  0.79200  0.25300  0.43200  1.0000
  Na  Na5       1.0  0.20800  0.74700  0.56800  1.0000
  Na  Na6       1.0  0.31800  0.43500  0.71900  1.0000
  Na  Na7       1.0  0.68200  0.93500  0.78100  1.0000
  Na  Na8       1.0  0.79200  0.24700  0.93200  1.0000
  O   O1        1.0  0.47600  0.34900  0.13200  1.0000
  O   O2        1.0  0.77200  0.05030  0.17800  1.0000
  O   O3        1.0  0.22800  0.55000  0.32200  1.0000
  O   O4        1.0  0.52400  0.84900  0.36800  1.0000
  O   O5        1.0  0.47600  0.15100  0.63200  1.0000
  O   O6        1.0  0.77200  0.45000  0.67800  1.0000
  O   O7        1.0  0.22800  0.95000  0.82200  1.0000
  O   O8        1.0  0.52400  0.65100  0.86800  1.0000
