data_image0
_chemical_formula_structural       Ir2Np4O8
_chemical_formula_sum              "Ir2 Np4 O8"
_cell_length_a       6.88481
_cell_length_b       6.88481
_cell_length_c       6.88516
_cell_angle_alpha    60.0017
_cell_angle_beta     60.0017
_cell_angle_gamma    90

_space_group_name_H-M_alt    "P 1"
_space_group_IT_number       1

loop_
  _space_group_symop_operation_xyz
  'x, y, z'

loop_
  _atom_site_type_symbol
  _atom_site_label
  _atom_site_symmetry_multiplicity
  _atom_site_fract_x
  _atom_site_fract_y
  _atom_site_fract_z
  _atom_site_occupancy
  Ir  Ir1       1.0  0.00000  0.00000  0.00000  1.0000
  Ir  Ir2       1.0  0.25000  0.75000  0.50000  1.0000
  Np  Np1       1.0  0.62500  0.37500  0.25000  1.0000
  Np  Np2       1.0  0.12500  0.37500  0.25000  1.0000
  Np  Np3       1.0  0.62500  0.37500  0.75000  1.0000
  Np  Np4       1.0  0.62500  0.87500  0.75000  1.0000
  O   O1        1.0  0.38800  0.16400  0.22400  1.0000
  O   O2        1.0  0.38800  0.61200  0.22400  1.0000
  O   O3        1.0  0.86200  0.13800  0.27600  1.0000
  O   O4        1.0  0.86200  0.58600  0.27600  1.0000
  O   O5        1.0  0.41400  0.13800  0.72400  1.0000
  O   O6        1.0  0.86200  0.13800  0.72400  1.0000
  O   O7        1.0  0.38800  0.61200  0.77600  1.0000
  O   O8        1.0  0.83600  0.61200  0.77600  1.0000
