data_image0
_chemical_formula_structural       Bi2Mn2N2O2
_chemical_formula_sum              "Bi2 Mn2 N2 O2"
_cell_length_a       3.86241
_cell_length_b       5.93077
_cell_length_c       5.62589
_cell_angle_alpha    90
_cell_angle_beta     90
_cell_angle_gamma    90

_space_group_name_H-M_alt    "P 1"
_space_group_IT_number       1

loop_
  _space_group_symop_operation_xyz
  'x, y, z'

loop_
  _atom_site_type_symbol
  _atom_site_label
  _atom_site_symmetry_multiplicity
  _atom_site_fract_x
  _atom_site_fract_y
  _atom_site_fract_z
  _atom_site_occupancy
  Bi  Bi1       1.0  0.00000  0.51900  0.27200  1.0000
  Bi  Bi2       1.0  0.00000  0.01940  0.72800  1.0000
  Mn  Mn1       1.0  0.50000  0.99200  0.21400  1.0000
  Mn  Mn2       1.0  0.50000  0.49200  0.78600  1.0000
  N   N1        1.0  0.00000  0.90900  0.35900  1.0000
  N   N2        1.0  0.00000  0.40900  0.64100  1.0000
  O   O1        1.0  0.50000  0.33300  0.12900  1.0000
  O   O2        1.0  0.50000  0.83300  0.87100  1.0000
