# generated using pymatgen
data_AgIO4
_symmetry_space_group_name_H-M   'P 1'
_cell_length_a   7.18613055
_cell_length_b   7.18613055
_cell_length_c   7.18613055
_cell_angle_alpha   135.43444253
_cell_angle_beta   135.43444253
_cell_angle_gamma   64.85591845
_symmetry_Int_Tables_number   1
_chemical_formula_structural   AgIO4
_chemical_formula_sum   'Ag2 I2 O8'
_cell_volume   180.13921878
_cell_formula_units_Z   2
loop_
 _symmetry_equiv_pos_site_id
 _symmetry_equiv_pos_as_xyz
  1  'x, y, z'
loop_
 _atom_site_type_symbol
 _atom_site_label
 _atom_site_symmetry_multiplicity
 _atom_site_fract_x
 _atom_site_fract_y
 _atom_site_fract_z
 _atom_site_occupancy
  Ag  Ag0  1  0.50000000  0.50000000  0.00000000  1
  Ag  Ag1  1  0.25000000  0.75000000  0.50000000  1
  I  I2  1  0.75000000  0.25000000  0.50000000  1
  I  I3  1  0.00000000  0.00000000  0.00000000  1
  O  O4  1  0.93394700  0.31949100  0.09049200  1
  O  O5  1  0.06949100  0.47899900  0.88554300  1
  O  O6  1  0.59345600  0.18394700  0.11445700  1
  O  O7  1  0.22899900  0.84345600  0.90950800  1
  O  O8  1  0.52100100  0.40654400  0.59049200  1
  O  O9  1  0.15654400  0.06605300  0.38554300  1
  O  O10  1  0.68050900  0.77100100  0.61445700  1
  O  O11  1  0.81605300  0.93050900  0.40950800  1
