# generated using pymatgen
data_CS2N
_symmetry_space_group_name_H-M   'P 1'
_cell_length_a   8.51036200
_cell_length_b   9.16678300
_cell_length_c   11.02185655
_cell_angle_alpha   69.89936262
_cell_angle_beta   90.00000000
_cell_angle_gamma   90.00000000
_symmetry_Int_Tables_number   1
_chemical_formula_structural   CS2N
_chemical_formula_sum   'C8 S16 N8'
_cell_volume   807.47140823
_cell_formula_units_Z   8
loop_
 _symmetry_equiv_pos_site_id
 _symmetry_equiv_pos_as_xyz
  1  'x, y, z'
loop_
 _atom_site_type_symbol
 _atom_site_label
 _atom_site_symmetry_multiplicity
 _atom_site_fract_x
 _atom_site_fract_y
 _atom_site_fract_z
 _atom_site_occupancy
  C  C0  1  0.65649000  0.88505000  0.38774600  1
  C  C1  1  0.15649000  0.11495000  0.11225400  1
  C  C2  1  0.34351000  0.11495000  0.61225400  1
  C  C3  1  0.84351000  0.88505000  0.88774600  1
  C  C4  1  0.54584400  0.61292900  0.18562800  1
  C  C5  1  0.04584400  0.38707100  0.31437200  1
  C  C6  1  0.45415600  0.38707100  0.81437200  1
  C  C7  1  0.95415600  0.61292900  0.68562800  1
  S  S8  1  0.77967100  0.03233300  0.37659400  1
  S  S9  1  0.27967100  0.96766700  0.12340600  1
  S  S10  1  0.22032900  0.96766700  0.62340600  1
  S  S11  1  0.72032900  0.03233300  0.87659400  1
  S  S12  1  0.68652500  0.20277400  0.20984600  1
  S  S13  1  0.18652500  0.79722600  0.29015400  1
  S  S14  1  0.31347500  0.79722600  0.79015400  1
  S  S15  1  0.81347500  0.20277400  0.70984600  1
  S  S16  1  0.98231800  0.71789600  0.24376800  1
  S  S17  1  0.48231800  0.28210400  0.25623200  1
  S  S18  1  0.01768200  0.28210400  0.75623200  1
  S  S19  1  0.51768200  0.71789600  0.74376800  1
  S  S20  1  0.97138600  0.46470900  0.82663700  1
  S  S21  1  0.47138600  0.53529100  0.67336300  1
  S  S22  1  0.02861400  0.53529100  0.17336300  1
  S  S23  1  0.52861400  0.46470900  0.32663700  1
  N  N24  1  0.57008300  0.78124000  0.39937300  1
  N  N25  1  0.07008300  0.21876000  0.10062700  1
  N  N26  1  0.42991700  0.21876000  0.60062700  1
  N  N27  1  0.92991700  0.78124000  0.89937300  1
  N  N28  1  0.55830800  0.71996200  0.08965200  1
  N  N29  1  0.05830800  0.28003800  0.41034800  1
  N  N30  1  0.44169200  0.28003800  0.91034800  1
  N  N31  1  0.94169200  0.71996200  0.58965200  1
