# generated using pymatgen
data_RbCrCl3
_symmetry_space_group_name_H-M   'P 1'
_cell_length_a   7.19013159
_cell_length_b   7.19013159
_cell_length_c   12.91119814
_cell_angle_alpha   86.44111391
_cell_angle_beta   86.44111391
_cell_angle_gamma   59.41871501
_symmetry_Int_Tables_number   1
_chemical_formula_structural   RbCrCl3
_chemical_formula_sum   'Rb4 Cr4 Cl12'
_cell_volume   573.17218613
_cell_formula_units_Z   4
loop_
 _symmetry_equiv_pos_site_id
 _symmetry_equiv_pos_as_xyz
  1  'x, y, z'
loop_
 _atom_site_type_symbol
 _atom_site_label
 _atom_site_symmetry_multiplicity
 _atom_site_fract_x
 _atom_site_fract_y
 _atom_site_fract_z
 _atom_site_occupancy
  Rb  Rb0  1  0.68452200  0.64975300  0.62880000  1
  Rb  Rb1  1  0.35024700  0.31547800  0.87120000  1
  Rb  Rb2  1  0.31547800  0.35024700  0.37120000  1
  Rb  Rb3  1  0.64975300  0.68452200  0.12880000  1
  Cr  Cr4  1  0.00000000  0.00000000  0.50000000  1
  Cr  Cr5  1  0.00000000  0.00000000  0.00000000  1
  Cr  Cr6  1  0.96023900  0.03976100  0.25000000  1
  Cr  Cr7  1  0.03976100  0.96023900  0.75000000  1
  Cl  Cl8  1  0.12653500  0.72801200  0.14096100  1
  Cl  Cl9  1  0.27198800  0.87346500  0.35903900  1
  Cl  Cl10  1  0.87346500  0.27198800  0.85903900  1
  Cl  Cl11  1  0.72801200  0.12653500  0.64096100  1
  Cl  Cl12  1  0.18844300  0.64616000  0.64971700  1
  Cl  Cl13  1  0.35384000  0.81155700  0.85028300  1
  Cl  Cl14  1  0.81155700  0.35384000  0.35028300  1
  Cl  Cl15  1  0.64616000  0.18844300  0.14971700  1
  Cl  Cl16  1  0.85321300  0.82121800  0.91529200  1
  Cl  Cl17  1  0.17878200  0.14678700  0.58470800  1
  Cl  Cl18  1  0.14678700  0.17878200  0.08470800  1
  Cl  Cl19  1  0.82121800  0.85321300  0.41529200  1
