data_image0
_chemical_formula_structural       Ba8Cr4Nb4O24
_chemical_formula_sum              "Ba8 Cr4 Nb4 O24"
_cell_length_a       5.76824
_cell_length_b       5.76825
_cell_length_c       18.9635
_cell_angle_alpha    90
_cell_angle_beta     90
_cell_angle_gamma    120

_space_group_name_H-M_alt    "P 1"
_space_group_IT_number       1

loop_
  _space_group_symop_operation_xyz
  'x, y, z'

loop_
  _atom_site_type_symbol
  _atom_site_label
  _atom_site_symmetry_multiplicity
  _atom_site_fract_x
  _atom_site_fract_y
  _atom_site_fract_z
  _atom_site_occupancy
  Ba  Ba1       1.0  0.00000  0.00000  0.00000  1.0000
  Ba  Ba2       1.0  0.33300  0.66700  0.14200  1.0000
  Ba  Ba3       1.0  0.66700  0.33300  0.25000  1.0000
  Ba  Ba4       1.0  0.33300  0.66700  0.35800  1.0000
  Ba  Ba5       1.0  0.00000  0.00000  0.50000  1.0000
  Ba  Ba6       1.0  0.66700  0.33300  0.64200  1.0000
  Ba  Ba7       1.0  0.33300  0.66700  0.75000  1.0000
  Ba  Ba8       1.0  0.66700  0.33300  0.85800  1.0000
  Cr  Cr1       1.0  0.00000  0.00000  0.18200  1.0000
  Cr  Cr2       1.0  0.00000  0.00000  0.31800  1.0000
  Cr  Cr3       1.0  0.00000  0.00000  0.68200  1.0000
  Cr  Cr4       1.0  0.00000  0.00000  0.81800  1.0000
  Nb  Nb1       1.0  0.66700  0.33300  0.06420  1.0000
  Nb  Nb2       1.0  0.66700  0.33300  0.43600  1.0000
  Nb  Nb3       1.0  0.33300  0.66700  0.56400  1.0000
  Nb  Nb4       1.0  0.33300  0.66700  0.93600  1.0000
  O   O1        1.0  0.50000  0.00000  0.00000  1.0000
  O   O2        1.0  0.00000  0.50000  0.00000  1.0000
  O   O3        1.0  0.50000  0.50000  0.00000  1.0000
  O   O4        1.0  0.83100  0.66300  0.12100  1.0000
  O   O5        1.0  0.33700  0.16900  0.12100  1.0000
  O   O6        1.0  0.83100  0.16900  0.12100  1.0000
  O   O7        1.0  0.15200  0.30300  0.25000  1.0000
  O   O8        1.0  0.15200  0.84800  0.25000  1.0000
  O   O9        1.0  0.69700  0.84800  0.25000  1.0000
  O   O10       1.0  0.33700  0.16900  0.37900  1.0000
  O   O11       1.0  0.83100  0.16900  0.37900  1.0000
  O   O12       1.0  0.83100  0.66300  0.37900  1.0000
  O   O13       1.0  0.50000  0.00000  0.50000  1.0000
  O   O14       1.0  0.00000  0.50000  0.50000  1.0000
  O   O15       1.0  0.50000  0.50000  0.50000  1.0000
  O   O16       1.0  0.16900  0.33700  0.62100  1.0000
  O   O17       1.0  0.16900  0.83100  0.62100  1.0000
  O   O18       1.0  0.66300  0.83100  0.62100  1.0000
  O   O19       1.0  0.30300  0.15200  0.75000  1.0000
  O   O20       1.0  0.84800  0.15200  0.75000  1.0000
  O   O21       1.0  0.84800  0.69700  0.75000  1.0000
  O   O22       1.0  0.16900  0.83100  0.87900  1.0000
  O   O23       1.0  0.66300  0.83100  0.87900  1.0000
  O   O24       1.0  0.16900  0.33700  0.87900  1.0000
