# generated using pymatgen
data_Zr5Te6
_symmetry_space_group_name_H-M   'P 1'
_cell_length_a   11.80801838
_cell_length_b   11.80801838
_cell_length_c   7.17403900
_cell_angle_alpha   90.00000000
_cell_angle_beta   90.00000000
_cell_angle_gamma   120.00000215
_symmetry_Int_Tables_number   1
_chemical_formula_structural   Zr5Te6
_chemical_formula_sum   'Zr15 Te18'
_cell_volume   866.26027079
_cell_formula_units_Z   3
loop_
 _symmetry_equiv_pos_site_id
 _symmetry_equiv_pos_as_xyz
  1  'x, y, z'
loop_
 _atom_site_type_symbol
 _atom_site_label
 _atom_site_symmetry_multiplicity
 _atom_site_fract_x
 _atom_site_fract_y
 _atom_site_fract_z
 _atom_site_occupancy
  Zr  Zr0  1  0.00000000  0.36272700  0.50000000  1
  Zr  Zr1  1  0.36272700  0.00000000  0.50000000  1
  Zr  Zr2  1  0.63727300  0.63727300  0.50000000  1
  Zr  Zr3  1  0.00000000  0.63727300  0.50000000  1
  Zr  Zr4  1  0.63727300  0.00000000  0.50000000  1
  Zr  Zr5  1  0.36272700  0.36272700  0.50000000  1
  Zr  Zr6  1  0.29787100  0.29787100  0.00000000  1
  Zr  Zr7  1  0.00000000  0.70212900  0.00000000  1
  Zr  Zr8  1  0.70212900  0.00000000  0.00000000  1
  Zr  Zr9  1  0.70212900  0.70212900  0.00000000  1
  Zr  Zr10  1  0.00000000  0.29787100  0.00000000  1
  Zr  Zr11  1  0.29787100  0.00000000  0.00000000  1
  Zr  Zr12  1  0.33333300  0.66666700  0.51138400  1
  Zr  Zr13  1  0.66666700  0.33333300  0.48861600  1
  Zr  Zr14  1  0.00000000  0.00000000  0.00000000  1
  Te  Te15  1  0.22450100  0.77549900  0.24479900  1
  Te  Te16  1  0.55099700  0.77549900  0.24479900  1
  Te  Te17  1  0.22450100  0.44900300  0.24479900  1
  Te  Te18  1  0.77549900  0.55099700  0.75520100  1
  Te  Te19  1  0.77549900  0.22450100  0.75520100  1
  Te  Te20  1  0.44900300  0.22450100  0.75520100  1
  Te  Te21  1  0.11760000  0.55880000  0.79089200  1
  Te  Te22  1  0.44120000  0.55880000  0.79089200  1
  Te  Te23  1  0.44120000  0.88240000  0.79089200  1
  Te  Te24  1  0.55880000  0.44120000  0.20910800  1
  Te  Te25  1  0.88240000  0.44120000  0.20910800  1
  Te  Te26  1  0.55880000  0.11760000  0.20910800  1
  Te  Te27  1  0.10654800  0.21309600  0.71096700  1
  Te  Te28  1  0.78690400  0.89345200  0.71096700  1
  Te  Te29  1  0.10654800  0.89345200  0.71096700  1
  Te  Te30  1  0.89345200  0.78690400  0.28903300  1
  Te  Te31  1  0.89345200  0.10654800  0.28903300  1
  Te  Te32  1  0.21309600  0.10654800  0.28903300  1
