data_image0
_chemical_formula_structural       F2NpO2
_chemical_formula_sum              "F2 Np1 O2"
_cell_length_a       5.3576
_cell_length_b       5.3576
_cell_length_c       5.3576
_cell_angle_alpha    45.7941
_cell_angle_beta     45.7941
_cell_angle_gamma    45.7941

_space_group_name_H-M_alt    "P 1"
_space_group_IT_number       1

loop_
  _space_group_symop_operation_xyz
  'x, y, z'

loop_
  _atom_site_type_symbol
  _atom_site_label
  _atom_site_symmetry_multiplicity
  _atom_site_fract_x
  _atom_site_fract_y
  _atom_site_fract_z
  _atom_site_occupancy
  F   F1        1.0  0.33400  0.33400  0.33400  1.0000
  F   F2        1.0  0.66600  0.66600  0.66600  1.0000
  Np  Np1       1.0  0.00000  0.00000  0.00000  1.0000
  O   O1        1.0  0.12000  0.12000  0.12000  1.0000
  O   O2        1.0  0.88000  0.88000  0.88000  1.0000
