# generated using pymatgen
data_C2S9N2
_symmetry_space_group_name_H-M   'P 1'
_cell_length_a   6.14647300
_cell_length_b   9.03593800
_cell_length_c   13.15199691
_cell_angle_alpha   77.11743313
_cell_angle_beta   90.00000000
_cell_angle_gamma   90.00000000
_symmetry_Int_Tables_number   1
_chemical_formula_structural   C2S9N2
_chemical_formula_sum   'C4 S18 N4'
_cell_volume   712.06459615
_cell_formula_units_Z   2
loop_
 _symmetry_equiv_pos_site_id
 _symmetry_equiv_pos_as_xyz
  1  'x, y, z'
loop_
 _atom_site_type_symbol
 _atom_site_label
 _atom_site_symmetry_multiplicity
 _atom_site_fract_x
 _atom_site_fract_y
 _atom_site_fract_z
 _atom_site_occupancy
  C  C0  1  0.32930900  0.54769000  0.75191300  1
  C  C1  1  0.82930900  0.45231000  0.24808700  1
  C  C2  1  0.93454300  0.30246500  0.52175300  1
  C  C3  1  0.43454300  0.69753500  0.47824700  1
  S  S4  1  0.05501800  0.54552000  0.74955900  1
  S  S5  1  0.55501800  0.45448000  0.25044100  1
  S  S6  1  0.98327200  0.49518500  0.90990500  1
  S  S7  1  0.48327200  0.50481500  0.09009500  1
  S  S8  1  0.00216400  0.26549900  0.96234900  1
  S  S9  1  0.50216400  0.73450100  0.03765100  1
  S  S10  1  0.70195700  0.17128300  0.94037700  1
  S  S11  1  0.20195700  0.82871700  0.05962300  1
  S  S12  1  0.69383100  0.14634400  0.78826000  1
  S  S13  1  0.19383100  0.85365600  0.21174000  1
  S  S14  1  0.83799200  0.94353900  0.77924700  1
  S  S15  1  0.33799200  0.05646100  0.22075300  1
  S  S16  1  0.16670100  0.98850400  0.74990300  1
  S  S17  1  0.66670100  0.01149600  0.25009700  1
  S  S18  1  0.21491400  0.03809700  0.59253800  1
  S  S19  1  0.71491400  0.96190300  0.40746200  1
  S  S20  1  0.20406100  0.27554500  0.53921800  1
  S  S21  1  0.70406100  0.72445500  0.46078200  1
  N  N22  1  0.52026000  0.54963900  0.74902300  1
  N  N23  1  0.02026000  0.45036100  0.25097700  1
  N  N24  1  0.74747800  0.32689100  0.50933700  1
  N  N25  1  0.24747800  0.67310900  0.49066300  1
