# generated using pymatgen
data_C3S8
_symmetry_space_group_name_H-M   'P 1'
_cell_length_a   4.99789700
_cell_length_b   9.37570921
_cell_length_c   12.56233036
_cell_angle_alpha   99.94975394
_cell_angle_beta   98.36243984
_cell_angle_gamma   90.58947979
_symmetry_Int_Tables_number   1
_chemical_formula_structural   C3S8
_chemical_formula_sum   'C6 S16'
_cell_volume   573.25898732
_cell_formula_units_Z   2
loop_
 _symmetry_equiv_pos_site_id
 _symmetry_equiv_pos_as_xyz
  1  'x, y, z'
loop_
 _atom_site_type_symbol
 _atom_site_label
 _atom_site_symmetry_multiplicity
 _atom_site_fract_x
 _atom_site_fract_y
 _atom_site_fract_z
 _atom_site_occupancy
  C  C0  1  0.69403300  0.85682400  0.79107600  1
  C  C1  1  0.30596700  0.14317600  0.20892400  1
  C  C2  1  0.65839900  0.79163100  0.68302100  1
  C  C3  1  0.34160100  0.20836900  0.31697900  1
  C  C4  1  0.36949600  0.02658800  0.68814300  1
  C  C5  1  0.63050400  0.97341200  0.31185700  1
  S  S6  1  0.18612500  0.36476900  0.37507400  1
  S  S7  1  0.81387500  0.63523100  0.62492600  1
  S  S8  1  0.37887400  0.53419600  0.32709300  1
  S  S9  1  0.62112600  0.46580400  0.67290700  1
  S  S10  1  0.16415900  0.55099100  0.17614200  1
  S  S11  1  0.83584100  0.44900900  0.82385800  1
  S  S12  1  0.29645000  0.37971900  0.07189600  1
  S  S13  1  0.70355000  0.62028100  0.92810400  1
  S  S14  1  0.09698000  0.19842200  0.09915500  1
  S  S15  1  0.90302000  0.80157800  0.90084500  1
  S  S16  1  0.52250900  0.01621200  0.82052000  1
  S  S17  1  0.47749100  0.98378800  0.17948000  1
  S  S18  1  0.44607500  0.87867400  0.59389000  1
  S  S19  1  0.55392500  0.12132600  0.40611000  1
  S  S20  1  0.17248300  0.15733100  0.65657100  1
  S  S21  1  0.82751700  0.84266900  0.34342900  1
