data_image0
_chemical_formula_structural       NiS4V2
_chemical_formula_sum              "Ni1 S4 V2"
_cell_length_a       3.21706
_cell_length_b       5.82914
_cell_length_c       6.29137
_cell_angle_alpha    114.974
_cell_angle_beta     104.813
_cell_angle_gamma    90

_space_group_name_H-M_alt    "P 1"
_space_group_IT_number       1

loop_
  _space_group_symop_operation_xyz
  'x, y, z'

loop_
  _atom_site_type_symbol
  _atom_site_label
  _atom_site_symmetry_multiplicity
  _atom_site_fract_x
  _atom_site_fract_y
  _atom_site_fract_z
  _atom_site_occupancy
  Ni  Ni1       1.0  0.00000  0.00000  0.00000  1.0000
  S   S1        1.0  0.10700  0.44700  0.21400  1.0000
  S   S2        1.0  0.63900  0.98000  0.27800  1.0000
  S   S3        1.0  0.36100  0.02040  0.72200  1.0000
  S   S4        1.0  0.89300  0.55300  0.78600  1.0000
  V   V1        1.0  0.74200  0.69100  0.48400  1.0000
  V   V2        1.0  0.25800  0.30900  0.51600  1.0000
