data_image0
_chemical_formula_structural       Ir4Nb4Si4
_chemical_formula_sum              "Ir4 Nb4 Si4"
_cell_length_a       6.4574
_cell_length_b       3.81947
_cell_length_c       7.33242
_cell_angle_alpha    90
_cell_angle_beta     90
_cell_angle_gamma    90

_space_group_name_H-M_alt    "P 1"
_space_group_IT_number       1

loop_
  _space_group_symop_operation_xyz
  'x, y, z'

loop_
  _atom_site_type_symbol
  _atom_site_label
  _atom_site_symmetry_multiplicity
  _atom_site_fract_x
  _atom_site_fract_y
  _atom_site_fract_z
  _atom_site_occupancy
  Ir  Ir1       1.0  0.85400  0.25000  0.06310  1.0000
  Ir  Ir2       1.0  0.35400  0.25000  0.43700  1.0000
  Ir  Ir3       1.0  0.64600  0.75000  0.56300  1.0000
  Ir  Ir4       1.0  0.14600  0.75000  0.93700  1.0000
  Nb  Nb1       1.0  0.52400  0.75000  0.17200  1.0000
  Nb  Nb2       1.0  0.02400  0.75000  0.32800  1.0000
  Nb  Nb3       1.0  0.97600  0.25000  0.67200  1.0000
  Nb  Nb4       1.0  0.47600  0.25000  0.82800  1.0000
  Si  Si1       1.0  0.23000  0.25000  0.12500  1.0000
  Si  Si2       1.0  0.73000  0.25000  0.37500  1.0000
  Si  Si3       1.0  0.27000  0.75000  0.62500  1.0000
  Si  Si4       1.0  0.77000  0.75000  0.87500  1.0000
