data_image0
_chemical_formula_structural       Ba4Ir2O12Sc2
_chemical_formula_sum              "Ba4 Ir2 O12 Sc2"
_cell_length_a       5.76912
_cell_length_b       5.7688
_cell_length_c       8.15767
_cell_angle_alpha    90
_cell_angle_beta     89.9445
_cell_angle_gamma    90

_space_group_name_H-M_alt    "P 1"
_space_group_IT_number       1

loop_
  _space_group_symop_operation_xyz
  'x, y, z'

loop_
  _atom_site_type_symbol
  _atom_site_label
  _atom_site_symmetry_multiplicity
  _atom_site_fract_x
  _atom_site_fract_y
  _atom_site_fract_z
  _atom_site_occupancy
  Ba  Ba1       1.0  0.00000  0.99997  0.25000  1.0000
  Ba  Ba2       1.0  0.50000  0.50000  0.25000  1.0000
  Ba  Ba3       1.0  0.50000  0.50000  0.75000  1.0000
  Ba  Ba4       1.0  0.00023  0.00003  0.75000  1.0000
  Ir  Ir1       1.0  0.50000  0.00000  0.00000  1.0000
  Ir  Ir2       1.0  0.00000  0.50000  0.50000  1.0000
  O   O1        1.0  0.25700  0.75600  0.00017  1.0000
  O   O2        1.0  0.74400  0.75700  0.00062  1.0000
  O   O3        1.0  0.50000  0.00000  0.24300  1.0000
  O   O4        1.0  0.00013  0.50000  0.25700  1.0000
  O   O5        1.0  0.75600  0.25700  0.49900  1.0000
  O   O6        1.0  0.24300  0.25600  0.50000  1.0000
  O   O7        1.0  0.75700  0.74400  0.50000  1.0000
  O   O8        1.0  0.24400  0.74300  0.50100  1.0000
  O   O9        1.0  0.00000  0.50000  0.74300  1.0000
  O   O10       1.0  0.50000  0.00037  0.75700  1.0000
  O   O11       1.0  0.25600  0.24300  0.99900  1.0000
  O   O12       1.0  0.74300  0.24400  0.00000  1.0000
  Sc  Sc1       1.0  0.00000  0.50000  0.00000  1.0000
  Sc  Sc2       1.0  0.50000  0.00000  0.50000  1.0000
