data_image0
_chemical_formula_structural       Nb2O12Sc2Sr4
_chemical_formula_sum              "Nb2 O12 Sc2 Sr4"
_cell_length_a       5.70909
_cell_length_b       5.71587
_cell_length_c       8.05422
_cell_angle_alpha    90
_cell_angle_beta     90.0505
_cell_angle_gamma    90

_space_group_name_H-M_alt    "P 1"
_space_group_IT_number       1

loop_
  _space_group_symop_operation_xyz
  'x, y, z'

loop_
  _atom_site_type_symbol
  _atom_site_label
  _atom_site_symmetry_multiplicity
  _atom_site_fract_x
  _atom_site_fract_y
  _atom_site_fract_z
  _atom_site_occupancy
  Nb  Nb1       1.0  0.50000  0.00000  0.00000  1.0000
  Nb  Nb2       1.0  0.00000  0.50000  0.50000  1.0000
  O   O1        1.0  0.77200  0.78300  0.03560  1.0000
  O   O2        1.0  0.71600  0.27400  0.03610  1.0000
  O   O3        1.0  0.43200  0.98800  0.24500  1.0000
  O   O4        1.0  0.06810  0.48800  0.25500  1.0000
  O   O5        1.0  0.78400  0.77400  0.46400  1.0000
  O   O6        1.0  0.72800  0.28300  0.46400  1.0000
  O   O7        1.0  0.27200  0.71700  0.53600  1.0000
  O   O8        1.0  0.21600  0.22600  0.53600  1.0000
  O   O9        1.0  0.93200  0.51200  0.74500  1.0000
  O   O10       1.0  0.56800  0.01150  0.75500  1.0000
  O   O11       1.0  0.28400  0.72600  0.96400  1.0000
  O   O12       1.0  0.22800  0.21700  0.96400  1.0000
  Sc  Sc1       1.0  0.00000  0.50000  0.00000  1.0000
  Sc  Sc2       1.0  0.50000  0.00000  0.50000  1.0000
  Sr  Sr1       1.0  0.99400  0.02390  0.25000  1.0000
  Sr  Sr2       1.0  0.50600  0.52400  0.25000  1.0000
  Sr  Sr3       1.0  0.49400  0.47600  0.75000  1.0000
  Sr  Sr4       1.0  0.00552  0.97600  0.75000  1.0000
