# generated using pymatgen
data_H4C7O
_symmetry_space_group_name_H-M   'P 1'
_cell_length_a   4.27282400
_cell_length_b   8.04544400
_cell_length_c   16.03313424
_cell_angle_alpha   75.20562235
_cell_angle_beta   90.00000000
_cell_angle_gamma   90.00000000
_symmetry_Int_Tables_number   1
_chemical_formula_structural   H4C7O
_chemical_formula_sum   'H16 C28 O4'
_cell_volume   532.89525729
_cell_formula_units_Z   4
loop_
 _symmetry_equiv_pos_site_id
 _symmetry_equiv_pos_as_xyz
  1  'x, y, z'
loop_
 _atom_site_type_symbol
 _atom_site_label
 _atom_site_symmetry_multiplicity
 _atom_site_fract_x
 _atom_site_fract_y
 _atom_site_fract_z
 _atom_site_occupancy
  H  H0  1  0.94801100  0.67643800  0.75027200  1
  H  H1  1  0.44801100  0.32356200  0.74972800  1
  H  H2  1  0.05198900  0.32356200  0.24972800  1
  H  H3  1  0.55198900  0.67643800  0.25027200  1
  H  H4  1  0.18754800  0.96704600  0.70632400  1
  H  H5  1  0.68754800  0.03295400  0.79367600  1
  H  H6  1  0.81245200  0.03295400  0.29367600  1
  H  H7  1  0.31245200  0.96704600  0.20632400  1
  H  H8  1  0.24067200  0.58291800  0.50805200  1
  H  H9  1  0.74067200  0.41708200  0.99194800  1
  H  H10  1  0.75932800  0.41708200  0.49194800  1
  H  H11  1  0.25932800  0.58291800  0.00805200  1
  H  H12  1  0.97171300  0.48233400  0.65027700  1
  H  H13  1  0.47171300  0.51766600  0.84972300  1
  H  H14  1  0.02828700  0.51766600  0.34972300  1
  H  H15  1  0.52828700  0.48233400  0.15027700  1
  C  C16  1  0.93659400  0.28171900  0.31226400  1
  C  C17  1  0.80255500  0.11848500  0.33649800  1
  C  C18  1  0.69744500  0.11848500  0.83649800  1
  C  C19  1  0.19744500  0.88151500  0.66350200  1
  C  C20  1  0.43659400  0.71828100  0.18773600  1
  C  C21  1  0.01306400  0.11391000  0.05904400  1
  C  C22  1  0.56340600  0.28171900  0.81226400  1
  C  C23  1  0.06340600  0.71828100  0.68773600  1
  C  C24  1  0.34586500  0.93899300  0.58331600  1
  C  C25  1  0.51306400  0.88609000  0.44095600  1
  C  C26  1  0.98693600  0.88609000  0.94095600  1
  C  C27  1  0.48693600  0.11391000  0.55904400  1
  C  C28  1  0.42246400  0.60997300  0.13188400  1
  C  C29  1  0.92246400  0.39002700  0.36811600  1
  C  C30  1  0.57753600  0.39002700  0.86811600  1
  C  C31  1  0.07753600  0.60997300  0.63188400  1
  C  C32  1  0.27424100  0.66560600  0.05216500  1
  C  C33  1  0.84586500  0.06100700  0.91668400  1
  C  C34  1  0.65413500  0.06100700  0.41668400  1
  C  C35  1  0.15413500  0.93899300  0.08331600  1
  C  C36  1  0.35971000  0.82985500  0.52694400  1
  C  C37  1  0.85971000  0.17014500  0.97305600  1
  C  C38  1  0.64029000  0.17014500  0.47305600  1
  C  C39  1  0.14029000  0.82985500  0.02694400  1
  C  C40  1  0.22575900  0.66560600  0.55216500  1
  C  C41  1  0.72575900  0.33439400  0.94783500  1
  C  C42  1  0.77424100  0.33439400  0.44783500  1
  C  C43  1  0.30255500  0.88151500  0.16350200  1
  O  O44  1  0.47804000  0.20919400  0.60876600  1
  O  O45  1  0.97804000  0.79080600  0.89123400  1
  O  O46  1  0.52196000  0.79080600  0.39123400  1
  O  O47  1  0.02196000  0.20919400  0.10876600  1
