data_image0
_chemical_formula_structural       Fe2O12Sr4Ta2
_chemical_formula_sum              "Fe2 O12 Sr4 Ta2"
_cell_length_a       5.61548
_cell_length_b       5.60792
_cell_length_c       7.93795
_cell_angle_alpha    90
_cell_angle_beta     89.9918
_cell_angle_gamma    90

_space_group_name_H-M_alt    "P 1"
_space_group_IT_number       1

loop_
  _space_group_symop_operation_xyz
  'x, y, z'

loop_
  _atom_site_type_symbol
  _atom_site_label
  _atom_site_symmetry_multiplicity
  _atom_site_fract_x
  _atom_site_fract_y
  _atom_site_fract_z
  _atom_site_occupancy
  Fe  Fe1       1.0  0.00000  0.50000  0.00000  1.0000
  Fe  Fe2       1.0  0.50000  0.00000  0.50000  1.0000
  O   O1        1.0  0.77200  0.77500  0.02500  1.0000
  O   O2        1.0  0.72500  0.27200  0.02520  1.0000
  O   O3        1.0  0.45100  0.99500  0.24800  1.0000
  O   O4        1.0  0.04910  0.49500  0.25200  1.0000
  O   O5        1.0  0.77500  0.77200  0.47500  1.0000
  O   O6        1.0  0.72800  0.27500  0.47500  1.0000
  O   O7        1.0  0.27200  0.72500  0.52500  1.0000
  O   O8        1.0  0.22500  0.22800  0.52500  1.0000
  O   O9        1.0  0.95100  0.50500  0.74800  1.0000
  O   O10       1.0  0.54900  0.00533  0.75200  1.0000
  O   O11       1.0  0.27500  0.72800  0.97500  1.0000
  O   O12       1.0  0.22800  0.22500  0.97500  1.0000
  Sr  Sr1       1.0  0.99800  0.01460  0.25000  1.0000
  Sr  Sr2       1.0  0.50200  0.51500  0.25000  1.0000
  Sr  Sr3       1.0  0.49800  0.48500  0.75000  1.0000
  Sr  Sr4       1.0  0.00210  0.98500  0.75000  1.0000
  Ta  Ta1       1.0  0.50000  0.00000  0.00000  1.0000
  Ta  Ta2       1.0  1.00000  0.50000  0.50000  1.0000
