data_image0
_chemical_formula_structural       Ir2O12Sr4Ti2
_chemical_formula_sum              "Ir2 O12 Sr4 Ti2"
_cell_length_a       5.58175
_cell_length_b       7.825
_cell_length_c       5.58263
_cell_angle_alpha    90
_cell_angle_beta     90.0428
_cell_angle_gamma    90

_space_group_name_H-M_alt    "P 1"
_space_group_IT_number       1

loop_
  _space_group_symop_operation_xyz
  'x, y, z'

loop_
  _atom_site_type_symbol
  _atom_site_label
  _atom_site_symmetry_multiplicity
  _atom_site_fract_x
  _atom_site_fract_y
  _atom_site_fract_z
  _atom_site_occupancy
  Ir  Ir1       1.0  0.00000  0.00000  0.00000  1.0000
  Ir  Ir2       1.0  0.00000  0.50000  0.00000  1.0000
  O   O1        1.0  0.01800  0.25000  0.07470  1.0000
  O   O2        1.0  0.26800  0.53000  0.23800  1.0000
  O   O3        1.0  0.26800  0.97000  0.23800  1.0000
  O   O4        1.0  0.76000  0.52400  0.26500  1.0000
  O   O5        1.0  0.76000  0.97600  0.26500  1.0000
  O   O6        1.0  0.49900  0.25000  0.45500  1.0000
  O   O7        1.0  0.50100  0.75000  0.54500  1.0000
  O   O8        1.0  0.24000  0.02360  0.73500  1.0000
  O   O9        1.0  0.24000  0.47600  0.73500  1.0000
  O   O10       1.0  0.73200  0.03000  0.76200  1.0000
  O   O11       1.0  0.73200  0.47000  0.76200  1.0000
  O   O12       1.0  0.98200  0.75000  0.92500  1.0000
  Sr  Sr1       1.0  0.48600  0.25000  0.00153  1.0000
  Sr  Sr2       1.0  0.01300  0.75000  0.48700  1.0000
  Sr  Sr3       1.0  0.98700  0.25000  0.51300  1.0000
  Sr  Sr4       1.0  0.51400  0.75000  0.99800  1.0000
  Ti  Ti1       1.0  0.50000  0.00000  0.50000  1.0000
  Ti  Ti2       1.0  0.50000  0.50000  0.50000  1.0000
