# generated using pymatgen
data_Ba(CO)4
_symmetry_space_group_name_H-M   'P 1'
_cell_length_a   7.76092570
_cell_length_b   7.76092570
_cell_length_c   7.76092570
_cell_angle_alpha   130.78183265
_cell_angle_beta   130.78183265
_cell_angle_gamma   72.15993113
_symmetry_Int_Tables_number   1
_chemical_formula_structural   Ba(CO)4
_chemical_formula_sum   'Ba2 C8 O8'
_cell_volume   262.05391180
_cell_formula_units_Z   2
loop_
 _symmetry_equiv_pos_site_id
 _symmetry_equiv_pos_as_xyz
  1  'x, y, z'
loop_
 _atom_site_type_symbol
 _atom_site_label
 _atom_site_symmetry_multiplicity
 _atom_site_fract_x
 _atom_site_fract_y
 _atom_site_fract_z
 _atom_site_occupancy
  Ba  Ba0  1  0.75000000  0.75000000  0.00000000  1
  Ba  Ba1  1  0.25000000  0.25000000  0.00000000  1
  C  C2  1  0.63919800  0.97827900  0.50000000  1
  C  C3  1  0.36080200  0.02172100  0.50000000  1
  C  C4  1  0.02172100  0.52172100  0.66091900  1
  C  C5  1  0.97827900  0.47827900  0.33908100  1
  C  C6  1  0.13919800  0.63919800  0.66091900  1
  C  C7  1  0.47827900  0.13919800  0.50000000  1
  C  C8  1  0.52172100  0.86080200  0.50000000  1
  C  C9  1  0.86080200  0.36080200  0.33908100  1
  O  O10  1  0.19161600  0.04683100  0.50000000  1
  O  O11  1  0.80838400  0.95316900  0.50000000  1
  O  O12  1  0.04683100  0.54683100  0.85521600  1
  O  O13  1  0.95316900  0.45316900  0.14478400  1
  O  O14  1  0.30838400  0.80838400  0.85521600  1
  O  O15  1  0.45316900  0.30838400  0.50000000  1
  O  O16  1  0.54683100  0.69161600  0.50000000  1
  O  O17  1  0.69161600  0.19161600  0.14478400  1
