data_image0
_chemical_formula_structural       FeO6OsSr2
_chemical_formula_sum              "Fe1 O6 Os1 Sr2"
_cell_length_a       5.57018
_cell_length_b       5.57018
_cell_length_c       5.57018
_cell_angle_alpha    120
_cell_angle_beta     90
_cell_angle_gamma    120

_space_group_name_H-M_alt    "P 1"
_space_group_IT_number       1

loop_
  _space_group_symop_operation_xyz
  'x, y, z'

loop_
  _atom_site_type_symbol
  _atom_site_label
  _atom_site_symmetry_multiplicity
  _atom_site_fract_x
  _atom_site_fract_y
  _atom_site_fract_z
  _atom_site_occupancy
  Fe  Fe1       1.0  0.50000  0.00000  0.50000  1.0000
  O   O1        1.0  0.24700  0.00000  0.24700  1.0000
  O   O2        1.0  0.75300  0.00000  0.24700  1.0000
  O   O3        1.0  0.24700  0.49500  0.24700  1.0000
  O   O4        1.0  0.24700  0.00000  0.75300  1.0000
  O   O5        1.0  0.75300  0.50500  0.75300  1.0000
  O   O6        1.0  0.75300  0.00000  0.75300  1.0000
  Os  Os1       1.0  0.00000  0.00000  0.00000  1.0000
  Sr  Sr1       1.0  0.75000  0.50000  0.25000  1.0000
  Sr  Sr2       1.0  0.25000  0.50000  0.75000  1.0000
