data_image0
_chemical_formula_structural       FeIrO6Sr2
_chemical_formula_sum              "Fe1 Ir1 O6 Sr2"
_cell_length_a       5.54634
_cell_length_b       5.54361
_cell_length_c       5.5517
_cell_angle_alpha    119.429
_cell_angle_beta     60.1365
_cell_angle_gamma    119.656

_space_group_name_H-M_alt    "P 1"
_space_group_IT_number       1

loop_
  _space_group_symop_operation_xyz
  'x, y, z'

loop_
  _atom_site_type_symbol
  _atom_site_label
  _atom_site_symmetry_multiplicity
  _atom_site_fract_x
  _atom_site_fract_y
  _atom_site_fract_z
  _atom_site_occupancy
  Fe  Fe1       1.0  0.00000  0.50000  0.50000  1.0000
  Ir  Ir1       1.0  0.50000  0.00000  0.00000  1.0000
  O   O1        1.0  0.25700  0.70300  0.20100  1.0000
  O   O2        1.0  0.21500  0.21200  0.26800  1.0000
  O   O3        1.0  0.71800  0.23600  0.27900  1.0000
  O   O4        1.0  0.28200  0.76400  0.72100  1.0000
  O   O5        1.0  0.78500  0.78800  0.73200  1.0000
  O   O6        1.0  0.74300  0.29700  0.79900  1.0000
  Sr  Sr1       1.0  0.74900  0.75100  0.25200  1.0000
  Sr  Sr2       1.0  0.25100  0.24900  0.74800  1.0000
