# generated using pymatgen
data_Mg13Au41
_symmetry_space_group_name_H-M   'P 1'
_cell_length_a   15.23408645
_cell_length_b   15.23408645
_cell_length_c   9.62161000
_cell_angle_alpha   90.00000000
_cell_angle_beta   90.00000000
_cell_angle_gamma   120.00000196
_symmetry_Int_Tables_number   1
_chemical_formula_structural   Mg13Au41
_chemical_formula_sum   'Mg26 Au82'
_cell_volume   1933.79843348
_cell_formula_units_Z   2
loop_
 _symmetry_equiv_pos_site_id
 _symmetry_equiv_pos_as_xyz
  1  'x, y, z'
loop_
 _atom_site_type_symbol
 _atom_site_label
 _atom_site_symmetry_multiplicity
 _atom_site_fract_x
 _atom_site_fract_y
 _atom_site_fract_z
 _atom_site_occupancy
  Mg  Mg0  1  0.00000000  0.00000000  0.00000000  1
  Mg  Mg1  1  0.00000000  0.00000000  0.50000000  1
  Mg  Mg2  1  0.44535400  0.00000000  0.25000000  1
  Mg  Mg3  1  0.44535400  0.44535400  0.75000000  1
  Mg  Mg4  1  0.00000000  0.55464600  0.75000000  1
  Mg  Mg5  1  0.00000000  0.44535400  0.25000000  1
  Mg  Mg6  1  0.55464600  0.55464600  0.25000000  1
  Mg  Mg7  1  0.55464600  0.00000000  0.75000000  1
  Mg  Mg8  1  0.77586300  0.00000000  0.25000000  1
  Mg  Mg9  1  0.77586300  0.77586300  0.75000000  1
  Mg  Mg10  1  0.00000000  0.22413700  0.75000000  1
  Mg  Mg11  1  0.00000000  0.77586300  0.25000000  1
  Mg  Mg12  1  0.22413700  0.22413700  0.25000000  1
  Mg  Mg13  1  0.22413700  0.00000000  0.75000000  1
  Mg  Mg14  1  0.22315000  0.44630000  0.00000000  1
  Mg  Mg15  1  0.77685000  0.22315000  0.50000000  1
  Mg  Mg16  1  0.44630000  0.22315000  0.50000000  1
  Mg  Mg17  1  0.55370000  0.77685000  0.00000000  1
  Mg  Mg18  1  0.22315000  0.77685000  0.00000000  1
  Mg  Mg19  1  0.77685000  0.55370000  0.50000000  1
  Mg  Mg20  1  0.77685000  0.55370000  0.00000000  1
  Mg  Mg21  1  0.22315000  0.77685000  0.50000000  1
  Mg  Mg22  1  0.55370000  0.77685000  0.50000000  1
  Mg  Mg23  1  0.44630000  0.22315000  0.00000000  1
  Mg  Mg24  1  0.77685000  0.22315000  0.00000000  1
  Mg  Mg25  1  0.22315000  0.44630000  0.50000000  1
  Au  Au26  1  0.33333300  0.66666700  0.00000000  1
  Au  Au27  1  0.66666700  0.33333300  0.50000000  1
  Au  Au28  1  0.66666700  0.33333300  0.00000000  1
  Au  Au29  1  0.33333300  0.66666700  0.50000000  1
  Au  Au30  1  0.10963000  0.00000000  0.25000000  1
  Au  Au31  1  0.10963000  0.10963000  0.75000000  1
  Au  Au32  1  0.00000000  0.89037000  0.75000000  1
  Au  Au33  1  0.00000000  0.10963000  0.25000000  1
  Au  Au34  1  0.89037000  0.89037000  0.25000000  1
  Au  Au35  1  0.89037000  0.00000000  0.75000000  1
  Au  Au36  1  0.11079500  0.22159000  0.00000000  1
  Au  Au37  1  0.88920500  0.11079500  0.50000000  1
  Au  Au38  1  0.22159000  0.11079500  0.50000000  1
  Au  Au39  1  0.77841000  0.88920500  0.00000000  1
  Au  Au40  1  0.11079500  0.88920500  0.00000000  1
  Au  Au41  1  0.88920500  0.77841000  0.50000000  1
  Au  Au42  1  0.88920500  0.77841000  0.00000000  1
  Au  Au43  1  0.11079500  0.88920500  0.50000000  1
  Au  Au44  1  0.77841000  0.88920500  0.50000000  1
  Au  Au45  1  0.22159000  0.11079500  0.00000000  1
  Au  Au46  1  0.88920500  0.11079500  0.00000000  1
  Au  Au47  1  0.11079500  0.22159000  0.50000000  1
  Au  Au48  1  0.44498900  0.88997800  0.00000000  1
  Au  Au49  1  0.55501100  0.44498900  0.50000000  1
  Au  Au50  1  0.88997800  0.44498900  0.50000000  1
  Au  Au51  1  0.11002200  0.55501100  0.00000000  1
  Au  Au52  1  0.44498900  0.55501100  0.00000000  1
  Au  Au53  1  0.55501100  0.11002200  0.50000000  1
  Au  Au54  1  0.55501100  0.11002200  0.00000000  1
  Au  Au55  1  0.44498900  0.55501100  0.50000000  1
  Au  Au56  1  0.11002200  0.55501100  0.50000000  1
  Au  Au57  1  0.88997800  0.44498900  0.00000000  1
  Au  Au58  1  0.55501100  0.44498900  0.00000000  1
  Au  Au59  1  0.44498900  0.88997800  0.50000000  1
  Au  Au60  1  0.22093300  0.55147900  0.25000000  1
  Au  Au61  1  0.66945400  0.22093300  0.75000000  1
  Au  Au62  1  0.55147900  0.33054600  0.75000000  1
  Au  Au63  1  0.44852100  0.66945400  0.25000000  1
  Au  Au64  1  0.33054600  0.77906700  0.25000000  1
  Au  Au65  1  0.66945400  0.44852100  0.25000000  1
  Au  Au66  1  0.77906700  0.33054600  0.25000000  1
  Au  Au67  1  0.77906700  0.44852100  0.75000000  1
  Au  Au68  1  0.55147900  0.22093300  0.25000000  1
  Au  Au69  1  0.44852100  0.77906700  0.75000000  1
  Au  Au70  1  0.33054600  0.55147900  0.75000000  1
  Au  Au71  1  0.22093300  0.66945400  0.75000000  1
  Au  Au72  1  0.11048600  0.66635100  0.25000000  1
  Au  Au73  1  0.44413500  0.11048600  0.75000000  1
  Au  Au74  1  0.66635100  0.55586500  0.75000000  1
  Au  Au75  1  0.33364900  0.44413500  0.25000000  1
  Au  Au76  1  0.55586500  0.88951400  0.25000000  1
  Au  Au77  1  0.44413500  0.33364900  0.25000000  1
  Au  Au78  1  0.88951400  0.55586500  0.25000000  1
  Au  Au79  1  0.88951400  0.33364900  0.75000000  1
  Au  Au80  1  0.66635100  0.11048600  0.25000000  1
  Au  Au81  1  0.33364900  0.88951400  0.75000000  1
  Au  Au82  1  0.55586500  0.66635100  0.75000000  1
  Au  Au83  1  0.11048600  0.44413500  0.75000000  1
  Au  Au84  1  0.11176800  0.33279300  0.25000000  1
  Au  Au85  1  0.77897400  0.11176800  0.75000000  1
  Au  Au86  1  0.33279300  0.22102600  0.75000000  1
  Au  Au87  1  0.66720700  0.77897400  0.25000000  1
  Au  Au88  1  0.22102600  0.88823200  0.25000000  1
  Au  Au89  1  0.77897400  0.66720700  0.25000000  1
  Au  Au90  1  0.88823200  0.22102600  0.25000000  1
  Au  Au91  1  0.88823200  0.66720700  0.75000000  1
  Au  Au92  1  0.33279300  0.11176800  0.25000000  1
  Au  Au93  1  0.66720700  0.88823200  0.75000000  1
  Au  Au94  1  0.22102600  0.33279300  0.75000000  1
  Au  Au95  1  0.11176800  0.77897400  0.75000000  1
  Au  Au96  1  0.33195000  0.00000000  0.00089500  1
  Au  Au97  1  0.33195000  0.33195000  0.50089500  1
  Au  Au98  1  0.00000000  0.66805000  0.50089500  1
  Au  Au99  1  0.00000000  0.33195000  0.00089500  1
  Au  Au100  1  0.66805000  0.66805000  0.00089500  1
  Au  Au101  1  0.33195000  0.00000000  0.49910500  1
  Au  Au102  1  0.66805000  0.66805000  0.49910500  1
  Au  Au103  1  0.66805000  0.00000000  0.50089500  1
  Au  Au104  1  0.00000000  0.33195000  0.49910500  1
  Au  Au105  1  0.00000000  0.66805000  0.99910500  1
  Au  Au106  1  0.66805000  0.00000000  0.99910500  1
  Au  Au107  1  0.33195000  0.33195000  0.99910500  1
