# generated using pymatgen
data_CaCu
_symmetry_space_group_name_H-M   'P 1'
_cell_length_a   4.23316700
_cell_length_b   5.81806400
_cell_length_c   19.31077065
_cell_angle_alpha   85.65209136
_cell_angle_beta   90.00000000
_cell_angle_gamma   90.00000000
_symmetry_Int_Tables_number   1
_chemical_formula_structural   CaCu
_chemical_formula_sum   'Ca10 Cu10'
_cell_volume   474.23307461
_cell_formula_units_Z   10
loop_
 _symmetry_equiv_pos_site_id
 _symmetry_equiv_pos_as_xyz
  1  'x, y, z'
loop_
 _atom_site_type_symbol
 _atom_site_label
 _atom_site_symmetry_multiplicity
 _atom_site_fract_x
 _atom_site_fract_y
 _atom_site_fract_z
 _atom_site_occupancy
  Ca  Ca0  1  0.25000000  0.34371000  0.12844700  1
  Ca  Ca1  1  0.75000000  0.65629000  0.87155300  1
  Ca  Ca2  1  0.25000000  0.53975700  0.32836800  1
  Ca  Ca3  1  0.75000000  0.46024300  0.67163200  1
  Ca  Ca4  1  0.25000000  0.24181000  0.52817500  1
  Ca  Ca5  1  0.75000000  0.75819000  0.47182500  1
  Ca  Ca6  1  0.25000000  0.94603400  0.72835200  1
  Ca  Ca7  1  0.75000000  0.05396600  0.27164800  1
  Ca  Ca8  1  0.25000000  0.14469700  0.92818500  1
  Ca  Ca9  1  0.75000000  0.85530300  0.07181500  1
  Cu  Cu10  1  0.25000000  0.80902700  0.18774300  1
  Cu  Cu11  1  0.75000000  0.19097300  0.81225700  1
  Cu  Cu12  1  0.25000000  0.04433400  0.38772600  1
  Cu  Cu13  1  0.75000000  0.95566600  0.61227400  1
  Cu  Cu14  1  0.25000000  0.74658200  0.58779400  1
  Cu  Cu15  1  0.75000000  0.25341800  0.41220600  1
  Cu  Cu16  1  0.25000000  0.41245400  0.78775900  1
  Cu  Cu17  1  0.75000000  0.58754600  0.21224100  1
  Cu  Cu18  1  0.25000000  0.61032200  0.98771400  1
  Cu  Cu19  1  0.75000000  0.38967800  0.01228600  1
