# generated using pymatgen
data_Th6Cd7
_symmetry_space_group_name_H-M   'P 1'
_cell_length_a   6.04096900
_cell_length_b   9.93921700
_cell_length_c   11.69000400
_cell_angle_alpha   90.00000000
_cell_angle_beta   90.00000000
_cell_angle_gamma   90.00000000
_symmetry_Int_Tables_number   1
_chemical_formula_structural   Th6Cd7
_chemical_formula_sum   'Th12 Cd14'
_cell_volume   701.89708599
_cell_formula_units_Z   2
loop_
 _symmetry_equiv_pos_site_id
 _symmetry_equiv_pos_as_xyz
  1  'x, y, z'
loop_
 _atom_site_type_symbol
 _atom_site_label
 _atom_site_symmetry_multiplicity
 _atom_site_fract_x
 _atom_site_fract_y
 _atom_site_fract_z
 _atom_site_occupancy
  Th  Th0  1  0.00000000  0.65652700  0.95658400  1
  Th  Th1  1  0.00000000  0.34347300  0.04341600  1
  Th  Th2  1  0.00000000  0.15652700  0.54341600  1
  Th  Th3  1  0.00000000  0.84347300  0.45658400  1
  Th  Th4  1  0.50000000  0.83207500  0.91399000  1
  Th  Th5  1  0.50000000  0.16792500  0.08601000  1
  Th  Th6  1  0.50000000  0.33207500  0.58601000  1
  Th  Th7  1  0.50000000  0.66792500  0.41399000  1
  Th  Th8  1  0.50000000  0.45040700  0.87370300  1
  Th  Th9  1  0.50000000  0.54959300  0.12629700  1
  Th  Th10  1  0.50000000  0.95040700  0.62629700  1
  Th  Th11  1  0.50000000  0.04959300  0.37370300  1
  Cd  Cd12  1  0.00000000  0.00000000  0.00000000  1
  Cd  Cd13  1  0.00000000  0.50000000  0.50000000  1
  Cd  Cd14  1  0.00000000  0.90332600  0.75252000  1
  Cd  Cd15  1  0.00000000  0.09667400  0.24748000  1
  Cd  Cd16  1  0.00000000  0.40332600  0.74748000  1
  Cd  Cd17  1  0.00000000  0.59667400  0.25252000  1
  Cd  Cd18  1  0.74394400  0.15484100  0.81920900  1
  Cd  Cd19  1  0.74394400  0.84515900  0.18079100  1
  Cd  Cd20  1  0.25605600  0.65484100  0.68079100  1
  Cd  Cd21  1  0.25605600  0.34515900  0.31920900  1
  Cd  Cd22  1  0.25605600  0.84515900  0.18079100  1
  Cd  Cd23  1  0.25605600  0.15484100  0.81920900  1
  Cd  Cd24  1  0.74394400  0.34515900  0.31920900  1
  Cd  Cd25  1  0.74394400  0.65484100  0.68079100  1
