data_image0
_chemical_formula_structural       Ir2O12Sr4W2
_chemical_formula_sum              "Ir2 O12 Sr4 W2"
_cell_length_a       5.60464
_cell_length_b       7.95361
_cell_length_c       5.62168
_cell_angle_alpha    90
_cell_angle_beta     90.1244
_cell_angle_gamma    90

_space_group_name_H-M_alt    "P 1"
_space_group_IT_number       1

loop_
  _space_group_symop_operation_xyz
  'x, y, z'

loop_
  _atom_site_type_symbol
  _atom_site_label
  _atom_site_symmetry_multiplicity
  _atom_site_fract_x
  _atom_site_fract_y
  _atom_site_fract_z
  _atom_site_occupancy
  Ir  Ir1       1.0  0.50000  0.00000  0.00000  1.0000
  Ir  Ir2       1.0  0.50000  0.50000  0.00000  1.0000
  O   O1        1.0  0.46700  0.25000  0.09700  1.0000
  O   O2        1.0  0.21400  0.53700  0.22600  1.0000
  O   O3        1.0  0.21400  0.96300  0.22600  1.0000
  O   O4        1.0  0.72700  0.52500  0.28600  1.0000
  O   O5        1.0  0.72700  0.97500  0.28600  1.0000
  O   O6        1.0  0.00096  0.25000  0.45300  1.0000
  O   O7        1.0  0.99900  0.75000  0.54700  1.0000
  O   O8        1.0  0.27300  0.02510  0.71400  1.0000
  O   O9        1.0  0.27300  0.47500  0.71400  1.0000
  O   O10       1.0  0.78600  0.03700  0.77400  1.0000
  O   O11       1.0  0.78600  0.46300  0.77400  1.0000
  O   O12       1.0  0.53300  0.75000  0.90300  1.0000
  Sr  Sr1       1.0  0.02880  0.25000  0.00542  1.0000
  Sr  Sr2       1.0  0.48000  0.75000  0.48200  1.0000
  Sr  Sr3       1.0  0.52000  0.25000  0.51800  1.0000
  Sr  Sr4       1.0  0.97100  0.75000  0.99500  1.0000
  W   W1        1.0  0.00000  0.00000  0.50000  1.0000
  W   W2        1.0  0.00000  0.50000  0.50000  1.0000
