data_image0
_chemical_formula_structural       Cr3Ge3Nb3
_chemical_formula_sum              "Cr3 Ge3 Nb3"
_cell_length_a       6.75617
_cell_length_b       6.75617
_cell_length_c       3.37464
_cell_angle_alpha    90
_cell_angle_beta     90
_cell_angle_gamma    120.006

_space_group_name_H-M_alt    "P 1"
_space_group_IT_number       1

loop_
  _space_group_symop_operation_xyz
  'x, y, z'

loop_
  _atom_site_type_symbol
  _atom_site_label
  _atom_site_symmetry_multiplicity
  _atom_site_fract_x
  _atom_site_fract_y
  _atom_site_fract_z
  _atom_site_occupancy
  Cr  Cr1       1.0  0.25600  0.00000  0.00000  1.0000
  Cr  Cr2       1.0  0.00000  0.25600  0.00000  1.0000
  Cr  Cr3       1.0  0.74400  0.74400  0.00000  1.0000
  Ge  Ge1       1.0  0.66700  0.33300  0.00000  1.0000
  Ge  Ge2       1.0  0.33300  0.66700  0.00000  1.0000
  Ge  Ge3       1.0  0.00000  1.00000  0.50000  1.0000
  Nb  Nb1       1.0  0.59600  0.00001  0.50000  1.0000
  Nb  Nb2       1.0  0.40500  0.40500  0.50000  1.0000
  Nb  Nb3       1.0  0.00001  0.59600  0.50000  1.0000
