data_image0
_chemical_formula_structural       Cl2Na2O4
_chemical_formula_sum              "Cl2 Na2 O4"
_cell_length_a       4.54175
_cell_length_b       4.54175
_cell_length_c       6.40254
_cell_angle_alpha    70.1865
_cell_angle_beta     109.814
_cell_angle_gamma    91.7353

_space_group_name_H-M_alt    "P 1"
_space_group_IT_number       1

loop_
  _space_group_symop_operation_xyz
  'x, y, z'

loop_
  _atom_site_type_symbol
  _atom_site_label
  _atom_site_symmetry_multiplicity
  _atom_site_fract_x
  _atom_site_fract_y
  _atom_site_fract_z
  _atom_site_occupancy
  Cl  Cl1       1.0  0.85200  0.85200  0.25000  1.0000
  Cl  Cl2       1.0  0.14800  0.14800  0.75000  1.0000
  Na  Na1       1.0  0.36800  0.36800  0.25000  1.0000
  Na  Na2       1.0  0.63200  0.63200  0.75000  1.0000
  O   O1        1.0  0.84400  0.56900  0.15800  1.0000
  O   O2        1.0  0.56900  0.84400  0.34200  1.0000
  O   O3        1.0  0.43100  0.15600  0.65800  1.0000
  O   O4        1.0  0.15600  0.43100  0.84200  1.0000
