data_image0
_chemical_formula_structural       Au2Cr3Na2
_chemical_formula_sum              "Au2 Cr3 Na2"
_cell_length_a       4.76476
_cell_length_b       4.76476
_cell_length_c       7.66449
_cell_angle_alpha    71.8905
_cell_angle_beta     71.8905
_cell_angle_gamma    60

_space_group_name_H-M_alt    "P 1"
_space_group_IT_number       1

loop_
  _space_group_symop_operation_xyz
  'x, y, z'

loop_
  _atom_site_type_symbol
  _atom_site_label
  _atom_site_symmetry_multiplicity
  _atom_site_fract_x
  _atom_site_fract_y
  _atom_site_fract_z
  _atom_site_occupancy
  Au  Au1       1.0  0.97400  0.97400  0.07800  1.0000
  Au  Au2       1.0  0.49600  0.49600  0.51200  1.0000
  Cr  Cr1       1.0  0.64000  0.64000  0.08130  1.0000
  Cr  Cr2       1.0  0.09630  0.09630  0.71100  1.0000
  Cr  Cr3       1.0  0.36900  0.36900  0.89200  1.0000
  Na  Na1       1.0  0.23300  0.23300  0.30100  1.0000
  Na  Na2       1.0  0.81700  0.81700  0.55000  1.0000
