data_image0
_chemical_formula_structural       Mo3Os2Sn2
_chemical_formula_sum              "Mo3 Os2 Sn2"
_cell_length_a       4.49472
_cell_length_b       4.49472
_cell_length_c       7.52364
_cell_angle_alpha    72.6201
_cell_angle_beta     72.6201
_cell_angle_gamma    60

_space_group_name_H-M_alt    "P 1"
_space_group_IT_number       1

loop_
  _space_group_symop_operation_xyz
  'x, y, z'

loop_
  _atom_site_type_symbol
  _atom_site_label
  _atom_site_symmetry_multiplicity
  _atom_site_fract_x
  _atom_site_fract_y
  _atom_site_fract_z
  _atom_site_occupancy
  Mo  Mo1       1.0  0.63200  0.63200  0.10500  1.0000
  Mo  Mo2       1.0  0.09080  0.09080  0.72700  1.0000
  Mo  Mo3       1.0  0.37900  0.37900  0.86200  1.0000
  Os  Os1       1.0  0.97700  0.97700  0.06980  1.0000
  Os  Os2       1.0  0.51200  0.51200  0.46500  1.0000
  Sn  Sn1       1.0  0.23700  0.23700  0.29000  1.0000
  Sn  Sn2       1.0  0.79800  0.79800  0.60600  1.0000
