data_image0
_chemical_formula_structural       Cr3Mn2Ta2
_chemical_formula_sum              "Cr3 Mn2 Ta2"
_cell_length_a       4.18531
_cell_length_b       4.18531
_cell_length_c       6.87528
_cell_angle_alpha    72.2795
_cell_angle_beta     72.2795
_cell_angle_gamma    60

_space_group_name_H-M_alt    "P 1"
_space_group_IT_number       1

loop_
  _space_group_symop_operation_xyz
  'x, y, z'

loop_
  _atom_site_type_symbol
  _atom_site_label
  _atom_site_symmetry_multiplicity
  _atom_site_fract_x
  _atom_site_fract_y
  _atom_site_fract_z
  _atom_site_occupancy
  Cr  Cr1       1.0  0.62500  0.62500  0.12400  1.0000
  Cr  Cr2       1.0  0.11700  0.11700  0.65000  1.0000
  Cr  Cr3       1.0  0.37200  0.37200  0.88300  1.0000
  Mn  Mn1       1.0  0.50900  0.50900  0.47300  1.0000
  Mn  Mn2       1.0  0.00024  0.00024  0.99900  1.0000
  Ta  Ta1       1.0  0.24100  0.24100  0.27700  1.0000
  Ta  Ta2       1.0  0.76000  0.76000  0.71900  1.0000
