data_image0
_chemical_formula_structural       Ca2Cr3Ni2
_chemical_formula_sum              "Ca2 Cr3 Ni2"
_cell_length_a       4.56452
_cell_length_b       4.56452
_cell_length_c       7.87112
_cell_angle_alpha    73.1448
_cell_angle_beta     73.1448
_cell_angle_gamma    60

_space_group_name_H-M_alt    "P 1"
_space_group_IT_number       1

loop_
  _space_group_symop_operation_xyz
  'x, y, z'

loop_
  _atom_site_type_symbol
  _atom_site_label
  _atom_site_symmetry_multiplicity
  _atom_site_fract_x
  _atom_site_fract_y
  _atom_site_fract_z
  _atom_site_occupancy
  Ca  Ca1       1.0  0.23700  0.23700  0.29000  1.0000
  Ca  Ca2       1.0  0.77200  0.77200  0.68400  1.0000
  Cr  Cr1       1.0  0.63600  0.63600  0.09220  1.0000
  Cr  Cr2       1.0  0.11200  0.11200  0.66500  1.0000
  Cr  Cr3       1.0  0.36900  0.36900  0.89300  1.0000
  Ni  Ni1       1.0  0.49400  0.49400  0.51700  1.0000
  Ni  Ni2       1.0  0.00519  0.00519  0.98400  1.0000
