data_image0
_chemical_formula_structural       Cr3Re2Ta2
_chemical_formula_sum              "Cr3 Re2 Ta2"
_cell_length_a       4.23373
_cell_length_b       4.23373
_cell_length_c       7.23124
_cell_angle_alpha    72.978
_cell_angle_beta     72.978
_cell_angle_gamma    60

_space_group_name_H-M_alt    "P 1"
_space_group_IT_number       1

loop_
  _space_group_symop_operation_xyz
  'x, y, z'

loop_
  _atom_site_type_symbol
  _atom_site_label
  _atom_site_symmetry_multiplicity
  _atom_site_fract_x
  _atom_site_fract_y
  _atom_site_fract_z
  _atom_site_occupancy
  Cr  Cr1       1.0  0.62600  0.62600  0.12200  1.0000
  Cr  Cr2       1.0  0.12200  0.12200  0.63400  1.0000
  Cr  Cr3       1.0  0.37300  0.37300  0.88000  1.0000
  Re  Re1       1.0  0.99900  0.99900  0.00248  1.0000
  Re  Re2       1.0  0.50500  0.50500  0.48400  1.0000
  Ta  Ta1       1.0  0.24400  0.24400  0.26900  1.0000
  Ta  Ta2       1.0  0.75600  0.75600  0.73300  1.0000
