data_image0
_chemical_formula_structural       Co2Sc2W3
_chemical_formula_sum              "Co2 Sc2 W3"
_cell_length_a       4.40311
_cell_length_b       4.40311
_cell_length_c       7.0493
_cell_angle_alpha    71.8016
_cell_angle_beta     71.8016
_cell_angle_gamma    60

_space_group_name_H-M_alt    "P 1"
_space_group_IT_number       1

loop_
  _space_group_symop_operation_xyz
  'x, y, z'

loop_
  _atom_site_type_symbol
  _atom_site_label
  _atom_site_symmetry_multiplicity
  _atom_site_fract_x
  _atom_site_fract_y
  _atom_site_fract_z
  _atom_site_occupancy
  Co  Co1       1.0  0.95500  0.95500  0.13600  1.0000
  Co  Co2       1.0  0.51600  0.51600  0.45100  1.0000
  Sc  Sc1       1.0  0.23100  0.23100  0.30600  1.0000
  Sc  Sc2       1.0  0.80900  0.80900  0.57300  1.0000
  W   W1        1.0  0.65700  0.65700  0.02940  1.0000
  W   W2        1.0  0.08130  0.08130  0.75600  1.0000
  W   W3        1.0  0.37600  0.37600  0.87300  1.0000
