data_image0
_chemical_formula_structural       Au2Li2Mo3
_chemical_formula_sum              "Au2 Li2 Mo3"
_cell_length_a       4.35233
_cell_length_b       4.35233
_cell_length_c       7.07652
_cell_angle_alpha    72.0902
_cell_angle_beta     72.0902
_cell_angle_gamma    60

_space_group_name_H-M_alt    "P 1"
_space_group_IT_number       1

loop_
  _space_group_symop_operation_xyz
  'x, y, z'

loop_
  _atom_site_type_symbol
  _atom_site_label
  _atom_site_symmetry_multiplicity
  _atom_site_fract_x
  _atom_site_fract_y
  _atom_site_fract_z
  _atom_site_occupancy
  Au  Au1       1.0  0.93900  0.93900  0.18200  1.0000
  Au  Au2       1.0  0.51800  0.51800  0.44500  1.0000
  Li  Li1       1.0  0.23200  0.23200  0.30500  1.0000
  Li  Li2       1.0  0.80800  0.80800  0.57500  1.0000
  Mo  Mo1       1.0  0.08060  0.08060  0.75800  1.0000
  Mo  Mo2       1.0  0.37700  0.37700  0.87000  1.0000
  Mo  Mo3       1.0  0.67000  0.67000  0.99000  1.0000
