data_image0
_chemical_formula_structural       Cr3Ru2Sn2
_chemical_formula_sum              "Cr3 Ru2 Sn2"
_cell_length_a       4.39197
_cell_length_b       4.39197
_cell_length_c       7.12397
_cell_angle_alpha    72.046
_cell_angle_beta     72.046
_cell_angle_gamma    60

_space_group_name_H-M_alt    "P 1"
_space_group_IT_number       1

loop_
  _space_group_symop_operation_xyz
  'x, y, z'

loop_
  _atom_site_type_symbol
  _atom_site_label
  _atom_site_symmetry_multiplicity
  _atom_site_fract_x
  _atom_site_fract_y
  _atom_site_fract_z
  _atom_site_occupancy
  Cr  Cr1       1.0  0.63300  0.63300  0.10200  1.0000
  Cr  Cr2       1.0  0.08720  0.08720  0.73800  1.0000
  Cr  Cr3       1.0  0.37900  0.37900  0.86300  1.0000
  Ru  Ru1       1.0  0.97900  0.97900  0.06410  1.0000
  Ru  Ru2       1.0  0.51700  0.51700  0.44900  1.0000
  Sn  Sn1       1.0  0.23900  0.23900  0.28300  1.0000
  Sn  Sn2       1.0  0.79200  0.79200  0.62500  1.0000
