data_image0
_chemical_formula_structural       Hf2Os2W3
_chemical_formula_sum              "Hf2 Os2 W3"
_cell_length_a       4.46355
_cell_length_b       4.46355
_cell_length_c       7.6892
_cell_angle_alpha    73.1272
_cell_angle_beta     73.1272
_cell_angle_gamma    60

_space_group_name_H-M_alt    "P 1"
_space_group_IT_number       1

loop_
  _space_group_symop_operation_xyz
  'x, y, z'

loop_
  _atom_site_type_symbol
  _atom_site_label
  _atom_site_symmetry_multiplicity
  _atom_site_fract_x
  _atom_site_fract_y
  _atom_site_fract_z
  _atom_site_occupancy
  Hf  Hf1       1.0  0.24300  0.24300  0.27100  1.0000
  Hf  Hf2       1.0  0.75700  0.75700  0.73000  1.0000
  Os  Os1       1.0  0.50500  0.50500  0.48400  1.0000
  Os  Os2       1.0  0.00133  0.00133  0.99600  1.0000
  W   W1        1.0  0.62400  0.62400  0.12800  1.0000
  W   W2        1.0  0.12300  0.12300  0.63100  1.0000
  W   W3        1.0  0.37100  0.37100  0.88600  1.0000
