data_image0
_chemical_formula_structural       Ag2Cr3Rb2
_chemical_formula_sum              "Ag2 Cr3 Rb2"
_cell_length_a       4.74577
_cell_length_b       4.74577
_cell_length_c       10.8966
_cell_angle_alpha    77.4223
_cell_angle_beta     77.4223
_cell_angle_gamma    60

_space_group_name_H-M_alt    "P 1"
_space_group_IT_number       1

loop_
  _space_group_symop_operation_xyz
  'x, y, z'

loop_
  _atom_site_type_symbol
  _atom_site_label
  _atom_site_symmetry_multiplicity
  _atom_site_fract_x
  _atom_site_fract_y
  _atom_site_fract_z
  _atom_site_occupancy
  Ag  Ag1       1.0  0.99200  0.99200  0.02530  1.0000
  Ag  Ag2       1.0  0.43000  0.43000  0.71100  1.0000
  Cr  Cr1       1.0  0.07670  0.07670  0.77000  1.0000
  Cr  Cr2       1.0  0.70700  0.70700  0.88000  1.0000
  Cr  Cr3       1.0  0.34700  0.34700  0.95800  1.0000
  Rb  Rb1       1.0  0.24800  0.24800  0.25500  1.0000
  Rb  Rb2       1.0  0.82500  0.82500  0.52600  1.0000
