data_image0
_chemical_formula_structural       Cr3Nb2Re2
_chemical_formula_sum              "Cr3 Nb2 Re2"
_cell_length_a       4.24165
_cell_length_b       4.24165
_cell_length_c       7.21447
_cell_angle_alpha    72.9043
_cell_angle_beta     72.9043
_cell_angle_gamma    60

_space_group_name_H-M_alt    "P 1"
_space_group_IT_number       1

loop_
  _space_group_symop_operation_xyz
  'x, y, z'

loop_
  _atom_site_type_symbol
  _atom_site_label
  _atom_site_symmetry_multiplicity
  _atom_site_fract_x
  _atom_site_fract_y
  _atom_site_fract_z
  _atom_site_occupancy
  Cr  Cr1       1.0  0.62600  0.62600  0.12100  1.0000
  Cr  Cr2       1.0  0.12200  0.12200  0.63500  1.0000
  Cr  Cr3       1.0  0.37300  0.37300  0.88000  1.0000
  Nb  Nb1       1.0  0.24300  0.24300  0.27000  1.0000
  Nb  Nb2       1.0  0.75600  0.75600  0.73200  1.0000
  Re  Re1       1.0  0.99900  0.99900  0.00219  1.0000
  Re  Re2       1.0  0.50500  0.50500  0.48400  1.0000
