data_image0
_chemical_formula_structural       Cr3In2Rh2
_chemical_formula_sum              "Cr3 In2 Rh2"
_cell_length_a       4.40685
_cell_length_b       4.40685
_cell_length_c       7.03973
_cell_angle_alpha    71.76
_cell_angle_beta     71.76
_cell_angle_gamma    60

_space_group_name_H-M_alt    "P 1"
_space_group_IT_number       1

loop_
  _space_group_symop_operation_xyz
  'x, y, z'

loop_
  _atom_site_type_symbol
  _atom_site_label
  _atom_site_symmetry_multiplicity
  _atom_site_fract_x
  _atom_site_fract_y
  _atom_site_fract_z
  _atom_site_occupancy
  Cr  Cr1       1.0  0.66000  0.66000  0.02070  1.0000
  Cr  Cr2       1.0  0.08050  0.08050  0.75800  1.0000
  Cr  Cr3       1.0  0.37700  0.37700  0.87000  1.0000
  In  In1       1.0  0.23600  0.23600  0.29200  1.0000
  In  In2       1.0  0.80100  0.80100  0.59600  1.0000
  Rh  Rh1       1.0  0.95200  0.95200  0.14300  1.0000
  Rh  Rh2       1.0  0.51800  0.51800  0.44500  1.0000
