data_image0
_chemical_formula_structural       Na26Pb10
_chemical_formula_sum              "Na26 Pb10"
_cell_length_a       5.45779
_cell_length_b       5.45778
_cell_length_c       39.8066
_cell_angle_alpha    90
_cell_angle_beta     90
_cell_angle_gamma    120

_space_group_name_H-M_alt    "P 1"
_space_group_IT_number       1

loop_
  _space_group_symop_operation_xyz
  'x, y, z'

loop_
  _atom_site_type_symbol
  _atom_site_label
  _atom_site_symmetry_multiplicity
  _atom_site_fract_x
  _atom_site_fract_y
  _atom_site_fract_z
  _atom_site_occupancy
  Na  Na1       1.0  0.00000  0.00000  0.00000  1.0000
  Na  Na2       1.0  0.66700  0.33300  0.03010  1.0000
  Na  Na3       1.0  0.00000  0.00000  0.08380  1.0000
  Na  Na4       1.0  0.66700  0.33300  0.11700  1.0000
  Na  Na5       1.0  0.00000  0.00000  0.16700  1.0000
  Na  Na6       1.0  0.66700  0.33300  0.21000  1.0000
  Na  Na7       1.0  0.33300  0.66700  0.21200  1.0000
  Na  Na8       1.0  0.33300  0.66700  0.28800  1.0000
  Na  Na9       1.0  0.66700  0.33300  0.29000  1.0000
  Na  Na10      1.0  0.00000  0.00000  0.33300  1.0000
  Na  Na11      1.0  0.66700  0.33300  0.38300  1.0000
  Na  Na12      1.0  0.00000  0.00000  0.41600  1.0000
  Na  Na13      1.0  0.66700  0.33300  0.47000  1.0000
  Na  Na14      1.0  0.00000  0.00000  0.50000  1.0000
  Na  Na15      1.0  0.33300  0.66700  0.53000  1.0000
  Na  Na16      1.0  0.00000  0.00000  0.58400  1.0000
  Na  Na17      1.0  0.33300  0.66700  0.61700  1.0000
  Na  Na18      1.0  0.00000  0.00000  0.66700  1.0000
  Na  Na19      1.0  0.33300  0.66700  0.71000  1.0000
  Na  Na20      1.0  0.66700  0.33300  0.71200  1.0000
  Na  Na21      1.0  0.66700  0.33300  0.78800  1.0000
  Na  Na22      1.0  0.33300  0.66700  0.79000  1.0000
  Na  Na23      1.0  0.00000  0.00000  0.83300  1.0000
  Na  Na24      1.0  0.33300  0.66700  0.88300  1.0000
  Na  Na25      1.0  0.00000  0.00000  0.91600  1.0000
  Na  Na26      1.0  0.33300  0.66700  0.97000  1.0000
  Pb  Pb1       1.0  0.33300  0.66700  0.05380  1.0000
  Pb  Pb2       1.0  0.33300  0.66700  0.13200  1.0000
  Pb  Pb3       1.0  0.00000  0.00000  0.25000  1.0000
  Pb  Pb4       1.0  0.33300  0.66700  0.36800  1.0000
  Pb  Pb5       1.0  0.33300  0.66700  0.44600  1.0000
  Pb  Pb6       1.0  0.66700  0.33300  0.55400  1.0000
  Pb  Pb7       1.0  0.66700  0.33300  0.63200  1.0000
  Pb  Pb8       1.0  0.00000  0.00000  0.75000  1.0000
  Pb  Pb9       1.0  0.66700  0.33300  0.86800  1.0000
  Pb  Pb10      1.0  0.66700  0.33300  0.94600  1.0000
