data_image0
_chemical_formula_structural       Fe2Ti2W3
_chemical_formula_sum              "Fe2 Ti2 W3"
_cell_length_a       4.27414
_cell_length_b       4.27414
_cell_length_c       7.26554
_cell_angle_alpha    72.8941
_cell_angle_beta     72.8941
_cell_angle_gamma    60

_space_group_name_H-M_alt    "P 1"
_space_group_IT_number       1

loop_
  _space_group_symop_operation_xyz
  'x, y, z'

loop_
  _atom_site_type_symbol
  _atom_site_label
  _atom_site_symmetry_multiplicity
  _atom_site_fract_x
  _atom_site_fract_y
  _atom_site_fract_z
  _atom_site_occupancy
  Fe  Fe1       1.0  0.50600  0.50600  0.48300  1.0000
  Fe  Fe2       1.0  0.00092  0.00092  0.99700  1.0000
  Ti  Ti1       1.0  0.24400  0.24400  0.26900  1.0000
  Ti  Ti2       1.0  0.75600  0.75600  0.73100  1.0000
  W   W1        1.0  0.62300  0.62300  0.13000  1.0000
  W   W2        1.0  0.12400  0.12400  0.62800  1.0000
  W   W3        1.0  0.37100  0.37100  0.88600  1.0000
