data_image0
_chemical_formula_structural       Be2Mo3Ni2
_chemical_formula_sum              "Be2 Mo3 Ni2"
_cell_length_a       4.12395
_cell_length_b       4.12395
_cell_length_c       6.44676
_cell_angle_alpha    71.3463
_cell_angle_beta     71.3463
_cell_angle_gamma    60

_space_group_name_H-M_alt    "P 1"
_space_group_IT_number       1

loop_
  _space_group_symop_operation_xyz
  'x, y, z'

loop_
  _atom_site_type_symbol
  _atom_site_label
  _atom_site_symmetry_multiplicity
  _atom_site_fract_x
  _atom_site_fract_y
  _atom_site_fract_z
  _atom_site_occupancy
  Be  Be1       1.0  0.23700  0.23700  0.29000  1.0000
  Be  Be2       1.0  0.80800  0.80800  0.57700  1.0000
  Mo  Mo1       1.0  0.65500  0.65500  0.03510  1.0000
  Mo  Mo2       1.0  0.09560  0.09560  0.71300  1.0000
  Mo  Mo3       1.0  0.37600  0.37600  0.87100  1.0000
  Ni  Ni1       1.0  0.93600  0.93600  0.19300  1.0000
  Ni  Ni2       1.0  0.51800  0.51800  0.44500  1.0000
