data_image0
_chemical_formula_structural       Ca2Cr3Pd2
_chemical_formula_sum              "Ca2 Cr3 Pd2"
_cell_length_a       4.75036
_cell_length_b       4.75036
_cell_length_c       7.92449
_cell_angle_alpha    72.5588
_cell_angle_beta     72.5588
_cell_angle_gamma    60

_space_group_name_H-M_alt    "P 1"
_space_group_IT_number       1

loop_
  _space_group_symop_operation_xyz
  'x, y, z'

loop_
  _atom_site_type_symbol
  _atom_site_label
  _atom_site_symmetry_multiplicity
  _atom_site_fract_x
  _atom_site_fract_y
  _atom_site_fract_z
  _atom_site_occupancy
  Ca  Ca1       1.0  0.23600  0.23600  0.29200  1.0000
  Ca  Ca2       1.0  0.79700  0.79700  0.60800  1.0000
  Cr  Cr1       1.0  0.64700  0.64700  0.05890  1.0000
  Cr  Cr2       1.0  0.09500  0.09500  0.71500  1.0000
  Cr  Cr3       1.0  0.37300  0.37300  0.88200  1.0000
  Pd  Pd1       1.0  0.98100  0.98100  0.05620  1.0000
  Pd  Pd2       1.0  0.49500  0.49500  0.51400  1.0000
