data_image0
_chemical_formula_structural       Fe2Ge2Mo3
_chemical_formula_sum              "Fe2 Ge2 Mo3"
_cell_length_a       4.25825
_cell_length_b       4.25825
_cell_length_c       6.62193
_cell_angle_alpha    71.2448
_cell_angle_beta     71.2448
_cell_angle_gamma    60

_space_group_name_H-M_alt    "P 1"
_space_group_IT_number       1

loop_
  _space_group_symop_operation_xyz
  'x, y, z'

loop_
  _atom_site_type_symbol
  _atom_site_label
  _atom_site_symmetry_multiplicity
  _atom_site_fract_x
  _atom_site_fract_y
  _atom_site_fract_z
  _atom_site_occupancy
  Fe  Fe1       1.0  0.23100  0.23100  0.30700  1.0000
  Fe  Fe2       1.0  0.80500  0.80500  0.58600  1.0000
  Ge  Ge1       1.0  0.94300  0.94300  0.17000  1.0000
  Ge  Ge2       1.0  0.51700  0.51700  0.45000  1.0000
  Mo  Mo1       1.0  0.65900  0.65900  0.02320  1.0000
  Mo  Mo2       1.0  0.09570  0.09570  0.71300  1.0000
  Mo  Mo3       1.0  0.37500  0.37500  0.87600  1.0000
