data_image0
_chemical_formula_structural       Cr3Cu2Na2
_chemical_formula_sum              "Cr3 Cu2 Na2"
_cell_length_a       4.0115
_cell_length_b       4.0115
_cell_length_c       8.91941
_cell_angle_alpha    77.0045
_cell_angle_beta     77.0045
_cell_angle_gamma    60

_space_group_name_H-M_alt    "P 1"
_space_group_IT_number       1

loop_
  _space_group_symop_operation_xyz
  'x, y, z'

loop_
  _atom_site_type_symbol
  _atom_site_label
  _atom_site_symmetry_multiplicity
  _atom_site_fract_x
  _atom_site_fract_y
  _atom_site_fract_z
  _atom_site_occupancy
  Cr  Cr1       1.0  0.07610  0.07610  0.77200  1.0000
  Cr  Cr2       1.0  0.69400  0.69400  0.91700  1.0000
  Cr  Cr3       1.0  0.35400  0.35400  0.93900  1.0000
  Cu  Cu1       1.0  0.97800  0.97800  0.06740  1.0000
  Cu  Cu2       1.0  0.44600  0.44600  0.66100  1.0000
  Na  Na1       1.0  0.24300  0.24300  0.27200  1.0000
  Na  Na2       1.0  0.83400  0.83400  0.49700  1.0000
