data_image0
_chemical_formula_structural       Cr3Mn2Nb2
_chemical_formula_sum              "Cr3 Mn2 Nb2"
_cell_length_a       4.19313
_cell_length_b       4.19313
_cell_length_c       6.84824
_cell_angle_alpha    72.1729
_cell_angle_beta     72.1729
_cell_angle_gamma    60

_space_group_name_H-M_alt    "P 1"
_space_group_IT_number       1

loop_
  _space_group_symop_operation_xyz
  'x, y, z'

loop_
  _atom_site_type_symbol
  _atom_site_label
  _atom_site_symmetry_multiplicity
  _atom_site_fract_x
  _atom_site_fract_y
  _atom_site_fract_z
  _atom_site_occupancy
  Cr  Cr1       1.0  0.63300  0.63300  0.09980  1.0000
  Cr  Cr2       1.0  0.12400  0.12400  0.62700  1.0000
  Cr  Cr3       1.0  0.37800  0.37800  0.86500  1.0000
  Mn  Mn1       1.0  0.24100  0.24100  0.27600  1.0000
  Mn  Mn2       1.0  0.74900  0.74900  0.75200  1.0000
  Nb  Nb1       1.0  0.98900  0.98900  0.03300  1.0000
  Nb  Nb2       1.0  0.50900  0.50900  0.47300  1.0000
