data_image0
_chemical_formula_structural       Fe3Na2Ru2
_chemical_formula_sum              "Fe3 Na2 Ru2"
_cell_length_a       4.34508
_cell_length_b       4.34508
_cell_length_c       6.86982
_cell_angle_alpha    71.5641
_cell_angle_beta     71.5641
_cell_angle_gamma    60

_space_group_name_H-M_alt    "P 1"
_space_group_IT_number       1

loop_
  _space_group_symop_operation_xyz
  'x, y, z'

loop_
  _atom_site_type_symbol
  _atom_site_label
  _atom_site_symmetry_multiplicity
  _atom_site_fract_x
  _atom_site_fract_y
  _atom_site_fract_z
  _atom_site_occupancy
  Fe  Fe1       1.0  0.65500  0.65500  0.03610  1.0000
  Fe  Fe2       1.0  0.09020  0.09020  0.72900  1.0000
  Fe  Fe3       1.0  0.37400  0.37400  0.87800  1.0000
  Na  Na1       1.0  0.23300  0.23300  0.30000  1.0000
  Na  Na2       1.0  0.80500  0.80500  0.58600  1.0000
  Ru  Ru1       1.0  0.97000  0.97000  0.09090  1.0000
  Ru  Ru2       1.0  0.49900  0.49900  0.50400  1.0000
