data_image0
_chemical_formula_structural       Cr3Ru2Ti2
_chemical_formula_sum              "Cr3 Ru2 Ti2"
_cell_length_a       4.1426
_cell_length_b       4.1426
_cell_length_c       7.07963
_cell_angle_alpha    72.988
_cell_angle_beta     72.988
_cell_angle_gamma    60

_space_group_name_H-M_alt    "P 1"
_space_group_IT_number       1

loop_
  _space_group_symop_operation_xyz
  'x, y, z'

loop_
  _atom_site_type_symbol
  _atom_site_label
  _atom_site_symmetry_multiplicity
  _atom_site_fract_x
  _atom_site_fract_y
  _atom_site_fract_z
  _atom_site_occupancy
  Cr  Cr1       1.0  0.62500  0.62500  0.12600  1.0000
  Cr  Cr2       1.0  0.12300  0.12300  0.63100  1.0000
  Cr  Cr3       1.0  0.37200  0.37200  0.88400  1.0000
  Ru  Ru1       1.0  0.99900  0.99900  0.00152  1.0000
  Ru  Ru2       1.0  0.50600  0.50600  0.48100  1.0000
  Ti  Ti1       1.0  0.24300  0.24300  0.27000  1.0000
  Ti  Ti2       1.0  0.75600  0.75600  0.73100  1.0000
