data_image0
_chemical_formula_structural       Co2La2Mo3
_chemical_formula_sum              "Co2 La2 Mo3"
_cell_length_a       4.32673
_cell_length_b       4.32673
_cell_length_c       8.72044
_cell_angle_alpha    75.6361
_cell_angle_beta     75.6361
_cell_angle_gamma    60

_space_group_name_H-M_alt    "P 1"
_space_group_IT_number       1

loop_
  _space_group_symop_operation_xyz
  'x, y, z'

loop_
  _atom_site_type_symbol
  _atom_site_label
  _atom_site_symmetry_multiplicity
  _atom_site_fract_x
  _atom_site_fract_y
  _atom_site_fract_z
  _atom_site_occupancy
  Co  Co1       1.0  0.02060  0.02060  0.02060  1.0000
  Co  Co2       1.0  0.52100  0.52100  0.52100  1.0000
  La  La1       1.0  0.19200  0.19200  0.19200  1.0000
  La  La2       1.0  0.76000  0.76000  0.76000  1.0000
  Mo  Mo1       1.0  0.33200  0.33200  0.33200  1.0000
  Mo  Mo2       1.0  0.62600  0.62600  0.62600  1.0000
  Mo  Mo3       1.0  0.92300  0.92300  0.92300  1.0000
