data_image0
_chemical_formula_structural       Au2Cr3Rb2
_chemical_formula_sum              "Au2 Cr3 Rb2"
_cell_length_a       4.74165
_cell_length_b       4.74165
_cell_length_c       10.4497
_cell_angle_alpha    76.8866
_cell_angle_beta     76.8866
_cell_angle_gamma    60

_space_group_name_H-M_alt    "P 1"
_space_group_IT_number       1

loop_
  _space_group_symop_operation_xyz
  'x, y, z'

loop_
  _atom_site_type_symbol
  _atom_site_label
  _atom_site_symmetry_multiplicity
  _atom_site_fract_x
  _atom_site_fract_y
  _atom_site_fract_z
  _atom_site_occupancy
  Au  Au1       1.0  0.99300  0.99300  0.02200  1.0000
  Au  Au2       1.0  0.44200  0.44200  0.67500  1.0000
  Cr  Cr1       1.0  0.08160  0.08160  0.75500  1.0000
  Cr  Cr2       1.0  0.35600  0.35600  0.93200  1.0000
  Cr  Cr3       1.0  0.67100  0.67100  0.98700  1.0000
  Rb  Rb1       1.0  0.25000  0.25000  0.25000  1.0000
  Rb  Rb2       1.0  0.83200  0.83200  0.50400  1.0000
