data_image0
_chemical_formula_structural       Au2K2W3
_chemical_formula_sum              "Au2 K2 W3"
_cell_length_a       4.37121
_cell_length_b       4.37121
_cell_length_c       12.4294
_cell_angle_alpha    79.8724
_cell_angle_beta     79.8724
_cell_angle_gamma    60

_space_group_name_H-M_alt    "P 1"
_space_group_IT_number       1

loop_
  _space_group_symop_operation_xyz
  'x, y, z'

loop_
  _atom_site_type_symbol
  _atom_site_label
  _atom_site_symmetry_multiplicity
  _atom_site_fract_x
  _atom_site_fract_y
  _atom_site_fract_z
  _atom_site_occupancy
  Au  Au1       1.0  0.97600  0.97600  0.07300  1.0000
  Au  Au2       1.0  0.51800  0.51800  0.44600  1.0000
  K   K1        1.0  0.24300  0.24300  0.27000  1.0000
  K   K2        1.0  0.79300  0.79300  0.62200  1.0000
  W   W1        1.0  0.05040  0.05040  0.84900  1.0000
  W   W2        1.0  0.36600  0.36600  0.90100  1.0000
  W   W3        1.0  0.67800  0.67800  0.96500  1.0000
