data_image0
_chemical_formula_structural       Na5Pb2
_chemical_formula_sum              "Na5 Pb2"
_cell_length_a       5.47276
_cell_length_b       5.47276
_cell_length_c       8.25111
_cell_angle_alpha    109.368
_cell_angle_beta     90
_cell_angle_gamma    120

_space_group_name_H-M_alt    "P 1"
_space_group_IT_number       1

loop_
  _space_group_symop_operation_xyz
  'x, y, z'

loop_
  _atom_site_type_symbol
  _atom_site_label
  _atom_site_symmetry_multiplicity
  _atom_site_fract_x
  _atom_site_fract_y
  _atom_site_fract_z
  _atom_site_occupancy
  Na  Na1       1.0  0.35700  0.71400  0.07080  1.0000
  Na  Na2       1.0  0.78500  0.57000  0.35500  1.0000
  Na  Na3       1.0  0.50000  0.00000  0.50000  1.0000
  Na  Na4       1.0  0.21500  0.43000  0.64500  1.0000
  Na  Na5       1.0  0.64300  0.28600  0.92900  1.0000
  Pb  Pb1       1.0  0.06980  0.14000  0.20900  1.0000
  Pb  Pb2       1.0  0.93000  0.86000  0.79100  1.0000
