data_image0
_chemical_formula_structural       Na2Os5
_chemical_formula_sum              "Na2 Os5"
_cell_length_a       4.31946
_cell_length_b       4.31946
_cell_length_c       7.4458
_cell_angle_alpha    73.1384
_cell_angle_beta     73.1384
_cell_angle_gamma    60

_space_group_name_H-M_alt    "P 1"
_space_group_IT_number       1

loop_
  _space_group_symop_operation_xyz
  'x, y, z'

loop_
  _atom_site_type_symbol
  _atom_site_label
  _atom_site_symmetry_multiplicity
  _atom_site_fract_x
  _atom_site_fract_y
  _atom_site_fract_z
  _atom_site_occupancy
  Na  Na1       1.0  0.24300  0.24300  0.27200  1.0000
  Na  Na2       1.0  0.76200  0.76200  0.71500  1.0000
  Os  Os1       1.0  0.62200  0.62200  0.13400  1.0000
  Os  Os2       1.0  0.50400  0.50400  0.48800  1.0000
  Os  Os3       1.0  0.12300  0.12300  0.63200  1.0000
  Os  Os4       1.0  0.37000  0.37000  0.89000  1.0000
  Os  Os5       1.0  0.00215  0.00215  0.99400  1.0000
