data_image0
_chemical_formula_structural       K2Os2Ru3
_chemical_formula_sum              "K2 Os2 Ru3"
_cell_length_a       4.40637
_cell_length_b       5.84654
_cell_length_c       6.2321
_cell_angle_alpha    68.2668
_cell_angle_beta     69.2971
_cell_angle_gamma    67.8622

_space_group_name_H-M_alt    "P 1"
_space_group_IT_number       1

loop_
  _space_group_symop_operation_xyz
  'x, y, z'

loop_
  _atom_site_type_symbol
  _atom_site_label
  _atom_site_symmetry_multiplicity
  _atom_site_fract_x
  _atom_site_fract_y
  _atom_site_fract_z
  _atom_site_occupancy
  K   K1        1.0  0.85500  0.20800  0.08180  1.0000
  K   K2        1.0  0.50200  0.25500  0.74100  1.0000
  Os  Os1       1.0  0.08040  0.49300  0.34600  1.0000
  Os  Os2       1.0  0.27600  0.97300  0.47400  1.0000
  Ru  Ru1       1.0  0.54200  0.72100  0.19500  1.0000
  Ru  Ru2       1.0  0.81500  0.74200  0.62900  1.0000
  Ru  Ru3       1.0  0.17900  0.73300  0.90900  1.0000
