data_image0
_chemical_formula_structural       Na2Os2Ru3
_chemical_formula_sum              "Na2 Os2 Ru3"
_cell_length_a       4.30377
_cell_length_b       4.30377
_cell_length_c       7.41512
_cell_angle_alpha    73.1299
_cell_angle_beta     73.1299
_cell_angle_gamma    60

_space_group_name_H-M_alt    "P 1"
_space_group_IT_number       1

loop_
  _space_group_symop_operation_xyz
  'x, y, z'

loop_
  _atom_site_type_symbol
  _atom_site_label
  _atom_site_symmetry_multiplicity
  _atom_site_fract_x
  _atom_site_fract_y
  _atom_site_fract_z
  _atom_site_occupancy
  Na  Na1       1.0  0.24400  0.24400  0.26900  1.0000
  Na  Na2       1.0  0.76000  0.76000  0.71900  1.0000
  Os  Os1       1.0  0.50300  0.50300  0.49000  1.0000
  Os  Os2       1.0  0.00212  0.00212  0.99400  1.0000
  Ru  Ru1       1.0  0.62100  0.62100  0.13600  1.0000
  Ru  Ru2       1.0  0.12400  0.12400  0.62900  1.0000
  Ru  Ru3       1.0  0.37000  0.37000  0.88900  1.0000
