data_image0
_chemical_formula_structural       Ca2Fe3Mn2
_chemical_formula_sum              "Ca2 Fe3 Mn2"
_cell_length_a       4.50172
_cell_length_b       4.50172
_cell_length_c       7.86942
_cell_angle_alpha    73.3798
_cell_angle_beta     73.3798
_cell_angle_gamma    60

_space_group_name_H-M_alt    "P 1"
_space_group_IT_number       1

loop_
  _space_group_symop_operation_xyz
  'x, y, z'

loop_
  _atom_site_type_symbol
  _atom_site_label
  _atom_site_symmetry_multiplicity
  _atom_site_fract_x
  _atom_site_fract_y
  _atom_site_fract_z
  _atom_site_occupancy
  Ca  Ca1       1.0  0.24000  0.24000  0.28100  1.0000
  Ca  Ca2       1.0  0.77800  0.77800  0.66500  1.0000
  Fe  Fe1       1.0  0.65300  0.65300  0.03970  1.0000
  Fe  Fe2       1.0  0.09750  0.09750  0.70800  1.0000
  Fe  Fe3       1.0  0.37200  0.37200  0.88400  1.0000
  Mn  Mn1       1.0  0.99100  0.99100  0.02830  1.0000
  Mn  Mn2       1.0  0.49400  0.49400  0.51900  1.0000
