data_image0
_chemical_formula_structural       Bi2Li2Pt3
_chemical_formula_sum              "Bi2 Li2 Pt3"
_cell_length_a       7.86144
_cell_length_b       7.86144
_cell_length_c       7.86144
_cell_angle_alpha    34.0638
_cell_angle_beta     34.0638
_cell_angle_gamma    34.0638

_space_group_name_H-M_alt    "P 1"
_space_group_IT_number       1

loop_
  _space_group_symop_operation_xyz
  'x, y, z'

loop_
  _atom_site_type_symbol
  _atom_site_label
  _atom_site_symmetry_multiplicity
  _atom_site_fract_x
  _atom_site_fract_y
  _atom_site_fract_z
  _atom_site_occupancy
  Bi  Bi1       1.0  0.00511  0.00511  0.00511  1.0000
  Bi  Bi2       1.0  0.49700  0.49700  0.49700  1.0000
  Li  Li1       1.0  0.24600  0.24600  0.24600  1.0000
  Li  Li2       1.0  0.75300  0.75300  0.75300  1.0000
  Pt  Pt1       1.0  0.37100  0.37100  0.37100  1.0000
  Pt  Pt2       1.0  0.62400  0.62400  0.62400  1.0000
  Pt  Pt3       1.0  0.87800  0.87800  0.87800  1.0000
