data_image0
_chemical_formula_structural       Fe2Rb2Ru3
_chemical_formula_sum              "Fe2 Rb2 Ru3"
_cell_length_a       4.23739
_cell_length_b       4.23739
_cell_length_c       12.3302
_cell_angle_alpha    80.1058
_cell_angle_beta     80.1058
_cell_angle_gamma    60

_space_group_name_H-M_alt    "P 1"
_space_group_IT_number       1

loop_
  _space_group_symop_operation_xyz
  'x, y, z'

loop_
  _atom_site_type_symbol
  _atom_site_label
  _atom_site_symmetry_multiplicity
  _atom_site_fract_x
  _atom_site_fract_y
  _atom_site_fract_z
  _atom_site_occupancy
  Fe  Fe1       1.0  0.40900  0.40900  0.77200  1.0000
  Fe  Fe2       1.0  0.01500  0.01500  0.95500  1.0000
  Rb  Rb1       1.0  0.26100  0.26100  0.21800  1.0000
  Rb  Rb2       1.0  0.81600  0.81600  0.55200  1.0000
  Ru  Ru1       1.0  0.07650  0.07650  0.77000  1.0000
  Ru  Ru2       1.0  0.70000  0.70000  0.90000  1.0000
  Ru  Ru3       1.0  0.34800  0.34800  0.95700  1.0000
