data_image0
_chemical_formula_structural       Na2Nb2Ni3
_chemical_formula_sum              "Na2 Nb2 Ni3"
_cell_length_a       7.39008
_cell_length_b       7.39008
_cell_length_c       7.39008
_cell_angle_alpha    33.9925
_cell_angle_beta     33.9925
_cell_angle_gamma    33.9925

_space_group_name_H-M_alt    "P 1"
_space_group_IT_number       1

loop_
  _space_group_symop_operation_xyz
  'x, y, z'

loop_
  _atom_site_type_symbol
  _atom_site_label
  _atom_site_symmetry_multiplicity
  _atom_site_fract_x
  _atom_site_fract_y
  _atom_site_fract_z
  _atom_site_occupancy
  Na  Na1       1.0  0.24400  0.24400  0.24400  1.0000
  Na  Na2       1.0  0.75500  0.75500  0.75500  1.0000
  Nb  Nb1       1.0  0.00168  0.00168  0.00168  1.0000
  Nb  Nb2       1.0  0.50000  0.50000  0.50000  1.0000
  Ni  Ni1       1.0  0.37100  0.37100  0.37100  1.0000
  Ni  Ni2       1.0  0.62500  0.62500  0.62500  1.0000
  Ni  Ni3       1.0  0.87900  0.87900  0.87900  1.0000
