data_image0
_chemical_formula_structural       As2Li2Pd3
_chemical_formula_sum              "As2 Li2 Pd3"
_cell_length_a       7.27215
_cell_length_b       7.27215
_cell_length_c       7.27215
_cell_angle_alpha    34.217
_cell_angle_beta     34.217
_cell_angle_gamma    34.217

_space_group_name_H-M_alt    "P 1"
_space_group_IT_number       1

loop_
  _space_group_symop_operation_xyz
  'x, y, z'

loop_
  _atom_site_type_symbol
  _atom_site_label
  _atom_site_symmetry_multiplicity
  _atom_site_fract_x
  _atom_site_fract_y
  _atom_site_fract_z
  _atom_site_occupancy
  As  As1       1.0  0.00616  0.00616  0.00616  1.0000
  As  As2       1.0  0.49800  0.49800  0.49800  1.0000
  Li  Li1       1.0  0.23200  0.23200  0.23200  1.0000
  Li  Li2       1.0  0.75900  0.75900  0.75900  1.0000
  Pd  Pd1       1.0  0.37200  0.37200  0.37200  1.0000
  Pd  Pd2       1.0  0.62700  0.62700  0.62700  1.0000
  Pd  Pd3       1.0  0.88200  0.88200  0.88200  1.0000
