data_image0
_chemical_formula_structural       Bi2Pb2Ru3
_chemical_formula_sum              "Bi2 Pb2 Ru3"
_cell_length_a       4.69596
_cell_length_b       4.69596
_cell_length_c       8.35401
_cell_angle_alpha    73.6765
_cell_angle_beta     73.6765
_cell_angle_gamma    60

_space_group_name_H-M_alt    "P 1"
_space_group_IT_number       1

loop_
  _space_group_symop_operation_xyz
  'x, y, z'

loop_
  _atom_site_type_symbol
  _atom_site_label
  _atom_site_symmetry_multiplicity
  _atom_site_fract_x
  _atom_site_fract_y
  _atom_site_fract_z
  _atom_site_occupancy
  Bi  Bi1       1.0  0.24900  0.24900  0.25400  1.0000
  Bi  Bi2       1.0  0.75300  0.75300  0.74200  1.0000
  Pb  Pb1       1.0  0.99600  0.99600  0.01060  1.0000
  Pb  Pb2       1.0  0.50300  0.50300  0.49000  1.0000
  Ru  Ru1       1.0  0.63200  0.63200  0.10300  1.0000
  Ru  Ru2       1.0  0.11700  0.11700  0.64900  1.0000
  Ru  Ru3       1.0  0.37500  0.37500  0.87600  1.0000
