data_image0
_chemical_formula_structural       Cr2Fe3Sc2
_chemical_formula_sum              "Cr2 Fe3 Sc2"
_cell_length_a       4.15761
_cell_length_b       4.15761
_cell_length_c       7.04449
_cell_angle_alpha    72.8367
_cell_angle_beta     72.8367
_cell_angle_gamma    60

_space_group_name_H-M_alt    "P 1"
_space_group_IT_number       1

loop_
  _space_group_symop_operation_xyz
  'x, y, z'

loop_
  _atom_site_type_symbol
  _atom_site_label
  _atom_site_symmetry_multiplicity
  _atom_site_fract_x
  _atom_site_fract_y
  _atom_site_fract_z
  _atom_site_occupancy
  Cr  Cr1       1.0  0.50500  0.50500  0.48400  1.0000
  Cr  Cr2       1.0  0.00071  0.00071  0.99800  1.0000
  Fe  Fe1       1.0  0.62900  0.62900  0.11300  1.0000
  Fe  Fe2       1.0  0.11500  0.11500  0.65600  1.0000
  Fe  Fe3       1.0  0.37100  0.37100  0.88700  1.0000
  Sc  Sc1       1.0  0.24300  0.24300  0.27200  1.0000
  Sc  Sc2       1.0  0.76200  0.76200  0.71500  1.0000
