data_image0
_chemical_formula_structural       Ca2Re2Ru3
_chemical_formula_sum              "Ca2 Re2 Ru3"
_cell_length_a       4.49053
_cell_length_b       4.49053
_cell_length_c       7.60467
_cell_angle_alpha    72.8276
_cell_angle_beta     72.8276
_cell_angle_gamma    60

_space_group_name_H-M_alt    "P 1"
_space_group_IT_number       1

loop_
  _space_group_symop_operation_xyz
  'x, y, z'

loop_
  _atom_site_type_symbol
  _atom_site_label
  _atom_site_symmetry_multiplicity
  _atom_site_fract_x
  _atom_site_fract_y
  _atom_site_fract_z
  _atom_site_occupancy
  Ca  Ca1       1.0  0.24400  0.24400  0.26800  1.0000
  Ca  Ca2       1.0  0.76000  0.76000  0.72000  1.0000
  Re  Re1       1.0  0.50300  0.50300  0.49100  1.0000
  Re  Re2       1.0  0.00250  0.00250  0.99200  1.0000
  Ru  Ru1       1.0  0.62300  0.62300  0.13200  1.0000
  Ru  Ru2       1.0  0.12100  0.12100  0.63700  1.0000
  Ru  Ru3       1.0  0.37200  0.37200  0.88400  1.0000
