data_image0
_chemical_formula_structural       Os3Sb2Si2
_chemical_formula_sum              "Os3 Sb2 Si2"
_cell_length_a       7.71579
_cell_length_b       7.71579
_cell_length_c       7.71579
_cell_angle_alpha    32.5624
_cell_angle_beta     32.5624
_cell_angle_gamma    32.5624

_space_group_name_H-M_alt    "P 1"
_space_group_IT_number       1

loop_
  _space_group_symop_operation_xyz
  'x, y, z'

loop_
  _atom_site_type_symbol
  _atom_site_label
  _atom_site_symmetry_multiplicity
  _atom_site_fract_x
  _atom_site_fract_y
  _atom_site_fract_z
  _atom_site_occupancy
  Os  Os1       1.0  0.37300  0.37300  0.37300  1.0000
  Os  Os2       1.0  0.62300  0.62300  0.62300  1.0000
  Os  Os3       1.0  0.87800  0.87800  0.87800  1.0000
  Sb  Sb1       1.0  0.00696  0.00696  0.00696  1.0000
  Sb  Sb2       1.0  0.49500  0.49500  0.49500  1.0000
  Si  Si1       1.0  0.24700  0.24700  0.24700  1.0000
  Si  Si2       1.0  0.75200  0.75200  0.75200  1.0000
