data_image0
_chemical_formula_structural       Re2Ta2W3
_chemical_formula_sum              "Re2 Ta2 W3"
_cell_length_a       4.43776
_cell_length_b       4.43776
_cell_length_c       7.66661
_cell_angle_alpha    73.1767
_cell_angle_beta     73.1767
_cell_angle_gamma    60

_space_group_name_H-M_alt    "P 1"
_space_group_IT_number       1

loop_
  _space_group_symop_operation_xyz
  'x, y, z'

loop_
  _atom_site_type_symbol
  _atom_site_label
  _atom_site_symmetry_multiplicity
  _atom_site_fract_x
  _atom_site_fract_y
  _atom_site_fract_z
  _atom_site_occupancy
  Re  Re1       1.0  0.00000  0.00000  0.00000  1.0000
  Re  Re2       1.0  0.50500  0.50500  0.48600  1.0000
  Ta  Ta1       1.0  0.24400  0.24400  0.26700  1.0000
  Ta  Ta2       1.0  0.75400  0.75400  0.73700  1.0000
  W   W1        1.0  0.62400  0.62400  0.12700  1.0000
  W   W2        1.0  0.12400  0.12400  0.62800  1.0000
  W   W3        1.0  0.37400  0.37400  0.87900  1.0000
