data_image0
_chemical_formula_structural       Na2Ru5
_chemical_formula_sum              "Na2 Ru5"
_cell_length_a       4.31786
_cell_length_b       4.31786
_cell_length_c       7.36936
_cell_angle_alpha    72.9647
_cell_angle_beta     72.9647
_cell_angle_gamma    60

_space_group_name_H-M_alt    "P 1"
_space_group_IT_number       1

loop_
  _space_group_symop_operation_xyz
  'x, y, z'

loop_
  _atom_site_type_symbol
  _atom_site_label
  _atom_site_symmetry_multiplicity
  _atom_site_fract_x
  _atom_site_fract_y
  _atom_site_fract_z
  _atom_site_occupancy
  Na  Na1       1.0  0.24200  0.24200  0.27400  1.0000
  Na  Na2       1.0  0.76300  0.76300  0.71100  1.0000
  Ru  Ru1       1.0  0.62300  0.62300  0.13100  1.0000
  Ru  Ru2       1.0  0.50500  0.50500  0.48500  1.0000
  Ru  Ru3       1.0  0.12100  0.12100  0.63700  1.0000
  Ru  Ru4       1.0  0.36900  0.36900  0.89200  1.0000
  Ru  Ru5       1.0  0.00167  0.00167  0.99500  1.0000
