data_image0
_chemical_formula_structural       Bi2Hf2Os3
_chemical_formula_sum              "Bi2 Hf2 Os3"
_cell_length_a       7.95755
_cell_length_b       7.95755
_cell_length_c       7.95755
_cell_angle_alpha    33.6887
_cell_angle_beta     33.6887
_cell_angle_gamma    33.6887

_space_group_name_H-M_alt    "P 1"
_space_group_IT_number       1

loop_
  _space_group_symop_operation_xyz
  'x, y, z'

loop_
  _atom_site_type_symbol
  _atom_site_label
  _atom_site_symmetry_multiplicity
  _atom_site_fract_x
  _atom_site_fract_y
  _atom_site_fract_z
  _atom_site_occupancy
  Bi  Bi1       1.0  0.00638  0.00638  0.00638  1.0000
  Bi  Bi2       1.0  0.49500  0.49500  0.49500  1.0000
  Hf  Hf1       1.0  0.24700  0.24700  0.24700  1.0000
  Hf  Hf2       1.0  0.75200  0.75200  0.75200  1.0000
  Os  Os1       1.0  0.37200  0.37200  0.37200  1.0000
  Os  Os2       1.0  0.62600  0.62600  0.62600  1.0000
  Os  Os3       1.0  0.87700  0.87700  0.87700  1.0000
