data_image0
_chemical_formula_structural       Rb2Ru5
_chemical_formula_sum              "Rb2 Ru5"
_cell_length_a       4.43078
_cell_length_b       5.75427
_cell_length_c       6.63255
_cell_angle_alpha    78.546
_cell_angle_beta     70.4872
_cell_angle_gamma    67.3563

_space_group_name_H-M_alt    "P 1"
_space_group_IT_number       1

loop_
  _space_group_symop_operation_xyz
  'x, y, z'

loop_
  _atom_site_type_symbol
  _atom_site_label
  _atom_site_symmetry_multiplicity
  _atom_site_fract_x
  _atom_site_fract_y
  _atom_site_fract_z
  _atom_site_occupancy
  Rb  Rb1       1.0  0.69500  0.51200  0.09770  1.0000
  Rb  Rb2       1.0  0.43600  0.34500  0.78300  1.0000
  Ru  Ru1       1.0  0.92500  0.94400  0.20600  1.0000
  Ru  Ru2       1.0  0.25900  0.06730  0.41400  1.0000
  Ru  Ru3       1.0  0.03680  0.51200  0.41500  1.0000
  Ru  Ru4       1.0  0.76300  0.83800  0.63600  1.0000
  Ru  Ru5       1.0  0.13500  0.90700  0.82400  1.0000
