data_image0
_chemical_formula_structural       As2Na2Pd3
_chemical_formula_sum              "As2 Na2 Pd3"
_cell_length_a       7.8855
_cell_length_b       7.8855
_cell_length_c       7.8855
_cell_angle_alpha    33.1757
_cell_angle_beta     33.1757
_cell_angle_gamma    33.1757

_space_group_name_H-M_alt    "P 1"
_space_group_IT_number       1

loop_
  _space_group_symop_operation_xyz
  'x, y, z'

loop_
  _atom_site_type_symbol
  _atom_site_label
  _atom_site_symmetry_multiplicity
  _atom_site_fract_x
  _atom_site_fract_y
  _atom_site_fract_z
  _atom_site_occupancy
  As  As1       1.0  0.51200  0.51200  0.51200  1.0000
  As  As2       1.0  0.99900  0.99900  0.99900  1.0000
  Na  Na1       1.0  0.23000  0.23000  0.23000  1.0000
  Na  Na2       1.0  0.76200  0.76200  0.76200  1.0000
  Pd  Pd1       1.0  0.35600  0.35600  0.35600  1.0000
  Pd  Pd2       1.0  0.62800  0.62800  0.62800  1.0000
  Pd  Pd3       1.0  0.88800  0.88800  0.88800  1.0000
