data_image0
_chemical_formula_structural       Ge2Os3Sb2
_chemical_formula_sum              "Ge2 Os3 Sb2"
_cell_length_a       7.85701
_cell_length_b       7.85701
_cell_length_c       7.85701
_cell_angle_alpha    32.4377
_cell_angle_beta     32.4377
_cell_angle_gamma    32.4377

_space_group_name_H-M_alt    "P 1"
_space_group_IT_number       1

loop_
  _space_group_symop_operation_xyz
  'x, y, z'

loop_
  _atom_site_type_symbol
  _atom_site_label
  _atom_site_symmetry_multiplicity
  _atom_site_fract_x
  _atom_site_fract_y
  _atom_site_fract_z
  _atom_site_occupancy
  Ge  Ge1       1.0  0.24600  0.24600  0.24600  1.0000
  Ge  Ge2       1.0  0.75300  0.75300  0.75300  1.0000
  Os  Os1       1.0  0.37200  0.37200  0.37200  1.0000
  Os  Os2       1.0  0.62400  0.62400  0.62400  1.0000
  Os  Os3       1.0  0.87900  0.87900  0.87900  1.0000
  Sb  Sb1       1.0  0.00543  0.00543  0.00543  1.0000
  Sb  Sb2       1.0  0.49500  0.49500  0.49500  1.0000
