data_image0
_chemical_formula_structural       Be2Os3Re2
_chemical_formula_sum              "Be2 Os3 Re2"
_cell_length_a       4.13659
_cell_length_b       4.13659
_cell_length_c       7.19443
_cell_angle_alpha    73.2925
_cell_angle_beta     73.2925
_cell_angle_gamma    60

_space_group_name_H-M_alt    "P 1"
_space_group_IT_number       1

loop_
  _space_group_symop_operation_xyz
  'x, y, z'

loop_
  _atom_site_type_symbol
  _atom_site_label
  _atom_site_symmetry_multiplicity
  _atom_site_fract_x
  _atom_site_fract_y
  _atom_site_fract_z
  _atom_site_occupancy
  Be  Be1       1.0  0.24200  0.24200  0.27400  1.0000
  Be  Be2       1.0  0.76800  0.76800  0.69700  1.0000
  Os  Os1       1.0  0.62200  0.62200  0.13300  1.0000
  Os  Os2       1.0  0.12300  0.12300  0.63100  1.0000
  Os  Os3       1.0  0.37400  0.37400  0.87800  1.0000
  Re  Re1       1.0  0.99200  0.99200  0.02390  1.0000
  Re  Re2       1.0  0.50400  0.50400  0.48800  1.0000
