data_image0
_chemical_formula_structural       Nb2Ru3Sn2
_chemical_formula_sum              "Nb2 Ru3 Sn2"
_cell_length_a       4.46621
_cell_length_b       4.46621
_cell_length_c       7.67414
_cell_angle_alpha    73.0827
_cell_angle_beta     73.0827
_cell_angle_gamma    60

_space_group_name_H-M_alt    "P 1"
_space_group_IT_number       1

loop_
  _space_group_symop_operation_xyz
  'x, y, z'

loop_
  _atom_site_type_symbol
  _atom_site_label
  _atom_site_symmetry_multiplicity
  _atom_site_fract_x
  _atom_site_fract_y
  _atom_site_fract_z
  _atom_site_occupancy
  Nb  Nb1       1.0  0.24700  0.24700  0.25900  1.0000
  Nb  Nb2       1.0  0.75400  0.75400  0.73800  1.0000
  Ru  Ru1       1.0  0.62800  0.62800  0.11700  1.0000
  Ru  Ru2       1.0  0.12300  0.12300  0.63000  1.0000
  Ru  Ru3       1.0  0.37500  0.37500  0.87500  1.0000
  Sn  Sn1       1.0  0.99300  0.99300  0.02010  1.0000
  Sn  Sn2       1.0  0.50500  0.50500  0.48600  1.0000
