data_image0
_chemical_formula_structural       Mo3Re2V2
_chemical_formula_sum              "Mo3 Re2 V2"
_cell_length_a       4.30794
_cell_length_b       4.30794
_cell_length_c       7.44027
_cell_angle_alpha    73.1719
_cell_angle_beta     73.1719
_cell_angle_gamma    60

_space_group_name_H-M_alt    "P 1"
_space_group_IT_number       1

loop_
  _space_group_symop_operation_xyz
  'x, y, z'

loop_
  _atom_site_type_symbol
  _atom_site_label
  _atom_site_symmetry_multiplicity
  _atom_site_fract_x
  _atom_site_fract_y
  _atom_site_fract_z
  _atom_site_occupancy
  Mo  Mo1       1.0  0.62300  0.62300  0.13000  1.0000
  Mo  Mo2       1.0  0.12700  0.12700  0.62000  1.0000
  Mo  Mo3       1.0  0.37500  0.37500  0.87600  1.0000
  Re  Re1       1.0  0.99900  0.99900  0.00290  1.0000
  Re  Re2       1.0  0.50400  0.50400  0.48900  1.0000
  V   V1        1.0  0.24600  0.24600  0.26300  1.0000
  V   V2        1.0  0.75200  0.75200  0.74300  1.0000
