data_image0
_chemical_formula_structural       Co2Cr3La2
_chemical_formula_sum              "Co2 Cr3 La2"
_cell_length_a       4.17628
_cell_length_b       4.17628
_cell_length_c       8.7519
_cell_angle_alpha    76.1965
_cell_angle_beta     76.1965
_cell_angle_gamma    60

_space_group_name_H-M_alt    "P 1"
_space_group_IT_number       1

loop_
  _space_group_symop_operation_xyz
  'x, y, z'

loop_
  _atom_site_type_symbol
  _atom_site_label
  _atom_site_symmetry_multiplicity
  _atom_site_fract_x
  _atom_site_fract_y
  _atom_site_fract_z
  _atom_site_occupancy
  Co  Co1       1.0  0.98000  0.98000  0.05940  1.0000
  Co  Co2       1.0  0.46900  0.46900  0.59400  1.0000
  Cr  Cr1       1.0  0.07150  0.07150  0.78500  1.0000
  Cr  Cr2       1.0  0.37100  0.37100  0.88700  1.0000
  Cr  Cr3       1.0  0.67300  0.67300  0.98200  1.0000
  La  La1       1.0  0.24800  0.24800  0.25700  1.0000
  La  La2       1.0  0.81300  0.81300  0.56100  1.0000
