data_image0
_chemical_formula_structural       Pb2Ru3Sb2
_chemical_formula_sum              "Pb2 Ru3 Sb2"
_cell_length_a       4.5989
_cell_length_b       4.5989
_cell_length_c       8.21492
_cell_angle_alpha    73.7451
_cell_angle_beta     73.7451
_cell_angle_gamma    60

_space_group_name_H-M_alt    "P 1"
_space_group_IT_number       1

loop_
  _space_group_symop_operation_xyz
  'x, y, z'

loop_
  _atom_site_type_symbol
  _atom_site_label
  _atom_site_symmetry_multiplicity
  _atom_site_fract_x
  _atom_site_fract_y
  _atom_site_fract_z
  _atom_site_occupancy
  Pb  Pb1       1.0  0.99500  0.99500  0.01370  1.0000
  Pb  Pb2       1.0  0.50500  0.50500  0.48600  1.0000
  Ru  Ru1       1.0  0.63100  0.63100  0.10700  1.0000
  Ru  Ru2       1.0  0.11800  0.11800  0.64700  1.0000
  Ru  Ru3       1.0  0.37600  0.37600  0.87300  1.0000
  Sb  Sb1       1.0  0.25000  0.25000  0.25100  1.0000
  Sb  Sb2       1.0  0.75100  0.75100  0.74600  1.0000
