data_image0
_chemical_formula_structural       Fe5K2
_chemical_formula_sum              "Fe5 K2"
_cell_length_a       4.03823
_cell_length_b       4.03823
_cell_length_c       10.7656
_cell_angle_alpha    79.1873
_cell_angle_beta     79.1873
_cell_angle_gamma    59.9988

_space_group_name_H-M_alt    "P 1"
_space_group_IT_number       1

loop_
  _space_group_symop_operation_xyz
  'x, y, z'

loop_
  _atom_site_type_symbol
  _atom_site_label
  _atom_site_symmetry_multiplicity
  _atom_site_fract_x
  _atom_site_fract_y
  _atom_site_fract_z
  _atom_site_occupancy
  Fe  Fe1       1.0  0.99600  0.99600  0.01230  1.0000
  Fe  Fe2       1.0  0.42300  0.42300  0.73000  1.0000
  Fe  Fe3       1.0  0.06840  0.06840  0.79500  1.0000
  Fe  Fe4       1.0  0.70900  0.70900  0.87300  1.0000
  Fe  Fe5       1.0  0.35200  0.35200  0.94400  1.0000
  K   K1        1.0  0.25300  0.25300  0.24000  1.0000
  K   K2        1.0  0.82300  0.82300  0.53000  1.0000
