data_image0
_chemical_formula_structural       Os3Sb2Ti2
_chemical_formula_sum              "Os3 Sb2 Ti2"
_cell_length_a       7.60691
_cell_length_b       7.60691
_cell_length_c       7.60691
_cell_angle_alpha    33.6673
_cell_angle_beta     33.6673
_cell_angle_gamma    33.6673

_space_group_name_H-M_alt    "P 1"
_space_group_IT_number       1

loop_
  _space_group_symop_operation_xyz
  'x, y, z'

loop_
  _atom_site_type_symbol
  _atom_site_label
  _atom_site_symmetry_multiplicity
  _atom_site_fract_x
  _atom_site_fract_y
  _atom_site_fract_z
  _atom_site_occupancy
  Os  Os1       1.0  0.37200  0.37200  0.37200  1.0000
  Os  Os2       1.0  0.62500  0.62500  0.62500  1.0000
  Os  Os3       1.0  0.87700  0.87700  0.87700  1.0000
  Sb  Sb1       1.0  0.00733  0.00733  0.00733  1.0000
  Sb  Sb2       1.0  0.49500  0.49500  0.49500  1.0000
  Ti  Ti1       1.0  0.24500  0.24500  0.24500  1.0000
  Ti  Ti2       1.0  0.75400  0.75400  0.75400  1.0000
