data_image0
_chemical_formula_structural       Ru3Sb2Ti2
_chemical_formula_sum              "Ru3 Sb2 Ti2"
_cell_length_a       4.38803
_cell_length_b       4.38803
_cell_length_c       7.54811
_cell_angle_alpha    73.1019
_cell_angle_beta     73.1019
_cell_angle_gamma    60

_space_group_name_H-M_alt    "P 1"
_space_group_IT_number       1

loop_
  _space_group_symop_operation_xyz
  'x, y, z'

loop_
  _atom_site_type_symbol
  _atom_site_label
  _atom_site_symmetry_multiplicity
  _atom_site_fract_x
  _atom_site_fract_y
  _atom_site_fract_z
  _atom_site_occupancy
  Ru  Ru1       1.0  0.62800  0.62800  0.11600  1.0000
  Ru  Ru2       1.0  0.12300  0.12300  0.63100  1.0000
  Ru  Ru3       1.0  0.37500  0.37500  0.87600  1.0000
  Sb  Sb1       1.0  0.99400  0.99400  0.01890  1.0000
  Sb  Sb2       1.0  0.50500  0.50500  0.48600  1.0000
  Ti  Ti1       1.0  0.24700  0.24700  0.26000  1.0000
  Ti  Ti2       1.0  0.75400  0.75400  0.73700  1.0000
