data_image0
_chemical_formula_structural       Mo3Nb2Re2
_chemical_formula_sum              "Mo3 Nb2 Re2"
_cell_length_a       4.43003
_cell_length_b       4.43003
_cell_length_c       7.60021
_cell_angle_alpha    73.0557
_cell_angle_beta     73.0557
_cell_angle_gamma    60

_space_group_name_H-M_alt    "P 1"
_space_group_IT_number       1

loop_
  _space_group_symop_operation_xyz
  'x, y, z'

loop_
  _atom_site_type_symbol
  _atom_site_label
  _atom_site_symmetry_multiplicity
  _atom_site_fract_x
  _atom_site_fract_y
  _atom_site_fract_z
  _atom_site_occupancy
  Mo  Mo1       1.0  0.62400  0.62400  0.12800  1.0000
  Mo  Mo2       1.0  0.12400  0.12400  0.62700  1.0000
  Mo  Mo3       1.0  0.37300  0.37300  0.88000  1.0000
  Nb  Nb1       1.0  0.24400  0.24400  0.26700  1.0000
  Nb  Nb2       1.0  0.75500  0.75500  0.73600  1.0000
  Re  Re1       1.0  0.50400  0.50400  0.48800  1.0000
  Re  Re2       1.0  0.00033  0.00033  0.99900  1.0000
