data_image0
_chemical_formula_structural       Bi2Ru3Si2
_chemical_formula_sum              "Bi2 Ru3 Si2"
_cell_length_a       4.33048
_cell_length_b       4.33048
_cell_length_c       8.2915
_cell_angle_alpha    74.8623
_cell_angle_beta     74.8623
_cell_angle_gamma    60

_space_group_name_H-M_alt    "P 1"
_space_group_IT_number       1

loop_
  _space_group_symop_operation_xyz
  'x, y, z'

loop_
  _atom_site_type_symbol
  _atom_site_label
  _atom_site_symmetry_multiplicity
  _atom_site_fract_x
  _atom_site_fract_y
  _atom_site_fract_z
  _atom_site_occupancy
  Bi  Bi1       1.0  0.99600  0.99600  0.01160  1.0000
  Bi  Bi2       1.0  0.50600  0.50600  0.48200  1.0000
  Ru  Ru1       1.0  0.62300  0.62300  0.13000  1.0000
  Ru  Ru2       1.0  0.11200  0.11200  0.66500  1.0000
  Ru  Ru3       1.0  0.37300  0.37300  0.88200  1.0000
  Si  Si1       1.0  0.26100  0.26100  0.21700  1.0000
  Si  Si2       1.0  0.75400  0.75400  0.73700  1.0000
