data_image0
_chemical_formula_structural       Bi2Cr3Mn2
_chemical_formula_sum              "Bi2 Cr3 Mn2"
_cell_length_a       4.53471
_cell_length_b       4.53471
_cell_length_c       7.61869
_cell_angle_alpha    72.6862
_cell_angle_beta     72.6862
_cell_angle_gamma    60

_space_group_name_H-M_alt    "P 1"
_space_group_IT_number       1

loop_
  _space_group_symop_operation_xyz
  'x, y, z'

loop_
  _atom_site_type_symbol
  _atom_site_label
  _atom_site_symmetry_multiplicity
  _atom_site_fract_x
  _atom_site_fract_y
  _atom_site_fract_z
  _atom_site_occupancy
  Bi  Bi1       1.0  0.98100  0.98100  0.05840  1.0000
  Bi  Bi2       1.0  0.50900  0.50900  0.47200  1.0000
  Cr  Cr1       1.0  0.64400  0.64400  0.06670  1.0000
  Cr  Cr2       1.0  0.11500  0.11500  0.65400  1.0000
  Cr  Cr3       1.0  0.37400  0.37400  0.87700  1.0000
  Mn  Mn1       1.0  0.25100  0.25100  0.24800  1.0000
  Mn  Mn2       1.0  0.75000  0.75000  0.74900  1.0000
