data_image0
_chemical_formula_structural       Ca2Fe3Re2
_chemical_formula_sum              "Ca2 Fe3 Re2"
_cell_length_a       4.24242
_cell_length_b       4.24242
_cell_length_c       8.09252
_cell_angle_alpha    74.8041
_cell_angle_beta     74.8041
_cell_angle_gamma    60

_space_group_name_H-M_alt    "P 1"
_space_group_IT_number       1

loop_
  _space_group_symop_operation_xyz
  'x, y, z'

loop_
  _atom_site_type_symbol
  _atom_site_label
  _atom_site_symmetry_multiplicity
  _atom_site_fract_x
  _atom_site_fract_y
  _atom_site_fract_z
  _atom_site_occupancy
  Ca  Ca1       1.0  0.24200  0.24200  0.27400  1.0000
  Ca  Ca2       1.0  0.75600  0.75600  0.73200  1.0000
  Fe  Fe1       1.0  0.64200  0.64200  0.07320  1.0000
  Fe  Fe2       1.0  0.12200  0.12200  0.63300  1.0000
  Fe  Fe3       1.0  0.37100  0.37100  0.88600  1.0000
  Re  Re1       1.0  0.48500  0.48500  0.54500  1.0000
  Re  Re2       1.0  0.00618  0.00618  0.98100  1.0000
