data_image0
_chemical_formula_structural       Be2Mn2Os3
_chemical_formula_sum              "Be2 Mn2 Os3"
_cell_length_a       4.14688
_cell_length_b       4.14688
_cell_length_c       6.27478
_cell_angle_alpha    70.7044
_cell_angle_beta     70.7044
_cell_angle_gamma    60.0003

_space_group_name_H-M_alt    "P 1"
_space_group_IT_number       1

loop_
  _space_group_symop_operation_xyz
  'x, y, z'

loop_
  _atom_site_type_symbol
  _atom_site_label
  _atom_site_symmetry_multiplicity
  _atom_site_fract_x
  _atom_site_fract_y
  _atom_site_fract_z
  _atom_site_occupancy
  Be  Be1       1.0  0.95000  0.95000  0.15100  1.0000
  Be  Be2       1.0  0.51400  0.51400  0.45900  1.0000
  Mn  Mn1       1.0  0.23700  0.23700  0.28900  1.0000
  Mn  Mn2       1.0  0.79900  0.79900  0.60200  1.0000
  Os  Os1       1.0  0.64400  0.64400  0.06850  1.0000
  Os  Os2       1.0  0.10300  0.10300  0.69200  1.0000
  Os  Os3       1.0  0.37900  0.37900  0.86300  1.0000
