data_image0
_chemical_formula_structural       Be2Re2Ru3
_chemical_formula_sum              "Be2 Re2 Ru3"
_cell_length_a       4.10887
_cell_length_b       4.10887
_cell_length_c       7.09533
_cell_angle_alpha    73.1692
_cell_angle_beta     73.1692
_cell_angle_gamma    60

_space_group_name_H-M_alt    "P 1"
_space_group_IT_number       1

loop_
  _space_group_symop_operation_xyz
  'x, y, z'

loop_
  _atom_site_type_symbol
  _atom_site_label
  _atom_site_symmetry_multiplicity
  _atom_site_fract_x
  _atom_site_fract_y
  _atom_site_fract_z
  _atom_site_occupancy
  Be  Be1       1.0  0.24400  0.24400  0.26800  1.0000
  Be  Be2       1.0  0.76200  0.76200  0.71300  1.0000
  Re  Re1       1.0  0.99300  0.99300  0.02040  1.0000
  Re  Re2       1.0  0.50400  0.50400  0.48700  1.0000
  Ru  Ru1       1.0  0.62300  0.62300  0.13100  1.0000
  Ru  Ru2       1.0  0.12400  0.12400  0.62700  1.0000
  Ru  Ru3       1.0  0.37400  0.37400  0.87800  1.0000
