data_image0
_chemical_formula_structural       As2Ru3Si2
_chemical_formula_sum              "As2 Ru3 Si2"
_cell_length_a       4.14367
_cell_length_b       4.14367
_cell_length_c       7.4295
_cell_angle_alpha    73.8075
_cell_angle_beta     73.8075
_cell_angle_gamma    60

_space_group_name_H-M_alt    "P 1"
_space_group_IT_number       1

loop_
  _space_group_symop_operation_xyz
  'x, y, z'

loop_
  _atom_site_type_symbol
  _atom_site_label
  _atom_site_symmetry_multiplicity
  _atom_site_fract_x
  _atom_site_fract_y
  _atom_site_fract_z
  _atom_site_occupancy
  As  As1       1.0  0.99200  0.99200  0.02420  1.0000
  As  As2       1.0  0.50700  0.50700  0.48000  1.0000
  Ru  Ru1       1.0  0.62700  0.62700  0.11800  1.0000
  Ru  Ru2       1.0  0.12400  0.12400  0.62700  1.0000
  Ru  Ru3       1.0  0.37500  0.37500  0.87400  1.0000
  Si  Si1       1.0  0.24500  0.24500  0.26400  1.0000
  Si  Si2       1.0  0.75400  0.75400  0.73700  1.0000
