data_image0
_chemical_formula_structural       Fe3Li2Ru2
_chemical_formula_sum              "Fe3 Li2 Ru2"
_cell_length_a       4.06809
_cell_length_b       4.06809
_cell_length_c       6.77827
_cell_angle_alpha    72.5374
_cell_angle_beta     72.5374
_cell_angle_gamma    60

_space_group_name_H-M_alt    "P 1"
_space_group_IT_number       1

loop_
  _space_group_symop_operation_xyz
  'x, y, z'

loop_
  _atom_site_type_symbol
  _atom_site_label
  _atom_site_symmetry_multiplicity
  _atom_site_fract_x
  _atom_site_fract_y
  _atom_site_fract_z
  _atom_site_occupancy
  Fe  Fe1       1.0  0.62700  0.62700  0.12000  1.0000
  Fe  Fe2       1.0  0.11800  0.11800  0.64500  1.0000
  Fe  Fe3       1.0  0.37600  0.37600  0.87200  1.0000
  Li  Li1       1.0  0.24300  0.24300  0.27000  1.0000
  Li  Li2       1.0  0.76300  0.76300  0.71100  1.0000
  Ru  Ru1       1.0  0.99200  0.99200  0.02420  1.0000
  Ru  Ru2       1.0  0.50600  0.50600  0.48300  1.0000
