data_image0
_chemical_formula_structural       Mn2Ru3Sr2
_chemical_formula_sum              "Mn2 Ru3 Sr2"
_cell_length_a       4.57455
_cell_length_b       4.57455
_cell_length_c       8.60994
_cell_angle_alpha    74.5941
_cell_angle_beta     74.5941
_cell_angle_gamma    60

_space_group_name_H-M_alt    "P 1"
_space_group_IT_number       1

loop_
  _space_group_symop_operation_xyz
  'x, y, z'

loop_
  _atom_site_type_symbol
  _atom_site_label
  _atom_site_symmetry_multiplicity
  _atom_site_fract_x
  _atom_site_fract_y
  _atom_site_fract_z
  _atom_site_occupancy
  Mn  Mn1       1.0  0.47900  0.47900  0.56400  1.0000
  Mn  Mn2       1.0  0.00746  0.00746  0.97800  1.0000
  Ru  Ru1       1.0  0.65500  0.65500  0.03390  1.0000
  Ru  Ru2       1.0  0.11500  0.11500  0.65500  1.0000
  Ru  Ru3       1.0  0.36100  0.36100  0.91700  1.0000
  Sr  Sr1       1.0  0.23900  0.23900  0.28200  1.0000
  Sr  Sr2       1.0  0.76800  0.76800  0.69600  1.0000
