data_image0
_chemical_formula_structural       Os3Sn2Ta2
_chemical_formula_sum              "Os3 Sn2 Ta2"
_cell_length_a       7.71903
_cell_length_b       7.71903
_cell_length_c       7.71903
_cell_angle_alpha    33.7316
_cell_angle_beta     33.7316
_cell_angle_gamma    33.7316

_space_group_name_H-M_alt    "P 1"
_space_group_IT_number       1

loop_
  _space_group_symop_operation_xyz
  'x, y, z'

loop_
  _atom_site_type_symbol
  _atom_site_label
  _atom_site_symmetry_multiplicity
  _atom_site_fract_x
  _atom_site_fract_y
  _atom_site_fract_z
  _atom_site_occupancy
  Os  Os1       1.0  0.37200  0.37200  0.37200  1.0000
  Os  Os2       1.0  0.62500  0.62500  0.62500  1.0000
  Os  Os3       1.0  0.87600  0.87600  0.87600  1.0000
  Sn  Sn1       1.0  0.00779  0.00779  0.00779  1.0000
  Sn  Sn2       1.0  0.49500  0.49500  0.49500  1.0000
  Ta  Ta1       1.0  0.24600  0.24600  0.24600  1.0000
  Ta  Ta2       1.0  0.75300  0.75300  0.75300  1.0000
