data_image0
_chemical_formula_structural       Os2Rb2Ru3
_chemical_formula_sum              "Os2 Rb2 Ru3"
_cell_length_a       4.81043
_cell_length_b       4.81043
_cell_length_c       7.50037
_cell_angle_alpha    71.296
_cell_angle_beta     71.296
_cell_angle_gamma    60

_space_group_name_H-M_alt    "P 1"
_space_group_IT_number       1

loop_
  _space_group_symop_operation_xyz
  'x, y, z'

loop_
  _atom_site_type_symbol
  _atom_site_label
  _atom_site_symmetry_multiplicity
  _atom_site_fract_x
  _atom_site_fract_y
  _atom_site_fract_z
  _atom_site_occupancy
  Os  Os1       1.0  0.49400  0.49400  0.51900  1.0000
  Os  Os2       1.0  0.00766  0.00766  0.97700  1.0000
  Rb  Rb1       1.0  0.24400  0.24400  0.26900  1.0000
  Rb  Rb2       1.0  0.77000  0.77000  0.69100  1.0000
  Ru  Ru1       1.0  0.61700  0.61700  0.15000  1.0000
  Ru  Ru2       1.0  0.12100  0.12100  0.63800  1.0000
  Ru  Ru3       1.0  0.37300  0.37300  0.88000  1.0000
