data_image0
_chemical_formula_structural       Be2Fe3Re2
_chemical_formula_sum              "Be2 Fe3 Re2"
_cell_length_a       3.88583
_cell_length_b       3.88583
_cell_length_c       6.65481
_cell_angle_alpha    73.0249
_cell_angle_beta     73.0249
_cell_angle_gamma    60

_space_group_name_H-M_alt    "P 1"
_space_group_IT_number       1

loop_
  _space_group_symop_operation_xyz
  'x, y, z'

loop_
  _atom_site_type_symbol
  _atom_site_label
  _atom_site_symmetry_multiplicity
  _atom_site_fract_x
  _atom_site_fract_y
  _atom_site_fract_z
  _atom_site_occupancy
  Be  Be1       1.0  0.24600  0.24600  0.26300  1.0000
  Be  Be2       1.0  0.75700  0.75700  0.72800  1.0000
  Fe  Fe1       1.0  0.62600  0.62600  0.12100  1.0000
  Fe  Fe2       1.0  0.12300  0.12300  0.63000  1.0000
  Fe  Fe3       1.0  0.37500  0.37500  0.87600  1.0000
  Re  Re1       1.0  0.99300  0.99300  0.02110  1.0000
  Re  Re2       1.0  0.50500  0.50500  0.48600  1.0000
