data_image0
_chemical_formula_structural       Ge2Ru3Sb2
_chemical_formula_sum              "Ge2 Ru3 Sb2"
_cell_length_a       4.43171
_cell_length_b       4.43171
_cell_length_c       7.64668
_cell_angle_alpha    73.1552
_cell_angle_beta     73.1552
_cell_angle_gamma    60

_space_group_name_H-M_alt    "P 1"
_space_group_IT_number       1

loop_
  _space_group_symop_operation_xyz
  'x, y, z'

loop_
  _atom_site_type_symbol
  _atom_site_label
  _atom_site_symmetry_multiplicity
  _atom_site_fract_x
  _atom_site_fract_y
  _atom_site_fract_z
  _atom_site_occupancy
  Ge  Ge1       1.0  0.24700  0.24700  0.25900  1.0000
  Ge  Ge2       1.0  0.75400  0.75400  0.73900  1.0000
  Ru  Ru1       1.0  0.62900  0.62900  0.11400  1.0000
  Ru  Ru2       1.0  0.12200  0.12200  0.63400  1.0000
  Ru  Ru3       1.0  0.37500  0.37500  0.87600  1.0000
  Sb  Sb1       1.0  0.99500  0.99500  0.01470  1.0000
  Sb  Sb2       1.0  0.50400  0.50400  0.48900  1.0000
