data_image0
_chemical_formula_structural       Ca2Mn2Ru3
_chemical_formula_sum              "Ca2 Mn2 Ru3"
_cell_length_a       4.57018
_cell_length_b       4.57018
_cell_length_c       8.00695
_cell_angle_alpha    73.4179
_cell_angle_beta     73.4179
_cell_angle_gamma    60

_space_group_name_H-M_alt    "P 1"
_space_group_IT_number       1

loop_
  _space_group_symop_operation_xyz
  'x, y, z'

loop_
  _atom_site_type_symbol
  _atom_site_label
  _atom_site_symmetry_multiplicity
  _atom_site_fract_x
  _atom_site_fract_y
  _atom_site_fract_z
  _atom_site_occupancy
  Ca  Ca1       1.0  0.24000  0.24000  0.28000  1.0000
  Ca  Ca2       1.0  0.76600  0.76600  0.70300  1.0000
  Mn  Mn1       1.0  0.49600  0.49600  0.51300  1.0000
  Mn  Mn2       1.0  0.00115  0.00115  0.99700  1.0000
  Ru  Ru1       1.0  0.64000  0.64000  0.07910  1.0000
  Ru  Ru2       1.0  0.11400  0.11400  0.65800  1.0000
  Ru  Ru3       1.0  0.36800  0.36800  0.89500  1.0000
