data_image0
_chemical_formula_structural       Bi2Os3Si2
_chemical_formula_sum              "Bi2 Os3 Si2"
_cell_length_a       8.38411
_cell_length_b       8.38411
_cell_length_c       8.38411
_cell_angle_alpha    29.925
_cell_angle_beta     29.925
_cell_angle_gamma    29.925

_space_group_name_H-M_alt    "P 1"
_space_group_IT_number       1

loop_
  _space_group_symop_operation_xyz
  'x, y, z'

loop_
  _atom_site_type_symbol
  _atom_site_label
  _atom_site_symmetry_multiplicity
  _atom_site_fract_x
  _atom_site_fract_y
  _atom_site_fract_z
  _atom_site_occupancy
  Bi  Bi1       1.0  0.00447  0.00447  0.00447  1.0000
  Bi  Bi2       1.0  0.49500  0.49500  0.49500  1.0000
  Os  Os1       1.0  0.37900  0.37900  0.37900  1.0000
  Os  Os2       1.0  0.62700  0.62700  0.62700  1.0000
  Os  Os3       1.0  0.88900  0.88900  0.88900  1.0000
  Si  Si1       1.0  0.24300  0.24300  0.24300  1.0000
  Si  Si2       1.0  0.73700  0.73700  0.73700  1.0000
