data_image0
_chemical_formula_structural       Ca2Os3Re2
_chemical_formula_sum              "Ca2 Os3 Re2"
_cell_length_a       4.4893
_cell_length_b       4.4893
_cell_length_c       7.63755
_cell_angle_alpha    72.9086
_cell_angle_beta     72.9086
_cell_angle_gamma    60

_space_group_name_H-M_alt    "P 1"
_space_group_IT_number       1

loop_
  _space_group_symop_operation_xyz
  'x, y, z'

loop_
  _atom_site_type_symbol
  _atom_site_label
  _atom_site_symmetry_multiplicity
  _atom_site_fract_x
  _atom_site_fract_y
  _atom_site_fract_z
  _atom_site_occupancy
  Ca  Ca1       1.0  0.24300  0.24300  0.27000  1.0000
  Ca  Ca2       1.0  0.76100  0.76100  0.71800  1.0000
  Os  Os1       1.0  0.62200  0.62200  0.13300  1.0000
  Os  Os2       1.0  0.12100  0.12100  0.63700  1.0000
  Os  Os3       1.0  0.37100  0.37100  0.88600  1.0000
  Re  Re1       1.0  0.50400  0.50400  0.48900  1.0000
  Re  Re2       1.0  0.00262  0.00262  0.99200  1.0000
