data_image0
_chemical_formula_structural       Bi2Os3Pb2
_chemical_formula_sum              "Bi2 Os3 Pb2"
_cell_length_a       8.365
_cell_length_b       8.365
_cell_length_c       8.365
_cell_angle_alpha    32.6521
_cell_angle_beta     32.6521
_cell_angle_gamma    32.6521

_space_group_name_H-M_alt    "P 1"
_space_group_IT_number       1

loop_
  _space_group_symop_operation_xyz
  'x, y, z'

loop_
  _atom_site_type_symbol
  _atom_site_label
  _atom_site_symmetry_multiplicity
  _atom_site_fract_x
  _atom_site_fract_y
  _atom_site_fract_z
  _atom_site_occupancy
  Bi  Bi1       1.0  0.24600  0.24600  0.24600  1.0000
  Bi  Bi2       1.0  0.75100  0.75100  0.75100  1.0000
  Os  Os1       1.0  0.36800  0.36800  0.36800  1.0000
  Os  Os2       1.0  0.62600  0.62600  0.62600  1.0000
  Os  Os3       1.0  0.88300  0.88300  0.88300  1.0000
  Pb  Pb1       1.0  0.00420  0.00420  0.00420  1.0000
  Pb  Pb2       1.0  0.49700  0.49700  0.49700  1.0000
