data_image0
_chemical_formula_structural       Ba2Fe3Mn2
_chemical_formula_sum              "Ba2 Fe3 Mn2"
_cell_length_a       4.62805
_cell_length_b       4.62805
_cell_length_c       8.7568
_cell_angle_alpha    74.6773
_cell_angle_beta     74.6773
_cell_angle_gamma    60

_space_group_name_H-M_alt    "P 1"
_space_group_IT_number       1

loop_
  _space_group_symop_operation_xyz
  'x, y, z'

loop_
  _atom_site_type_symbol
  _atom_site_label
  _atom_site_symmetry_multiplicity
  _atom_site_fract_x
  _atom_site_fract_y
  _atom_site_fract_z
  _atom_site_occupancy
  Ba  Ba1       1.0  0.23900  0.23900  0.28200  1.0000
  Ba  Ba2       1.0  0.76800  0.76800  0.69700  1.0000
  Fe  Fe1       1.0  0.65600  0.65600  0.03220  1.0000
  Fe  Fe2       1.0  0.10900  0.10900  0.67300  1.0000
  Fe  Fe3       1.0  0.36200  0.36200  0.91300  1.0000
  Mn  Mn1       1.0  0.47900  0.47900  0.56300  1.0000
  Mn  Mn2       1.0  0.01170  0.01170  0.96500  1.0000
