data_image0
_chemical_formula_structural       Bi2Ge2Os3
_chemical_formula_sum              "Bi2 Ge2 Os3"
_cell_length_a       8.33012
_cell_length_b       8.33012
_cell_length_c       8.33012
_cell_angle_alpha    30.8694
_cell_angle_beta     30.8694
_cell_angle_gamma    30.8694

_space_group_name_H-M_alt    "P 1"
_space_group_IT_number       1

loop_
  _space_group_symop_operation_xyz
  'x, y, z'

loop_
  _atom_site_type_symbol
  _atom_site_label
  _atom_site_symmetry_multiplicity
  _atom_site_fract_x
  _atom_site_fract_y
  _atom_site_fract_z
  _atom_site_occupancy
  Bi  Bi1       1.0  0.00454  0.00454  0.00454  1.0000
  Bi  Bi2       1.0  0.49500  0.49500  0.49500  1.0000
  Ge  Ge1       1.0  0.24700  0.24700  0.24700  1.0000
  Ge  Ge2       1.0  0.74400  0.74400  0.74400  1.0000
  Os  Os1       1.0  0.37300  0.37300  0.37300  1.0000
  Os  Os2       1.0  0.62500  0.62500  0.62500  1.0000
  Os  Os3       1.0  0.88600  0.88600  0.88600  1.0000
