data_image0
_chemical_formula_structural       Be2Fe3Mn2
_chemical_formula_sum              "Be2 Fe3 Mn2"
_cell_length_a       3.73599
_cell_length_b       3.73599
_cell_length_c       6.29836
_cell_angle_alpha    72.7474
_cell_angle_beta     72.7474
_cell_angle_gamma    60

_space_group_name_H-M_alt    "P 1"
_space_group_IT_number       1

loop_
  _space_group_symop_operation_xyz
  'x, y, z'

loop_
  _atom_site_type_symbol
  _atom_site_label
  _atom_site_symmetry_multiplicity
  _atom_site_fract_x
  _atom_site_fract_y
  _atom_site_fract_z
  _atom_site_occupancy
  Be  Be1       1.0  0.98800  0.98800  0.03560  1.0000
  Be  Be2       1.0  0.50400  0.50400  0.48700  1.0000
  Fe  Fe1       1.0  0.62800  0.62800  0.11600  1.0000
  Fe  Fe2       1.0  0.12300  0.12300  0.63100  1.0000
  Fe  Fe3       1.0  0.37400  0.37400  0.87700  1.0000
  Mn  Mn1       1.0  0.24300  0.24300  0.27000  1.0000
  Mn  Mn2       1.0  0.76400  0.76400  0.70800  1.0000
