data_image0
_chemical_formula_structural       Fe3La2Mo2
_chemical_formula_sum              "Fe3 La2 Mo2"
_cell_length_a       4.56716
_cell_length_b       4.56716
_cell_length_c       7.9387
_cell_angle_alpha    73.2826
_cell_angle_beta     73.2826
_cell_angle_gamma    60

_space_group_name_H-M_alt    "P 1"
_space_group_IT_number       1

loop_
  _space_group_symop_operation_xyz
  'x, y, z'

loop_
  _atom_site_type_symbol
  _atom_site_label
  _atom_site_symmetry_multiplicity
  _atom_site_fract_x
  _atom_site_fract_y
  _atom_site_fract_z
  _atom_site_occupancy
  Fe  Fe1       1.0  0.65300  0.65300  0.04060  1.0000
  Fe  Fe2       1.0  0.11000  0.11000  0.67100  1.0000
  Fe  Fe3       1.0  0.36000  0.36000  0.91900  1.0000
  La  La1       1.0  0.23900  0.23900  0.28300  1.0000
  La  La2       1.0  0.78400  0.78400  0.64700  1.0000
  Mo  Mo1       1.0  0.46800  0.46800  0.59500  1.0000
  Mo  Mo2       1.0  0.01020  0.01020  0.96900  1.0000
