data_image0
_chemical_formula_structural       Ru3Sn2V2
_chemical_formula_sum              "Ru3 Sn2 V2"
_cell_length_a       4.36553
_cell_length_b       4.36553
_cell_length_c       7.44117
_cell_angle_alpha    72.9422
_cell_angle_beta     72.9422
_cell_angle_gamma    60

_space_group_name_H-M_alt    "P 1"
_space_group_IT_number       1

loop_
  _space_group_symop_operation_xyz
  'x, y, z'

loop_
  _atom_site_type_symbol
  _atom_site_label
  _atom_site_symmetry_multiplicity
  _atom_site_fract_x
  _atom_site_fract_y
  _atom_site_fract_z
  _atom_site_occupancy
  Ru  Ru1       1.0  0.62900  0.62900  0.11300  1.0000
  Ru  Ru2       1.0  0.12400  0.12400  0.62800  1.0000
  Ru  Ru3       1.0  0.37600  0.37600  0.87200  1.0000
  Sn  Sn1       1.0  0.99100  0.99100  0.02700  1.0000
  Sn  Sn2       1.0  0.50600  0.50600  0.48300  1.0000
  V   V1        1.0  0.24600  0.24600  0.26100  1.0000
  V   V2        1.0  0.75300  0.75300  0.74000  1.0000
