data_image0
_chemical_formula_structural       Os3Sn2V2
_chemical_formula_sum              "Os3 Sn2 V2"
_cell_length_a       7.48237
_cell_length_b       7.48237
_cell_length_c       7.48237
_cell_angle_alpha    34.0724
_cell_angle_beta     34.0724
_cell_angle_gamma    34.0724

_space_group_name_H-M_alt    "P 1"
_space_group_IT_number       1

loop_
  _space_group_symop_operation_xyz
  'x, y, z'

loop_
  _atom_site_type_symbol
  _atom_site_label
  _atom_site_symmetry_multiplicity
  _atom_site_fract_x
  _atom_site_fract_y
  _atom_site_fract_z
  _atom_site_occupancy
  Os  Os1       1.0  0.37100  0.37100  0.37100  1.0000
  Os  Os2       1.0  0.62400  0.62400  0.62400  1.0000
  Os  Os3       1.0  0.87600  0.87600  0.87600  1.0000
  Sn  Sn1       1.0  0.01060  0.01060  0.01060  1.0000
  Sn  Sn2       1.0  0.49400  0.49400  0.49400  1.0000
  V   V1        1.0  0.24600  0.24600  0.24600  1.0000
  V   V2        1.0  0.75400  0.75400  0.75400  1.0000
