data_image0
_chemical_formula_structural       Os3Pb2Sb2
_chemical_formula_sum              "Os3 Pb2 Sb2"
_cell_length_a       8.2517
_cell_length_b       8.2517
_cell_length_c       8.2517
_cell_angle_alpha    32.4492
_cell_angle_beta     32.4492
_cell_angle_gamma    32.4492

_space_group_name_H-M_alt    "P 1"
_space_group_IT_number       1

loop_
  _space_group_symop_operation_xyz
  'x, y, z'

loop_
  _atom_site_type_symbol
  _atom_site_label
  _atom_site_symmetry_multiplicity
  _atom_site_fract_x
  _atom_site_fract_y
  _atom_site_fract_z
  _atom_site_occupancy
  Os  Os1       1.0  0.37000  0.37000  0.37000  1.0000
  Os  Os2       1.0  0.62500  0.62500  0.62500  1.0000
  Os  Os3       1.0  0.88200  0.88200  0.88200  1.0000
  Pb  Pb1       1.0  0.00476  0.00476  0.00476  1.0000
  Pb  Pb2       1.0  0.49500  0.49500  0.49500  1.0000
  Sb  Sb1       1.0  0.24800  0.24800  0.24800  1.0000
  Sb  Sb2       1.0  0.75000  0.75000  0.75000  1.0000
