data_image0
_chemical_formula_structural       Bi2Hf2Ru3
_chemical_formula_sum              "Bi2 Hf2 Ru3"
_cell_length_a       4.59283
_cell_length_b       4.59283
_cell_length_c       7.89453
_cell_angle_alpha    73.089
_cell_angle_beta     73.089
_cell_angle_gamma    60

_space_group_name_H-M_alt    "P 1"
_space_group_IT_number       1

loop_
  _space_group_symop_operation_xyz
  'x, y, z'

loop_
  _atom_site_type_symbol
  _atom_site_label
  _atom_site_symmetry_multiplicity
  _atom_site_fract_x
  _atom_site_fract_y
  _atom_site_fract_z
  _atom_site_occupancy
  Bi  Bi1       1.0  0.99400  0.99400  0.01690  1.0000
  Bi  Bi2       1.0  0.50400  0.50400  0.48700  1.0000
  Hf  Hf1       1.0  0.24800  0.24800  0.25600  1.0000
  Hf  Hf2       1.0  0.75300  0.75300  0.74000  1.0000
  Ru  Ru1       1.0  0.62800  0.62800  0.11500  1.0000
  Ru  Ru2       1.0  0.12200  0.12200  0.63300  1.0000
  Ru  Ru3       1.0  0.37400  0.37400  0.87700  1.0000
