data_image0
_chemical_formula_structural       Bi2Os3Ti2
_chemical_formula_sum              "Bi2 Os3 Ti2"
_cell_length_a       7.74114
_cell_length_b       7.74114
_cell_length_c       7.74114
_cell_angle_alpha    33.8556
_cell_angle_beta     33.8556
_cell_angle_gamma    33.8556

_space_group_name_H-M_alt    "P 1"
_space_group_IT_number       1

loop_
  _space_group_symop_operation_xyz
  'x, y, z'

loop_
  _atom_site_type_symbol
  _atom_site_label
  _atom_site_symmetry_multiplicity
  _atom_site_fract_x
  _atom_site_fract_y
  _atom_site_fract_z
  _atom_site_occupancy
  Bi  Bi1       1.0  0.00864  0.00864  0.00864  1.0000
  Bi  Bi2       1.0  0.49400  0.49400  0.49400  1.0000
  Os  Os1       1.0  0.37000  0.37000  0.37000  1.0000
  Os  Os2       1.0  0.62500  0.62500  0.62500  1.0000
  Os  Os3       1.0  0.87800  0.87800  0.87800  1.0000
  Ti  Ti1       1.0  0.24600  0.24600  0.24600  1.0000
  Ti  Ti2       1.0  0.75200  0.75200  0.75200  1.0000
