data_image0
_chemical_formula_structural       Ca2Mo3Ni2
_chemical_formula_sum              "Ca2 Mo3 Ni2"
_cell_length_a       4.39399
_cell_length_b       4.39399
_cell_length_c       8.2955
_cell_angle_alpha    74.6425
_cell_angle_beta     74.6425
_cell_angle_gamma    60

_space_group_name_H-M_alt    "P 1"
_space_group_IT_number       1

loop_
  _space_group_symop_operation_xyz
  'x, y, z'

loop_
  _atom_site_type_symbol
  _atom_site_label
  _atom_site_symmetry_multiplicity
  _atom_site_fract_x
  _atom_site_fract_y
  _atom_site_fract_z
  _atom_site_occupancy
  Ca  Ca1       1.0  0.23900  0.23900  0.28400  1.0000
  Ca  Ca2       1.0  0.81000  0.81000  0.57100  1.0000
  Mo  Mo1       1.0  0.07600  0.07600  0.77200  1.0000
  Mo  Mo2       1.0  0.37600  0.37600  0.87300  1.0000
  Mo  Mo3       1.0  0.66900  0.66900  0.99400  1.0000
  Ni  Ni1       1.0  0.97300  0.97300  0.07960  1.0000
  Ni  Ni2       1.0  0.48300  0.48300  0.55200  1.0000
