data_image0
_chemical_formula_structural       As4Fe4Te4
_chemical_formula_sum              "As4 Fe4 Te4"
_cell_length_a       6.21761
_cell_length_b       6.10783
_cell_length_c       6.25457
_cell_angle_alpha    90
_cell_angle_beta     114.417
_cell_angle_gamma    90

_space_group_name_H-M_alt    "P 1"
_space_group_IT_number       1

loop_
  _space_group_symop_operation_xyz
  'x, y, z'

loop_
  _atom_site_type_symbol
  _atom_site_label
  _atom_site_symmetry_multiplicity
  _atom_site_fract_x
  _atom_site_fract_y
  _atom_site_fract_z
  _atom_site_occupancy
  As  As1       1.0  0.35600  0.34900  0.16200  1.0000
  As  As2       1.0  0.64400  0.84900  0.33800  1.0000
  As  As3       1.0  0.35600  0.15100  0.66200  1.0000
  As  As4       1.0  0.64400  0.65100  0.83800  1.0000
  Fe  Fe1       1.0  0.71500  0.50800  0.20700  1.0000
  Fe  Fe2       1.0  0.28500  0.00833  0.29300  1.0000
  Fe  Fe3       1.0  0.71500  0.99200  0.70700  1.0000
  Fe  Fe4       1.0  0.28500  0.49200  0.79300  1.0000
  Te  Te1       1.0  0.84700  0.13000  0.13300  1.0000
  Te  Te2       1.0  0.15300  0.63000  0.36700  1.0000
  Te  Te3       1.0  0.84700  0.37000  0.63300  1.0000
  Te  Te4       1.0  0.15300  0.87000  0.86700  1.0000
