data_image0
_chemical_formula_structural       Bi2GeTe4
_chemical_formula_sum              "Bi2 Ge1 Te4"
_cell_length_a       4.39965
_cell_length_b       4.39965
_cell_length_c       14.0964
_cell_angle_alpha    81.022
_cell_angle_beta     98.978
_cell_angle_gamma    120

_space_group_name_H-M_alt    "P 1"
_space_group_IT_number       1

loop_
  _space_group_symop_operation_xyz
  'x, y, z'

loop_
  _atom_site_type_symbol
  _atom_site_label
  _atom_site_symmetry_multiplicity
  _atom_site_fract_x
  _atom_site_fract_y
  _atom_site_fract_z
  _atom_site_occupancy
  Bi  Bi1       1.0  0.42400  0.57600  0.27200  1.0000
  Bi  Bi2       1.0  0.57600  0.42400  0.72800  1.0000
  Ge  Ge1       1.0  0.00000  0.00000  0.00000  1.0000
  Te  Te1       1.0  0.70700  0.29300  0.12000  1.0000
  Te  Te2       1.0  0.13300  0.86700  0.39900  1.0000
  Te  Te3       1.0  0.86700  0.13300  0.60100  1.0000
  Te  Te4       1.0  0.29300  0.70700  0.88000  1.0000
