data_image0
_chemical_formula_structural       Cr2Te4Ti
_chemical_formula_sum              "Cr2 Te4 Ti1"
_cell_length_a       3.93623
_cell_length_b       7.02057
_cell_length_c       7.38513
_cell_angle_alpha    117.61
_cell_angle_beta     105.456
_cell_angle_gamma    90

_space_group_name_H-M_alt    "P 1"
_space_group_IT_number       1

loop_
  _space_group_symop_operation_xyz
  'x, y, z'

loop_
  _atom_site_type_symbol
  _atom_site_label
  _atom_site_symmetry_multiplicity
  _atom_site_fract_x
  _atom_site_fract_y
  _atom_site_fract_z
  _atom_site_occupancy
  Cr  Cr1       1.0  0.74200  0.72500  0.48500  1.0000
  Cr  Cr2       1.0  0.25800  0.27500  0.51500  1.0000
  Te  Te1       1.0  0.12200  0.45100  0.24500  1.0000
  Te  Te2       1.0  0.63300  0.96700  0.26600  1.0000
  Te  Te3       1.0  0.36700  0.03310  0.73400  1.0000
  Te  Te4       1.0  0.87800  0.54900  0.75500  1.0000
  Ti  Ti1       1.0  0.00000  0.00000  0.00000  1.0000
