data_image0
_chemical_formula_structural       Sn2Yb2Zn2
_chemical_formula_sum              "Sn2 Yb2 Zn2"
_cell_length_a       4.65087
_cell_length_b       4.6508
_cell_length_c       7.4223
_cell_angle_alpha    90
_cell_angle_beta     90
_cell_angle_gamma    120.001

_space_group_name_H-M_alt    "P 1"
_space_group_IT_number       1

loop_
  _space_group_symop_operation_xyz
  'x, y, z'

loop_
  _atom_site_type_symbol
  _atom_site_label
  _atom_site_symmetry_multiplicity
  _atom_site_fract_x
  _atom_site_fract_y
  _atom_site_fract_z
  _atom_site_occupancy
  Sn  Sn1       1.0  0.33300  0.66700  0.47300  1.0000
  Sn  Sn2       1.0  0.66700  0.33300  0.97300  1.0000
  Yb  Yb1       1.0  0.00000  0.00000  0.25200  1.0000
  Yb  Yb2       1.0  0.00001  0.00001  0.75200  1.0000
  Zn  Zn1       1.0  0.33300  0.66700  0.06480  1.0000
  Zn  Zn2       1.0  0.66700  0.33300  0.56500  1.0000
