data_image0
_chemical_formula_structural       Pt4Yb4Zn4
_chemical_formula_sum              "Pt4 Yb4 Zn4"
_cell_length_a       6.9913
_cell_length_b       4.2078
_cell_length_c       7.90491
_cell_angle_alpha    90
_cell_angle_beta     90
_cell_angle_gamma    90

_space_group_name_H-M_alt    "P 1"
_space_group_IT_number       1

loop_
  _space_group_symop_operation_xyz
  'x, y, z'

loop_
  _atom_site_type_symbol
  _atom_site_label
  _atom_site_symmetry_multiplicity
  _atom_site_fract_x
  _atom_site_fract_y
  _atom_site_fract_z
  _atom_site_occupancy
  Pt  Pt1       1.0  0.77400  0.25000  0.11500  1.0000
  Pt  Pt2       1.0  0.27400  0.25000  0.38500  1.0000
  Pt  Pt3       1.0  0.72600  0.75000  0.61500  1.0000
  Pt  Pt4       1.0  0.22600  0.75000  0.88500  1.0000
  Yb  Yb1       1.0  0.47800  0.75000  0.18700  1.0000
  Yb  Yb2       1.0  0.97800  0.75000  0.31300  1.0000
  Yb  Yb3       1.0  0.02210  0.25000  0.68700  1.0000
  Yb  Yb4       1.0  0.52200  0.25000  0.81300  1.0000
  Zn  Zn1       1.0  0.15300  0.25000  0.07140  1.0000
  Zn  Zn2       1.0  0.65300  0.25000  0.42900  1.0000
  Zn  Zn3       1.0  0.34700  0.75000  0.57100  1.0000
  Zn  Zn4       1.0  0.84700  0.75000  0.92900  1.0000
