data_image0
_chemical_formula_structural       CFe2Si2Tm2
_chemical_formula_sum              "C1 Fe2 Si2 Tm2"
_cell_length_a       3.88555
_cell_length_b       5.58291
_cell_length_c       5.58659
_cell_angle_alpha    92.7658
_cell_angle_beta     110.35
_cell_angle_gamma    110.364

_space_group_name_H-M_alt    "P 1"
_space_group_IT_number       1

loop_
  _space_group_symop_operation_xyz
  'x, y, z'

loop_
  _atom_site_type_symbol
  _atom_site_label
  _atom_site_symmetry_multiplicity
  _atom_site_fract_x
  _atom_site_fract_y
  _atom_site_fract_z
  _atom_site_occupancy
  C   C1        1.0  0.00000  0.00000  0.00000  1.0000
  Fe  Fe1       1.0  0.89500  0.69200  0.09770  1.0000
  Fe  Fe2       1.0  0.10500  0.30800  0.90200  1.0000
  Si  Si1       1.0  0.44800  0.60500  0.29000  1.0000
  Si  Si2       1.0  0.55200  0.39500  0.71000  1.0000
  Tm  Tm1       1.0  0.73200  0.17200  0.29200  1.0000
  Tm  Tm2       1.0  0.26800  0.82800  0.70800  1.0000
