data_image0
_chemical_formula_structural       Bi2ErIO4
_chemical_formula_sum              "Bi2 Er1 I1 O4"
_cell_length_a       3.89507
_cell_length_b       3.89507
_cell_length_c       9.52642
_cell_angle_alpha    90
_cell_angle_beta     90
_cell_angle_gamma    90

_space_group_name_H-M_alt    "P 1"
_space_group_IT_number       1

loop_
  _space_group_symop_operation_xyz
  'x, y, z'

loop_
  _atom_site_type_symbol
  _atom_site_label
  _atom_site_symmetry_multiplicity
  _atom_site_fract_x
  _atom_site_fract_y
  _atom_site_fract_z
  _atom_site_occupancy
  Bi  Bi1       1.0  0.50000  0.50000  0.25900  1.0000
  Bi  Bi2       1.0  0.50000  0.50000  0.74100  1.0000
  Er  Er1       1.0  0.00000  0.00000  0.00000  1.0000
  I   I1        1.0  0.00000  0.00000  0.50000  1.0000
  O   O1        1.0  0.50000  0.00000  0.14200  1.0000
  O   O2        1.0  0.00000  0.50000  0.14200  1.0000
  O   O3        1.0  0.50000  0.00000  0.85800  1.0000
  O   O4        1.0  0.00000  0.50000  0.85800  1.0000
