data_image0
_chemical_formula_structural       H16Mg4Rb8
_chemical_formula_sum              "H16 Mg4 Rb8"
_cell_length_a       8.63465
_cell_length_b       10.2568
_cell_length_c       7.93955
_cell_angle_alpha    90
_cell_angle_beta     90
_cell_angle_gamma    90

_space_group_name_H-M_alt    "P 1"
_space_group_IT_number       1

loop_
  _space_group_symop_operation_xyz
  'x, y, z'

loop_
  _atom_site_type_symbol
  _atom_site_label
  _atom_site_symmetry_multiplicity
  _atom_site_fract_x
  _atom_site_fract_y
  _atom_site_fract_z
  _atom_site_occupancy
  H   H1        1.0  0.74300  0.13200  0.08290  1.0000
  H   H2        1.0  0.24300  0.36800  0.08290  1.0000
  H   H3        1.0  0.06300  0.58900  0.25000  1.0000
  H   H4        1.0  0.42200  0.59100  0.25000  1.0000
  H   H5        1.0  0.92200  0.90900  0.25000  1.0000
  H   H6        1.0  0.56300  0.91100  0.25000  1.0000
  H   H7        1.0  0.74300  0.13200  0.41700  1.0000
  H   H8        1.0  0.24300  0.36800  0.41700  1.0000
  H   H9        1.0  0.75700  0.63200  0.58300  1.0000
  H   H10       1.0  0.25700  0.86800  0.58300  1.0000
  H   H11       1.0  0.43700  0.08950  0.75000  1.0000
  H   H12       1.0  0.07760  0.09060  0.75000  1.0000
  H   H13       1.0  0.57800  0.40900  0.75000  1.0000
  H   H14       1.0  0.93700  0.41100  0.75000  1.0000
  H   H15       1.0  0.75700  0.63200  0.91700  1.0000
  H   H16       1.0  0.25700  0.86800  0.91700  1.0000
  Mg  Mg1       1.0  0.74300  0.00341  0.25000  1.0000
  Mg  Mg2       1.0  0.24300  0.49700  0.25000  1.0000
  Mg  Mg3       1.0  0.75700  0.50300  0.75000  1.0000
  Mg  Mg4       1.0  0.25700  0.99700  0.75000  1.0000
  Rb  Rb1       1.0  0.49100  0.24700  0.25000  1.0000
  Rb  Rb2       1.0  0.99100  0.25300  0.25000  1.0000
  Rb  Rb3       1.0  0.74300  0.65800  0.25000  1.0000
  Rb  Rb4       1.0  0.24300  0.84200  0.25000  1.0000
  Rb  Rb5       1.0  0.75700  0.15800  0.75000  1.0000
  Rb  Rb6       1.0  0.25700  0.34200  0.75000  1.0000
  Rb  Rb7       1.0  0.00867  0.74700  0.75000  1.0000
  Rb  Rb8       1.0  0.50900  0.75300  0.75000  1.0000
