data_image0
_chemical_formula_structural       La2Sc2Si2
_chemical_formula_sum              "La2 Sc2 Si2"
_cell_length_a       4.3404
_cell_length_b       4.3404
_cell_length_c       8.63585
_cell_angle_alpha    104.555
_cell_angle_beta     104.555
_cell_angle_gamma    90

_space_group_name_H-M_alt    "P 1"
_space_group_IT_number       1

loop_
  _space_group_symop_operation_xyz
  'x, y, z'

loop_
  _atom_site_type_symbol
  _atom_site_label
  _atom_site_symmetry_multiplicity
  _atom_site_fract_x
  _atom_site_fract_y
  _atom_site_fract_z
  _atom_site_occupancy
  La  La1       1.0  0.67600  0.67600  0.35300  1.0000
  La  La2       1.0  0.32400  0.32400  0.64700  1.0000
  Sc  Sc1       1.0  0.50000  0.00000  0.00000  1.0000
  Sc  Sc2       1.0  0.00000  0.50000  0.00000  1.0000
  Si  Si1       1.0  0.11900  0.11900  0.23700  1.0000
  Si  Si2       1.0  0.88100  0.88100  0.76300  1.0000
