data_image0
_chemical_formula_structural       Mg23Th6
_chemical_formula_sum              "Mg23 Th6"
_cell_length_a       10.1019
_cell_length_b       10.1019
_cell_length_c       10.1019
_cell_angle_alpha    120
_cell_angle_beta     90
_cell_angle_gamma    120

_space_group_name_H-M_alt    "P 1"
_space_group_IT_number       1

loop_
  _space_group_symop_operation_xyz
  'x, y, z'

loop_
  _atom_site_type_symbol
  _atom_site_label
  _atom_site_symmetry_multiplicity
  _atom_site_fract_x
  _atom_site_fract_y
  _atom_site_fract_z
  _atom_site_occupancy
  Mg  Mg1       1.0  0.50000  0.00000  0.00000  1.0000
  Mg  Mg2       1.0  0.00000  0.50000  1.00000  1.0000
  Mg  Mg3       1.0  0.50000  0.50000  1.00000  1.0000
  Mg  Mg4       1.0  0.38000  0.76100  0.14100  1.0000
  Mg  Mg5       1.0  0.51100  0.34100  0.17000  1.0000
  Mg  Mg6       1.0  0.83000  0.34100  0.17000  1.0000
  Mg  Mg7       1.0  0.83000  0.65900  0.17000  1.0000
  Mg  Mg8       1.0  0.62000  0.23900  0.38000  1.0000
  Mg  Mg9       1.0  0.14100  0.76100  0.38000  1.0000
  Mg  Mg10      1.0  0.62000  0.76100  0.38000  1.0000
  Mg  Mg11      1.0  0.83000  0.65900  0.48900  1.0000
  Mg  Mg12      1.0  0.50000  0.00000  0.50000  1.0000
  Mg  Mg13      1.0  0.00000  0.00000  0.50000  1.0000
  Mg  Mg14      1.0  0.00000  0.50000  0.50000  1.0000
  Mg  Mg15      1.0  0.50000  0.50000  0.50000  1.0000
  Mg  Mg16      1.0  0.17000  0.34100  0.51100  1.0000
  Mg  Mg17      1.0  0.38000  0.23900  0.62000  1.0000
  Mg  Mg18      1.0  0.85900  0.23900  0.62000  1.0000
  Mg  Mg19      1.0  0.38000  0.76100  0.62000  1.0000
  Mg  Mg20      1.0  0.17000  0.34100  0.83000  1.0000
  Mg  Mg21      1.0  0.17000  0.65900  0.83000  1.0000
  Mg  Mg22      1.0  0.48900  0.65900  0.83000  1.0000
  Mg  Mg23      1.0  0.62000  0.23900  0.85900  1.0000
  Th  Th1       1.0  0.18500  0.00000  0.18500  1.0000
  Th  Th2       1.0  0.81500  0.00000  0.18500  1.0000
  Th  Th3       1.0  0.18500  0.37000  0.18500  1.0000
  Th  Th4       1.0  0.18500  0.00000  0.81500  1.0000
  Th  Th5       1.0  0.81500  0.00000  0.81500  1.0000
  Th  Th6       1.0  0.81500  0.63000  0.81500  1.0000
