data_image0
_chemical_formula_structural       Ge12La8Mg10
_chemical_formula_sum              "Ge12 La8 Mg10"
_cell_length_a       4.5229
_cell_length_b       10.3486
_cell_length_c       16.2026
_cell_angle_alpha    90
_cell_angle_beta     90
_cell_angle_gamma    77.3775

_space_group_name_H-M_alt    "P 1"
_space_group_IT_number       1

loop_
  _space_group_symop_operation_xyz
  'x, y, z'

loop_
  _atom_site_type_symbol
  _atom_site_label
  _atom_site_symmetry_multiplicity
  _atom_site_fract_x
  _atom_site_fract_y
  _atom_site_fract_z
  _atom_site_occupancy
  Ge  Ge1       1.0  0.76900  0.46100  0.00101  1.0000
  Ge  Ge2       1.0  0.55600  0.88900  0.08650  1.0000
  Ge  Ge3       1.0  0.43400  0.13300  0.13500  1.0000
  Ge  Ge4       1.0  0.22500  0.55100  0.21600  1.0000
  Ge  Ge5       1.0  0.88700  0.22700  0.35500  1.0000
  Ge  Ge6       1.0  0.57200  0.85600  0.36200  1.0000
  Ge  Ge7       1.0  0.23100  0.53900  0.50100  1.0000
  Ge  Ge8       1.0  0.44400  0.11100  0.58700  1.0000
  Ge  Ge9       1.0  0.56600  0.86700  0.63500  1.0000
  Ge  Ge10      1.0  0.77500  0.44900  0.71600  1.0000
  Ge  Ge11      1.0  0.11300  0.77300  0.85500  1.0000
  Ge  Ge12      1.0  0.42800  0.14400  0.86200  1.0000
  La  La1       1.0  0.16600  0.66800  0.03780  1.0000
  La  La2       1.0  0.82500  0.35100  0.17900  1.0000
  La  La3       1.0  0.01380  0.97200  0.23600  1.0000
  La  La4       1.0  0.03230  0.93500  0.49900  1.0000
  La  La5       1.0  0.83400  0.33200  0.53800  1.0000
  La  La6       1.0  0.17500  0.64900  0.67900  1.0000
  La  La7       1.0  0.98600  0.02760  0.73600  1.0000
  La  La8       1.0  0.96800  0.06460  0.99900  1.0000
  Mg  Mg1       1.0  0.34100  0.31900  0.00149  1.0000
  Mg  Mg2       1.0  0.65000  0.70000  0.21600  1.0000
  Mg  Mg3       1.0  0.30200  0.39700  0.35700  1.0000
  Mg  Mg4       1.0  0.15500  0.69000  0.35900  1.0000
  Mg  Mg5       1.0  0.44100  0.11800  0.40400  1.0000
  Mg  Mg6       1.0  0.65900  0.68100  0.50100  1.0000
  Mg  Mg7       1.0  0.35000  0.30000  0.71600  1.0000
  Mg  Mg8       1.0  0.69800  0.60300  0.85700  1.0000
  Mg  Mg9       1.0  0.84500  0.31000  0.85900  1.0000
  Mg  Mg10      1.0  0.55900  0.88200  0.90400  1.0000
