data_image0
_chemical_formula_structural       Ag2Cl4Cs2
_chemical_formula_sum              "Ag2 Cl4 Cs2"
_cell_length_a       4.41459
_cell_length_b       5.72995
_cell_length_c       9.97461
_cell_angle_alpha    90
_cell_angle_beta     77.2151
_cell_angle_gamma    90

_space_group_name_H-M_alt    "P 1"
_space_group_IT_number       1

loop_
  _space_group_symop_operation_xyz
  'x, y, z'

loop_
  _atom_site_type_symbol
  _atom_site_label
  _atom_site_symmetry_multiplicity
  _atom_site_fract_x
  _atom_site_fract_y
  _atom_site_fract_z
  _atom_site_occupancy
  Ag  Ag1       1.0  0.79900  0.25000  0.40200  1.0000
  Ag  Ag2       1.0  0.20100  0.75000  0.59800  1.0000
  Cl  Cl1       1.0  0.93000  0.25000  0.14000  1.0000
  Cl  Cl2       1.0  0.77700  0.75000  0.44600  1.0000
  Cl  Cl3       1.0  0.22300  0.25000  0.55400  1.0000
  Cl  Cl4       1.0  0.06990  0.75000  0.86000  1.0000
  Cs  Cs1       1.0  0.41700  0.75000  0.16500  1.0000
  Cs  Cs2       1.0  0.58300  0.25000  0.83500  1.0000
