data_image0
_chemical_formula_structural       Mg20Zn35
_chemical_formula_sum              "Mg20 Zn35"
_cell_length_a       5.19022
_cell_length_b       13.1264
_cell_length_c       14.1245
_cell_angle_alpha    102.244
_cell_angle_beta     90
_cell_angle_gamma    101.403

_space_group_name_H-M_alt    "P 1"
_space_group_IT_number       1

loop_
  _space_group_symop_operation_xyz
  'x, y, z'

loop_
  _atom_site_type_symbol
  _atom_site_label
  _atom_site_symmetry_multiplicity
  _atom_site_fract_x
  _atom_site_fract_y
  _atom_site_fract_z
  _atom_site_occupancy
  Mg  Mg1       1.0  0.78600  0.57100  0.02690  1.0000
  Mg  Mg2       1.0  0.55800  0.11500  0.04610  1.0000
  Mg  Mg3       1.0  0.99300  0.98500  0.09500  1.0000
  Mg  Mg4       1.0  0.12500  0.25000  0.09950  1.0000
  Mg  Mg5       1.0  0.83900  0.67900  0.25200  1.0000
  Mg  Mg6       1.0  0.96500  0.93000  0.28700  1.0000
  Mg  Mg7       1.0  0.17800  0.35600  0.32400  1.0000
  Mg  Mg8       1.0  0.30400  0.60800  0.35200  1.0000
  Mg  Mg9       1.0  0.51600  0.03120  0.39700  1.0000
  Mg  Mg10      1.0  0.64200  0.28300  0.42300  1.0000
  Mg  Mg11      1.0  0.35800  0.71700  0.57700  1.0000
  Mg  Mg12      1.0  0.48400  0.96900  0.60300  1.0000
  Mg  Mg13      1.0  0.69600  0.39200  0.64800  1.0000
  Mg  Mg14      1.0  0.82200  0.64400  0.67600  1.0000
  Mg  Mg15      1.0  0.03520  0.07050  0.71300  1.0000
  Mg  Mg16      1.0  0.16100  0.32100  0.74800  1.0000
  Mg  Mg17      1.0  0.87500  0.75000  0.90000  1.0000
  Mg  Mg18      1.0  0.00730  0.01460  0.90500  1.0000
  Mg  Mg19      1.0  0.44200  0.88500  0.95400  1.0000
  Mg  Mg20      1.0  0.21400  0.42900  0.97300  1.0000
  Zn  Zn1       1.0  0.66900  0.33900  0.03620  1.0000
  Zn  Zn2       1.0  0.13300  0.78700  0.10100  1.0000
  Zn  Zn3       1.0  0.65500  0.78700  0.10100  1.0000
  Zn  Zn4       1.0  0.31200  0.62400  0.14000  1.0000
  Zn  Zn5       1.0  0.47700  0.46500  0.17500  1.0000
  Zn  Zn6       1.0  0.98700  0.46500  0.17500  1.0000
  Zn  Zn7       1.0  0.48200  0.96400  0.17700  1.0000
  Zn  Zn8       1.0  0.65000  0.30000  0.21400  1.0000
  Zn  Zn9       1.0  0.31600  0.13800  0.24500  1.0000
  Zn  Zn10      1.0  0.82200  0.13800  0.24500  1.0000
  Zn  Zn11      1.0  0.40300  0.80500  0.26800  1.0000
  Zn  Zn12      1.0  0.74100  0.48300  0.33800  1.0000
  Zn  Zn13      1.0  0.07810  0.15600  0.40700  1.0000
  Zn  Zn14      1.0  0.16700  0.82400  0.42700  1.0000
  Zn  Zn15      1.0  0.65700  0.82400  0.42700  1.0000
  Zn  Zn16      1.0  0.83100  0.66300  0.46500  1.0000
  Zn  Zn17      1.0  0.00000  0.50000  0.50000  1.0000
  Zn  Zn18      1.0  0.50000  0.50000  0.50000  1.0000
  Zn  Zn19      1.0  0.00000  0.00000  0.50000  1.0000
  Zn  Zn20      1.0  0.16900  0.33700  0.53500  1.0000
  Zn  Zn21      1.0  0.34300  0.17600  0.57300  1.0000
  Zn  Zn22      1.0  0.83300  0.17600  0.57300  1.0000
  Zn  Zn23      1.0  0.92200  0.84400  0.59300  1.0000
  Zn  Zn24      1.0  0.25900  0.51700  0.66200  1.0000
  Zn  Zn25      1.0  0.59700  0.19500  0.73200  1.0000
  Zn  Zn26      1.0  0.17800  0.86200  0.75500  1.0000
  Zn  Zn27      1.0  0.68400  0.86200  0.75500  1.0000
  Zn  Zn28      1.0  0.35000  0.70000  0.78600  1.0000
  Zn  Zn29      1.0  0.51800  0.03630  0.82300  1.0000
  Zn  Zn30      1.0  0.01270  0.53500  0.82500  1.0000
  Zn  Zn31      1.0  0.52300  0.53500  0.82500  1.0000
  Zn  Zn32      1.0  0.68800  0.37600  0.86000  1.0000
  Zn  Zn33      1.0  0.34500  0.21300  0.89900  1.0000
  Zn  Zn34      1.0  0.86700  0.21300  0.89900  1.0000
  Zn  Zn35      1.0  0.33100  0.66100  0.96400  1.0000
