data_image0
_chemical_formula_structural       Al12H48Li4Mg4
_chemical_formula_sum              "Al12 H48 Li4 Mg4"
_cell_length_a       7.859
_cell_length_b       8.60078
_cell_length_c       12.8951
_cell_angle_alpha    90
_cell_angle_beta     123.887
_cell_angle_gamma    90

_space_group_name_H-M_alt    "P 1"
_space_group_IT_number       1

loop_
  _space_group_symop_operation_xyz
  'x, y, z'

loop_
  _atom_site_type_symbol
  _atom_site_label
  _atom_site_symmetry_multiplicity
  _atom_site_fract_x
  _atom_site_fract_y
  _atom_site_fract_z
  _atom_site_occupancy
  Al  Al1       1.0  0.04640  0.75400  0.00552  1.0000
  Al  Al2       1.0  0.51900  0.12900  0.13400  1.0000
  Al  Al3       1.0  0.77800  0.63700  0.16900  1.0000
  Al  Al4       1.0  0.22200  0.13700  0.33100  1.0000
  Al  Al5       1.0  0.48100  0.62900  0.36600  1.0000
  Al  Al6       1.0  0.95400  0.25400  0.49400  1.0000
  Al  Al7       1.0  0.04640  0.74600  0.50600  1.0000
  Al  Al8       1.0  0.51900  0.37100  0.63400  1.0000
  Al  Al9       1.0  0.77800  0.86300  0.66900  1.0000
  Al  Al10      1.0  0.22200  0.36300  0.83100  1.0000
  Al  Al11      1.0  0.48100  0.87100  0.86600  1.0000
  Al  Al12      1.0  0.95400  0.24600  0.99400  1.0000
  H   H1        1.0  0.61600  0.62100  0.01430  1.0000
  H   H2        1.0  0.26100  0.66800  0.04360  1.0000
  H   H3        1.0  0.27800  0.08760  0.04490  1.0000
  H   H4        1.0  0.11900  0.38600  0.05620  1.0000
  H   H5        1.0  0.64400  0.12700  0.06800  1.0000
  H   H6        1.0  0.01300  0.12400  0.10500  1.0000
  H   H7        1.0  0.06770  0.82100  0.12900  1.0000
  H   H8        1.0  0.80500  0.81900  0.19800  1.0000
  H   H9        1.0  0.97000  0.52800  0.20500  1.0000
  H   H10       1.0  0.53800  0.28900  0.20600  1.0000
  H   H11       1.0  0.63600  0.56500  0.21300  1.0000
  H   H12       1.0  0.63400  0.99900  0.24400  1.0000
  H   H13       1.0  0.36600  0.49900  0.25600  1.0000
  H   H14       1.0  0.36400  0.06540  0.28700  1.0000
  H   H15       1.0  0.46200  0.78900  0.29400  1.0000
  H   H16       1.0  0.03020  0.02790  0.29500  1.0000
  H   H17       1.0  0.19500  0.31900  0.30200  1.0000
  H   H18       1.0  0.93200  0.32100  0.37100  1.0000
  H   H19       1.0  0.98700  0.62400  0.39500  1.0000
  H   H20       1.0  0.35500  0.62700  0.43200  1.0000
  H   H21       1.0  0.88100  0.88600  0.44400  1.0000
  H   H22       1.0  0.72200  0.58800  0.45500  1.0000
  H   H23       1.0  0.73900  0.16800  0.45600  1.0000
  H   H24       1.0  0.38400  0.12100  0.48600  1.0000
  H   H25       1.0  0.61600  0.87900  0.51400  1.0000
  H   H26       1.0  0.26100  0.83200  0.54400  1.0000
  H   H27       1.0  0.27800  0.41200  0.54500  1.0000
  H   H28       1.0  0.11900  0.11400  0.55600  1.0000
  H   H29       1.0  0.64400  0.37300  0.56800  1.0000
  H   H30       1.0  0.01300  0.37600  0.60500  1.0000
  H   H31       1.0  0.06770  0.67900  0.62900  1.0000
  H   H32       1.0  0.80500  0.68100  0.69800  1.0000
  H   H33       1.0  0.97000  0.97200  0.70500  1.0000
  H   H34       1.0  0.53800  0.21100  0.70600  1.0000
  H   H35       1.0  0.63600  0.93500  0.71300  1.0000
  H   H36       1.0  0.63400  0.50100  0.74400  1.0000
  H   H37       1.0  0.36600  0.00101  0.75600  1.0000
  H   H38       1.0  0.36400  0.43500  0.78700  1.0000
  H   H39       1.0  0.46200  0.71100  0.79400  1.0000
  H   H40       1.0  0.03020  0.47200  0.79500  1.0000
  H   H41       1.0  0.19500  0.18100  0.80200  1.0000
  H   H42       1.0  0.93200  0.17900  0.87100  1.0000
  H   H43       1.0  0.98700  0.87600  0.89500  1.0000
  H   H44       1.0  0.35600  0.87300  0.93200  1.0000
  H   H45       1.0  0.88100  0.61400  0.94400  1.0000
  H   H46       1.0  0.72200  0.91200  0.95500  1.0000
  H   H47       1.0  0.73900  0.33200  0.95600  1.0000
  H   H48       1.0  0.38400  0.37900  0.98600  1.0000
  Li  Li1       1.0  0.86700  0.97000  0.12300  1.0000
  Li  Li2       1.0  0.13300  0.47000  0.37700  1.0000
  Li  Li3       1.0  0.86700  0.53000  0.62300  1.0000
  Li  Li4       1.0  0.13300  0.03020  0.87700  1.0000
  Mg  Mg1       1.0  0.37700  0.47000  0.11700  1.0000
  Mg  Mg2       1.0  0.62300  0.97000  0.38300  1.0000
  Mg  Mg3       1.0  0.37700  0.03020  0.61700  1.0000
  Mg  Mg4       1.0  0.62300  0.53000  0.88300  1.0000
