data_image0
_chemical_formula_structural       Al67Mg41
_chemical_formula_sum              "Al67 Mg41"
_cell_length_a       12.6438
_cell_length_b       12.6438
_cell_length_c       12.6438
_cell_angle_alpha    90
_cell_angle_beta     90
_cell_angle_gamma    90

_space_group_name_H-M_alt    "P 1"
_space_group_IT_number       1

loop_
  _space_group_symop_operation_xyz
  'x, y, z'

loop_
  _atom_site_type_symbol
  _atom_site_label
  _atom_site_symmetry_multiplicity
  _atom_site_fract_x
  _atom_site_fract_y
  _atom_site_fract_z
  _atom_site_occupancy
  Al  Al1       1.0  0.33900  0.17000  0.00000  1.0000
  Al  Al2       1.0  0.66100  0.17000  0.00000  1.0000
  Al  Al3       1.0  0.50000  0.33400  0.00000  1.0000
  Al  Al4       1.0  0.17000  0.33900  0.00000  1.0000
  Al  Al5       1.0  0.83000  0.33900  0.00000  1.0000
  Al  Al6       1.0  0.33400  0.50000  0.00000  1.0000
  Al  Al7       1.0  0.66600  0.50000  0.00000  1.0000
  Al  Al8       1.0  0.17000  0.66100  0.00000  1.0000
  Al  Al9       1.0  0.83000  0.66100  0.00000  1.0000
  Al  Al10      1.0  0.50000  0.66600  0.00000  1.0000
  Al  Al11      1.0  0.33900  0.83000  0.00000  1.0000
  Al  Al12      1.0  0.66100  0.83000  0.00000  1.0000
  Al  Al13      1.0  0.50000  0.16500  0.16500  1.0000
  Al  Al14      1.0  0.16500  0.50000  0.16500  1.0000
  Al  Al15      1.0  0.83500  0.50000  0.16500  1.0000
  Al  Al16      1.0  0.50000  0.83500  0.16500  1.0000
  Al  Al17      1.0  0.50000  0.50000  0.16900  1.0000
  Al  Al18      1.0  0.33900  0.00000  0.17000  1.0000
  Al  Al19      1.0  0.66100  0.00000  0.17000  1.0000
  Al  Al20      1.0  0.00000  0.33900  0.17000  1.0000
  Al  Al21      1.0  0.00000  0.66100  0.17000  1.0000
  Al  Al22      1.0  0.50000  0.00000  0.33400  1.0000
  Al  Al23      1.0  0.00000  0.50000  0.33400  1.0000
  Al  Al24      1.0  0.50000  0.33800  0.33800  1.0000
  Al  Al25      1.0  0.33800  0.50000  0.33800  1.0000
  Al  Al26      1.0  0.66200  0.50000  0.33800  1.0000
  Al  Al27      1.0  0.50000  0.66200  0.33800  1.0000
  Al  Al28      1.0  0.17000  0.00000  0.33900  1.0000
  Al  Al29      1.0  0.83000  0.00000  0.33900  1.0000
  Al  Al30      1.0  0.00000  0.17000  0.33900  1.0000
  Al  Al31      1.0  0.00000  0.83000  0.33900  1.0000
  Al  Al32      1.0  0.33400  0.00000  0.50000  1.0000
  Al  Al33      1.0  0.66600  0.00000  0.50000  1.0000
  Al  Al34      1.0  0.16500  0.16500  0.50000  1.0000
  Al  Al35      1.0  0.83500  0.16500  0.50000  1.0000
  Al  Al36      1.0  0.50000  0.16900  0.50000  1.0000
  Al  Al37      1.0  0.00000  0.33400  0.50000  1.0000
  Al  Al38      1.0  0.33800  0.33800  0.50000  1.0000
  Al  Al39      1.0  0.66200  0.33800  0.50000  1.0000
  Al  Al40      1.0  0.16900  0.50000  0.50000  1.0000
  Al  Al41      1.0  0.50000  0.50000  0.50000  1.0000
  Al  Al42      1.0  0.83100  0.50000  0.50000  1.0000
  Al  Al43      1.0  0.33800  0.66200  0.50000  1.0000
  Al  Al44      1.0  0.66200  0.66200  0.50000  1.0000
  Al  Al45      1.0  0.00000  0.66600  0.50000  1.0000
  Al  Al46      1.0  0.50000  0.83100  0.50000  1.0000
  Al  Al47      1.0  0.16500  0.83500  0.50000  1.0000
  Al  Al48      1.0  0.83500  0.83500  0.50000  1.0000
  Al  Al49      1.0  0.17000  0.00000  0.66100  1.0000
  Al  Al50      1.0  0.83000  0.00000  0.66100  1.0000
  Al  Al51      1.0  0.00000  0.17000  0.66100  1.0000
  Al  Al52      1.0  0.00000  0.83000  0.66100  1.0000
  Al  Al53      1.0  0.50000  0.33800  0.66200  1.0000
  Al  Al54      1.0  0.33800  0.50000  0.66200  1.0000
  Al  Al55      1.0  0.66200  0.50000  0.66200  1.0000
  Al  Al56      1.0  0.50000  0.66200  0.66200  1.0000
  Al  Al57      1.0  0.50000  0.00000  0.66600  1.0000
  Al  Al58      1.0  0.00000  0.50000  0.66600  1.0000
  Al  Al59      1.0  0.33900  0.00000  0.83000  1.0000
  Al  Al60      1.0  0.66100  0.00000  0.83000  1.0000
  Al  Al61      1.0  0.00000  0.33900  0.83000  1.0000
  Al  Al62      1.0  0.00000  0.66100  0.83000  1.0000
  Al  Al63      1.0  0.50000  0.50000  0.83100  1.0000
  Al  Al64      1.0  0.50000  0.16500  0.83500  1.0000
  Al  Al65      1.0  0.16500  0.50000  0.83500  1.0000
  Al  Al66      1.0  0.83500  0.50000  0.83500  1.0000
  Al  Al67      1.0  0.50000  0.83500  0.83500  1.0000
  Mg  Mg1       1.0  0.17700  0.00000  0.00000  1.0000
  Mg  Mg2       1.0  0.50000  0.00000  0.00000  1.0000
  Mg  Mg3       1.0  0.82300  0.00000  0.00000  1.0000
  Mg  Mg4       1.0  0.00000  0.17700  0.00000  1.0000
  Mg  Mg5       1.0  0.00000  0.50000  0.00000  1.0000
  Mg  Mg6       1.0  0.00000  0.82300  0.00000  1.0000
  Mg  Mg7       1.0  0.33900  0.33900  0.16600  1.0000
  Mg  Mg8       1.0  0.66100  0.33900  0.16600  1.0000
  Mg  Mg9       1.0  0.33900  0.66100  0.16600  1.0000
  Mg  Mg10      1.0  0.66100  0.66100  0.16600  1.0000
  Mg  Mg11      1.0  0.16900  0.16900  0.16900  1.0000
  Mg  Mg12      1.0  0.83100  0.16900  0.16900  1.0000
  Mg  Mg13      1.0  0.16900  0.83100  0.16900  1.0000
  Mg  Mg14      1.0  0.83100  0.83100  0.16900  1.0000
  Mg  Mg15      1.0  0.00000  0.00000  0.17700  1.0000
  Mg  Mg16      1.0  0.33900  0.16600  0.33900  1.0000
  Mg  Mg17      1.0  0.66100  0.16600  0.33900  1.0000
  Mg  Mg18      1.0  0.16600  0.33900  0.33900  1.0000
  Mg  Mg19      1.0  0.83400  0.33900  0.33900  1.0000
  Mg  Mg20      1.0  0.16600  0.66100  0.33900  1.0000
  Mg  Mg21      1.0  0.83400  0.66100  0.33900  1.0000
  Mg  Mg22      1.0  0.33900  0.83400  0.33900  1.0000
  Mg  Mg23      1.0  0.66100  0.83400  0.33900  1.0000
  Mg  Mg24      1.0  0.00000  0.00000  0.50000  1.0000
  Mg  Mg25      1.0  0.33900  0.16600  0.66100  1.0000
  Mg  Mg26      1.0  0.66100  0.16600  0.66100  1.0000
  Mg  Mg27      1.0  0.16600  0.33900  0.66100  1.0000
  Mg  Mg28      1.0  0.83400  0.33900  0.66100  1.0000
  Mg  Mg29      1.0  0.16600  0.66100  0.66100  1.0000
  Mg  Mg30      1.0  0.83400  0.66100  0.66100  1.0000
  Mg  Mg31      1.0  0.33900  0.83400  0.66100  1.0000
  Mg  Mg32      1.0  0.66100  0.83400  0.66100  1.0000
  Mg  Mg33      1.0  0.00000  0.00000  0.82300  1.0000
  Mg  Mg34      1.0  0.16900  0.16900  0.83100  1.0000
  Mg  Mg35      1.0  0.83100  0.16900  0.83100  1.0000
  Mg  Mg36      1.0  0.16900  0.83100  0.83100  1.0000
  Mg  Mg37      1.0  0.83100  0.83100  0.83100  1.0000
  Mg  Mg38      1.0  0.33900  0.33900  0.83400  1.0000
  Mg  Mg39      1.0  0.66100  0.33900  0.83400  1.0000
  Mg  Mg40      1.0  0.33900  0.66100  0.83400  1.0000
  Mg  Mg41      1.0  0.66100  0.66100  0.83400  1.0000
