data_image0
_chemical_formula_structural       Cr4Pt4Sb4
_chemical_formula_sum              "Cr4 Pt4 Sb4"
_cell_length_a       6.12863
_cell_length_b       6.12871
_cell_length_c       6.12874
_cell_angle_alpha    89.9002
_cell_angle_beta     90.2477
_cell_angle_gamma    89.9641

_space_group_name_H-M_alt    "P 1"
_space_group_IT_number       1

loop_
  _space_group_symop_operation_xyz
  'x, y, z'

loop_
  _atom_site_type_symbol
  _atom_site_label
  _atom_site_symmetry_multiplicity
  _atom_site_fract_x
  _atom_site_fract_y
  _atom_site_fract_z
  _atom_site_occupancy
  Cr  Cr1       1.0  0.00287  0.50300  0.99700  1.0000
  Cr  Cr2       1.0  0.50200  0.99800  0.00208  1.0000
  Cr  Cr3       1.0  0.49800  0.49700  0.49800  1.0000
  Cr  Cr4       1.0  0.99700  0.00306  0.50300  1.0000
  Pt  Pt1       1.0  0.21200  0.21200  0.21200  1.0000
  Pt  Pt2       1.0  0.78800  0.71200  0.28800  1.0000
  Pt  Pt3       1.0  0.28800  0.78800  0.71200  1.0000
  Pt  Pt4       1.0  0.71200  0.28800  0.78800  1.0000
  Sb  Sb1       1.0  0.27800  0.72100  0.22200  1.0000
  Sb  Sb2       1.0  0.72300  0.22200  0.27900  1.0000
  Sb  Sb3       1.0  0.22100  0.27800  0.72100  1.0000
  Sb  Sb4       1.0  0.77900  0.77800  0.77800  1.0000
