data_image0
_chemical_formula_structural       As6Ca2
_chemical_formula_sum              "As6 Ca2"
_cell_length_a       5.90185
_cell_length_b       5.85211
_cell_length_c       5.9662
_cell_angle_alpha    70.7067
_cell_angle_beta     80.1779
_cell_angle_gamma    75.7732

_space_group_name_H-M_alt    "P 1"
_space_group_IT_number       1

loop_
  _space_group_symop_operation_xyz
  'x, y, z'

loop_
  _atom_site_type_symbol
  _atom_site_label
  _atom_site_symmetry_multiplicity
  _atom_site_fract_x
  _atom_site_fract_y
  _atom_site_fract_z
  _atom_site_occupancy
  As  As1       1.0  0.01250  0.77800  0.01610  1.0000
  As  As2       1.0  0.58800  0.77700  0.09520  1.0000
  As  As3       1.0  0.85300  0.18900  0.41000  1.0000
  As  As4       1.0  0.14700  0.81100  0.59000  1.0000
  As  As5       1.0  0.41200  0.22300  0.90500  1.0000
  As  As6       1.0  0.98800  0.22200  0.98400  1.0000
  Ca  Ca1       1.0  0.31500  0.34000  0.37200  1.0000
  Ca  Ca2       1.0  0.68500  0.66000  0.62800  1.0000
