data_image0
_chemical_formula_structural       H8MgO16P4Rb2
_chemical_formula_sum              "H8 Mg1 O16 P4 Rb2"
_cell_length_a       6.8218
_cell_length_b       7.22181
_cell_length_c       7.63357
_cell_angle_alpha    81.1875
_cell_angle_beta     70.1377
_cell_angle_gamma    85.2993

_space_group_name_H-M_alt    "P 1"
_space_group_IT_number       1

loop_
  _space_group_symop_operation_xyz
  'x, y, z'

loop_
  _atom_site_type_symbol
  _atom_site_label
  _atom_site_symmetry_multiplicity
  _atom_site_fract_x
  _atom_site_fract_y
  _atom_site_fract_z
  _atom_site_occupancy
  H   H1        1.0  0.24700  0.96900  0.03400  1.0000
  H   H2        1.0  0.87500  0.17500  0.21000  1.0000
  H   H3        1.0  0.88000  0.31200  0.35500  1.0000
  H   H4        1.0  0.40700  0.73000  0.42700  1.0000
  H   H5        1.0  0.59300  0.27000  0.57300  1.0000
  H   H6        1.0  0.12000  0.68800  0.64500  1.0000
  H   H7        1.0  0.12500  0.82500  0.79000  1.0000
  H   H8        1.0  0.75300  0.03120  0.96600  1.0000
  Mg  Mg1       1.0  0.00001  0.50000  0.00000  1.0000
  O   O1        1.0  0.18800  0.61600  0.10800  1.0000
  O   O2        1.0  0.74200  0.65500  0.14200  1.0000
  O   O3        1.0  0.75600  0.00487  0.15400  1.0000
  O   O4        1.0  0.25500  0.93200  0.17200  1.0000
  O   O5        1.0  0.94200  0.28700  0.22300  1.0000
  O   O6        1.0  0.90800  0.77500  0.36100  1.0000
  O   O7        1.0  0.23200  0.65100  0.42000  1.0000
  O   O8        1.0  0.53400  0.79500  0.44100  1.0000
  O   O9        1.0  0.46600  0.20500  0.55900  1.0000
  O   O10       1.0  0.76800  0.34900  0.58000  1.0000
  O   O11       1.0  0.09180  0.22500  0.63900  1.0000
  O   O12       1.0  0.05760  0.71300  0.77700  1.0000
  O   O13       1.0  0.74500  0.06790  0.82800  1.0000
  O   O14       1.0  0.24400  0.99500  0.84600  1.0000
  O   O15       1.0  0.25800  0.34500  0.85800  1.0000
  O   O16       1.0  0.81200  0.38400  0.89200  1.0000
  P   P1        1.0  0.15500  0.73700  0.26000  1.0000
  P   P2        1.0  0.73000  0.80700  0.26100  1.0000
  P   P3        1.0  0.27000  0.19300  0.73900  1.0000
  P   P4        1.0  0.84500  0.26300  0.74000  1.0000
  Rb  Rb1       1.0  0.40100  0.28200  0.21100  1.0000
  Rb  Rb2       1.0  0.59900  0.71800  0.78900  1.0000
