data_image0
_chemical_formula_structural       Ce2Rh4Si2
_chemical_formula_sum              "Ce2 Rh4 Si2"
_cell_length_a       4.12777
_cell_length_b       4.13776
_cell_length_c       9.16502
_cell_angle_alpha    90
_cell_angle_beta     76.9859
_cell_angle_gamma    90

_space_group_name_H-M_alt    "P 1"
_space_group_IT_number       1

loop_
  _space_group_symop_operation_xyz
  'x, y, z'

loop_
  _atom_site_type_symbol
  _atom_site_label
  _atom_site_symmetry_multiplicity
  _atom_site_fract_x
  _atom_site_fract_y
  _atom_site_fract_z
  _atom_site_occupancy
  Ce  Ce1       1.0  0.90100  0.25000  0.19800  1.0000
  Ce  Ce2       1.0  0.09880  0.75000  0.80200  1.0000
  Rh  Rh1       1.0  0.45300  0.75000  0.09340  1.0000
  Rh  Rh2       1.0  0.75000  0.75000  0.49900  1.0000
  Rh  Rh3       1.0  0.25000  0.25000  0.50100  1.0000
  Rh  Rh4       1.0  0.54700  0.25000  0.90700  1.0000
  Si  Si1       1.0  0.32000  0.75000  0.35900  1.0000
  Si  Si2       1.0  0.68000  0.25000  0.64100  1.0000
