data_image0
_chemical_formula_structural       Pr4Ru4Sn4
_chemical_formula_sum              "Pr4 Ru4 Sn4"
_cell_length_a       7.68545
_cell_length_b       4.8845
_cell_length_c       7.39471
_cell_angle_alpha    90
_cell_angle_beta     90
_cell_angle_gamma    90

_space_group_name_H-M_alt    "P 1"
_space_group_IT_number       1

loop_
  _space_group_symop_operation_xyz
  'x, y, z'

loop_
  _atom_site_type_symbol
  _atom_site_label
  _atom_site_symmetry_multiplicity
  _atom_site_fract_x
  _atom_site_fract_y
  _atom_site_fract_z
  _atom_site_occupancy
  Pr  Pr1       1.0  0.53200  0.75000  0.19100  1.0000
  Pr  Pr2       1.0  0.03190  0.75000  0.30900  1.0000
  Pr  Pr3       1.0  0.96800  0.25000  0.69100  1.0000
  Pr  Pr4       1.0  0.46800  0.25000  0.80900  1.0000
  Ru  Ru1       1.0  0.15100  0.25000  0.05710  1.0000
  Ru  Ru2       1.0  0.65100  0.25000  0.44300  1.0000
  Ru  Ru3       1.0  0.34900  0.75000  0.55700  1.0000
  Ru  Ru4       1.0  0.84900  0.75000  0.94300  1.0000
  Sn  Sn1       1.0  0.80400  0.25000  0.11300  1.0000
  Sn  Sn2       1.0  0.30400  0.25000  0.38700  1.0000
  Sn  Sn3       1.0  0.69600  0.75000  0.61300  1.0000
  Sn  Sn4       1.0  0.19600  0.75000  0.88700  1.0000
