data_image0
_chemical_formula_structural       Ni3Pr3Sn3
_chemical_formula_sum              "Ni3 Pr3 Sn3"
_cell_length_a       7.45393
_cell_length_b       7.45393
_cell_length_c       4.06915
_cell_angle_alpha    90
_cell_angle_beta     90
_cell_angle_gamma    120.001

_space_group_name_H-M_alt    "P 1"
_space_group_IT_number       1

loop_
  _space_group_symop_operation_xyz
  'x, y, z'

loop_
  _atom_site_type_symbol
  _atom_site_label
  _atom_site_symmetry_multiplicity
  _atom_site_fract_x
  _atom_site_fract_y
  _atom_site_fract_z
  _atom_site_occupancy
  Ni  Ni1       1.0  0.00000  0.00000  0.00000  1.0000
  Ni  Ni2       1.0  0.66700  0.33300  0.50000  1.0000
  Ni  Ni3       1.0  0.33300  0.66700  0.50000  1.0000
  Pr  Pr1       1.0  0.58700  0.00000  0.00000  1.0000
  Pr  Pr2       1.0  0.41300  0.41300  0.00000  1.0000
  Pr  Pr3       1.0  0.00000  0.58700  0.00000  1.0000
  Sn  Sn1       1.0  0.24800  0.00000  0.50000  1.0000
  Sn  Sn2       1.0  0.00000  0.24800  0.50000  1.0000
  Sn  Sn3       1.0  0.75200  0.75200  0.50000  1.0000
