data_image0
_chemical_formula_structural       Au2K4P2
_chemical_formula_sum              "Au2 K4 P2"
_cell_length_a       6.1871
_cell_length_b       6.1871
_cell_length_c       6.24296
_cell_angle_alpha    90
_cell_angle_beta     90
_cell_angle_gamma    74.1446

_space_group_name_H-M_alt    "P 1"
_space_group_IT_number       1

loop_
  _space_group_symop_operation_xyz
  'x, y, z'

loop_
  _atom_site_type_symbol
  _atom_site_label
  _atom_site_symmetry_multiplicity
  _atom_site_fract_x
  _atom_site_fract_y
  _atom_site_fract_z
  _atom_site_occupancy
  Au  Au1       1.0  0.50000  0.50000  0.00000  1.0000
  Au  Au2       1.0  0.50000  0.50000  0.50000  1.0000
  K   K1        1.0  0.31800  0.02740  0.25000  1.0000
  K   K2        1.0  0.97300  0.68200  0.25000  1.0000
  K   K3        1.0  0.02740  0.31800  0.75000  1.0000
  K   K4        1.0  0.68200  0.97300  0.75000  1.0000
  P   P1        1.0  0.74900  0.25100  0.25000  1.0000
  P   P2        1.0  0.25100  0.74900  0.75000  1.0000
