data_image0
_chemical_formula_structural       Ga3Mg3Tm3
_chemical_formula_sum              "Ga3 Mg3 Tm3"
_cell_length_a       7.19537
_cell_length_b       7.19537
_cell_length_c       4.39032
_cell_angle_alpha    90
_cell_angle_beta     90
_cell_angle_gamma    119.999

_space_group_name_H-M_alt    "P 1"
_space_group_IT_number       1

loop_
  _space_group_symop_operation_xyz
  'x, y, z'

loop_
  _atom_site_type_symbol
  _atom_site_label
  _atom_site_symmetry_multiplicity
  _atom_site_fract_x
  _atom_site_fract_y
  _atom_site_fract_z
  _atom_site_occupancy
  Ga  Ga1       1.0  0.00000  0.00000  0.00000  1.0000
  Ga  Ga2       1.0  0.66700  0.33300  0.50000  1.0000
  Ga  Ga3       1.0  0.33300  0.66700  0.50000  1.0000
  Mg  Mg1       1.0  0.24300  0.00000  0.50000  1.0000
  Mg  Mg2       1.0  0.00000  0.24300  0.50000  1.0000
  Mg  Mg3       1.0  0.75700  0.75700  0.50000  1.0000
  Tm  Tm1       1.0  0.57200  0.00000  0.00000  1.0000
  Tm  Tm2       1.0  0.42800  0.42800  0.00000  1.0000
  Tm  Tm3       1.0  0.00000  0.57200  0.00000  1.0000
