data_image0
_chemical_formula_structural       Si4Sm4
_chemical_formula_sum              "Si4 Sm4"
_cell_length_a       8.13808
_cell_length_b       3.90233
_cell_length_c       5.83196
_cell_angle_alpha    90
_cell_angle_beta     90
_cell_angle_gamma    90

_space_group_name_H-M_alt    "P 1"
_space_group_IT_number       1

loop_
  _space_group_symop_operation_xyz
  'x, y, z'

loop_
  _atom_site_type_symbol
  _atom_site_label
  _atom_site_symmetry_multiplicity
  _atom_site_fract_x
  _atom_site_fract_y
  _atom_site_fract_z
  _atom_site_occupancy
  Si  Si1       1.0  0.46400  0.75000  0.12500  1.0000
  Si  Si2       1.0  0.96400  0.75000  0.37500  1.0000
  Si  Si3       1.0  0.03640  0.25000  0.62500  1.0000
  Si  Si4       1.0  0.53600  0.25000  0.87500  1.0000
  Sm  Sm1       1.0  0.18000  0.25000  0.11500  1.0000
  Sm  Sm2       1.0  0.68000  0.25000  0.38500  1.0000
  Sm  Sm3       1.0  0.32000  0.75000  0.61500  1.0000
  Sm  Sm4       1.0  0.82000  0.75000  0.88500  1.0000
