data_image0
_chemical_formula_structural       Au2Eu2In4
_chemical_formula_sum              "Au2 Eu2 In4"
_cell_length_a       4.68052
_cell_length_b       5.98038
_cell_length_c       7.61869
_cell_angle_alpha    90
_cell_angle_beta     90
_cell_angle_gamma    66.9632

_space_group_name_H-M_alt    "P 1"
_space_group_IT_number       1

loop_
  _space_group_symop_operation_xyz
  'x, y, z'

loop_
  _atom_site_type_symbol
  _atom_site_label
  _atom_site_symmetry_multiplicity
  _atom_site_fract_x
  _atom_site_fract_y
  _atom_site_fract_z
  _atom_site_occupancy
  Au  Au1       1.0  0.21000  0.58000  0.25000  1.0000
  Au  Au2       1.0  0.79000  0.42000  0.75000  1.0000
  Eu  Eu1       1.0  0.92400  0.15300  0.25000  1.0000
  Eu  Eu2       1.0  0.07650  0.84700  0.75000  1.0000
  In  In1       1.0  0.63500  0.73000  0.05100  1.0000
  In  In2       1.0  0.63500  0.73000  0.44900  1.0000
  In  In3       1.0  0.36500  0.27000  0.55100  1.0000
  In  In4       1.0  0.36500  0.27000  0.94900  1.0000
