data_image0
_chemical_formula_structural       Mg2O20P4Ti4
_chemical_formula_sum              "Mg2 O20 P4 Ti4"
_cell_length_a       7.38284
_cell_length_b       7.3681
_cell_length_c       7.26984
_cell_angle_alpha    90
_cell_angle_beta     119.752
_cell_angle_gamma    90

_space_group_name_H-M_alt    "P 1"
_space_group_IT_number       1

loop_
  _space_group_symop_operation_xyz
  'x, y, z'

loop_
  _atom_site_type_symbol
  _atom_site_label
  _atom_site_symmetry_multiplicity
  _atom_site_fract_x
  _atom_site_fract_y
  _atom_site_fract_z
  _atom_site_occupancy
  Mg  Mg1       1.0  0.00000  0.00000  0.00000  1.0000
  Mg  Mg2       1.0  1.00000  0.50000  0.50000  1.0000
  O   O1        1.0  0.25700  0.48500  0.07680  1.0000
  O   O2        1.0  0.78100  0.00111  0.09550  1.0000
  O   O3        1.0  0.55900  0.75800  0.13200  1.0000
  O   O4        1.0  0.05770  0.24400  0.14900  1.0000
  O   O5        1.0  0.23300  0.83700  0.22500  1.0000
  O   O6        1.0  0.76700  0.33700  0.27500  1.0000
  O   O7        1.0  0.94200  0.74400  0.35100  1.0000
  O   O8        1.0  0.44100  0.25800  0.36800  1.0000
  O   O9        1.0  0.21900  0.50100  0.40500  1.0000
  O   O10       1.0  0.74300  0.98600  0.42300  1.0000
  O   O11       1.0  0.25700  0.01450  0.57700  1.0000
  O   O12       1.0  0.78100  0.49900  0.59500  1.0000
  O   O13       1.0  0.55900  0.74200  0.63200  1.0000
  O   O14       1.0  0.05770  0.25600  0.64900  1.0000
  O   O15       1.0  0.23300  0.66300  0.72500  1.0000
  O   O16       1.0  0.76700  0.16300  0.77500  1.0000
  O   O17       1.0  0.94200  0.75600  0.85100  1.0000
  O   O18       1.0  0.44100  0.24200  0.86800  1.0000
  O   O19       1.0  0.21900  0.99900  0.90500  1.0000
  O   O20       1.0  0.74300  0.51500  0.92300  1.0000
  P   P1        1.0  0.24400  0.37500  0.25000  1.0000
  P   P2        1.0  0.75600  0.87500  0.25000  1.0000
  P   P3        1.0  0.24400  0.12500  0.75000  1.0000
  P   P4        1.0  0.75600  0.62500  0.75000  1.0000
  Ti  Ti1       1.0  0.73300  0.27700  0.02190  1.0000
  Ti  Ti2       1.0  0.26700  0.77700  0.47800  1.0000
  Ti  Ti3       1.0  0.73300  0.22300  0.52200  1.0000
  Ti  Ti4       1.0  0.26700  0.72300  0.97800  1.0000
