data_image0
_chemical_formula_structural       B2W2
_chemical_formula_sum              "B2 W2"
_cell_length_a       3.10251
_cell_length_b       3.17883
_cell_length_c       4.54927
_cell_angle_alpha    69.5507
_cell_angle_beta     90
_cell_angle_gamma    90

_space_group_name_H-M_alt    "P 1"
_space_group_IT_number       1

loop_
  _space_group_symop_operation_xyz
  'x, y, z'

loop_
  _atom_site_type_symbol
  _atom_site_label
  _atom_site_symmetry_multiplicity
  _atom_site_fract_x
  _atom_site_fract_y
  _atom_site_fract_z
  _atom_site_occupancy
  B   B1        1.0  0.75000  0.43900  0.12100  1.0000
  B   B2        1.0  0.25000  0.56100  0.87900  1.0000
  W   W1        1.0  0.25000  0.85500  0.28900  1.0000
  W   W2        1.0  0.75000  0.14500  0.71100  1.0000
