data_image0
_chemical_formula_structural       Ba6Ir4Mg2O18
_chemical_formula_sum              "Ba6 Ir4 Mg2 O18"
_cell_length_a       5.75747
_cell_length_b       5.75747
_cell_length_c       14.211
_cell_angle_alpha    90
_cell_angle_beta     90
_cell_angle_gamma    120

_space_group_name_H-M_alt    "P 1"
_space_group_IT_number       1

loop_
  _space_group_symop_operation_xyz
  'x, y, z'

loop_
  _atom_site_type_symbol
  _atom_site_label
  _atom_site_symmetry_multiplicity
  _atom_site_fract_x
  _atom_site_fract_y
  _atom_site_fract_z
  _atom_site_occupancy
  Ba  Ba1       1.0  0.66700  0.33300  0.08590  1.0000
  Ba  Ba2       1.0  0.00000  0.00000  0.25000  1.0000
  Ba  Ba3       1.0  0.66700  0.33300  0.41400  1.0000
  Ba  Ba4       1.0  0.33300  0.66700  0.58600  1.0000
  Ba  Ba5       1.0  0.00000  0.00000  0.75000  1.0000
  Ba  Ba6       1.0  0.33300  0.66700  0.91400  1.0000
  Ir  Ir1       1.0  0.33300  0.66700  0.15900  1.0000
  Ir  Ir2       1.0  0.33300  0.66700  0.34100  1.0000
  Ir  Ir3       1.0  0.66700  0.33300  0.65900  1.0000
  Ir  Ir4       1.0  0.66700  0.33300  0.84100  1.0000
  Mg  Mg1       1.0  0.00000  0.00000  0.00000  1.0000
  Mg  Mg2       1.0  0.00000  0.00000  0.50000  1.0000
  O   O1        1.0  0.17100  0.34200  0.08240  1.0000
  O   O2        1.0  0.17100  0.82900  0.08240  1.0000
  O   O3        1.0  0.65800  0.82900  0.08240  1.0000
  O   O4        1.0  0.01670  0.50800  0.25000  1.0000
  O   O5        1.0  0.49200  0.50800  0.25000  1.0000
  O   O6        1.0  0.49200  0.98300  0.25000  1.0000
  O   O7        1.0  0.17100  0.82900  0.41800  1.0000
  O   O8        1.0  0.65800  0.82900  0.41800  1.0000
  O   O9        1.0  0.17100  0.34200  0.41800  1.0000
  O   O10       1.0  0.34200  0.17100  0.58200  1.0000
  O   O11       1.0  0.82900  0.17100  0.58200  1.0000
  O   O12       1.0  0.82900  0.65800  0.58200  1.0000
  O   O13       1.0  0.50800  0.01680  0.75000  1.0000
  O   O14       1.0  0.50800  0.49200  0.75000  1.0000
  O   O15       1.0  0.98300  0.49200  0.75000  1.0000
  O   O16       1.0  0.34200  0.17100  0.91800  1.0000
  O   O17       1.0  0.82900  0.17100  0.91800  1.0000
  O   O18       1.0  0.82900  0.65800  0.91800  1.0000
