data_image0
_chemical_formula_structural       Cs8F20Mg6
_chemical_formula_sum              "Cs8 F20 Mg6"
_cell_length_a       5.97404
_cell_length_b       7.70352
_cell_length_c       13.3523
_cell_angle_alpha    90
_cell_angle_beta     90
_cell_angle_gamma    67.1856

_space_group_name_H-M_alt    "P 1"
_space_group_IT_number       1

loop_
  _space_group_symop_operation_xyz
  'x, y, z'

loop_
  _atom_site_type_symbol
  _atom_site_label
  _atom_site_symmetry_multiplicity
  _atom_site_fract_x
  _atom_site_fract_y
  _atom_site_fract_z
  _atom_site_occupancy
  Cs  Cs1       1.0  0.24200  0.51500  0.10900  1.0000
  Cs  Cs2       1.0  0.54900  0.90100  0.13900  1.0000
  Cs  Cs3       1.0  0.04950  0.90100  0.36100  1.0000
  Cs  Cs4       1.0  0.74200  0.51500  0.39100  1.0000
  Cs  Cs5       1.0  0.25800  0.48500  0.60900  1.0000
  Cs  Cs6       1.0  0.95100  0.09890  0.63900  1.0000
  Cs  Cs7       1.0  0.45100  0.09890  0.86100  1.0000
  Cs  Cs8       1.0  0.75800  0.48500  0.89100  1.0000
  F   F1        1.0  0.68500  0.19800  0.03860  1.0000
  F   F2        1.0  0.11600  0.19800  0.03860  1.0000
  F   F3        1.0  0.02700  0.94600  0.14500  1.0000
  F   F4        1.0  0.74700  0.50600  0.14900  1.0000
  F   F5        1.0  0.63700  0.22500  0.25000  1.0000
  F   F6        1.0  0.13700  0.22500  0.25000  1.0000
  F   F7        1.0  0.24700  0.50600  0.35100  1.0000
  F   F8        1.0  0.52700  0.94600  0.35500  1.0000
  F   F9        1.0  0.61600  0.19800  0.46100  1.0000
  F   F10       1.0  0.18500  0.19800  0.46100  1.0000
  F   F11       1.0  0.81500  0.80200  0.53900  1.0000
  F   F12       1.0  0.38400  0.80200  0.53900  1.0000
  F   F13       1.0  0.47300  0.05400  0.64500  1.0000
  F   F14       1.0  0.75300  0.49400  0.64900  1.0000
  F   F15       1.0  0.86300  0.77500  0.75000  1.0000
  F   F16       1.0  0.36300  0.77500  0.75000  1.0000
  F   F17       1.0  0.25300  0.49400  0.85100  1.0000
  F   F18       1.0  0.97300  0.05400  0.85500  1.0000
  F   F19       1.0  0.88400  0.80200  0.96100  1.0000
  F   F20       1.0  0.31500  0.80200  0.96100  1.0000
  Mg  Mg1       1.0  0.00000  0.00000  0.00000  1.0000
  Mg  Mg2       1.0  0.88100  0.23800  0.15600  1.0000
  Mg  Mg3       1.0  0.38100  0.23800  0.34400  1.0000
  Mg  Mg4       1.0  0.50000  0.00000  0.50000  1.0000
  Mg  Mg5       1.0  0.61900  0.76200  0.65600  1.0000
  Mg  Mg6       1.0  0.11900  0.76200  0.84400  1.0000
