data_image0
_chemical_formula_structural       Al2La6Mg2S14
_chemical_formula_sum              "Al2 La6 Mg2 S14"
_cell_length_a       10.2764
_cell_length_b       10.2765
_cell_length_c       6.03227
_cell_angle_alpha    90
_cell_angle_beta     90
_cell_angle_gamma    120

_space_group_name_H-M_alt    "P 1"
_space_group_IT_number       1

loop_
  _space_group_symop_operation_xyz
  'x, y, z'

loop_
  _atom_site_type_symbol
  _atom_site_label
  _atom_site_symmetry_multiplicity
  _atom_site_fract_x
  _atom_site_fract_y
  _atom_site_fract_z
  _atom_site_occupancy
  Al  Al1       1.0  0.66700  0.33300  0.15400  1.0000
  Al  Al2       1.0  0.33300  0.66700  0.65400  1.0000
  La  La1       1.0  0.62600  0.76000  0.23400  1.0000
  La  La2       1.0  0.24000  0.86600  0.23400  1.0000
  La  La3       1.0  0.13400  0.37400  0.23400  1.0000
  La  La4       1.0  0.76000  0.13400  0.73400  1.0000
  La  La5       1.0  0.37400  0.24000  0.73400  1.0000
  La  La6       1.0  0.86600  0.62600  0.73400  1.0000
  Mg  Mg1       1.0  0.00000  0.00000  0.00530  1.0000
  Mg  Mg2       1.0  0.00000  0.00000  0.50500  1.0000
  S   S1        1.0  0.89700  0.41400  0.00531  1.0000
  S   S2        1.0  0.58600  0.48300  0.00531  1.0000
  S   S3        1.0  0.51700  0.10300  0.00531  1.0000
  S   S4        1.0  0.33300  0.66700  0.02280  1.0000
  S   S5        1.0  0.23500  0.15000  0.26000  1.0000
  S   S6        1.0  0.91500  0.76500  0.26000  1.0000
  S   S7        1.0  0.85000  0.08460  0.26000  1.0000
  S   S8        1.0  0.41400  0.51700  0.50500  1.0000
  S   S9        1.0  0.10300  0.58600  0.50500  1.0000
  S   S10       1.0  0.48300  0.89700  0.50500  1.0000
  S   S11       1.0  0.66700  0.33300  0.52300  1.0000
  S   S12       1.0  0.08460  0.23500  0.76000  1.0000
  S   S13       1.0  0.76500  0.85000  0.76000  1.0000
  S   S14       1.0  0.15000  0.91500  0.76000  1.0000
