data_image0
_chemical_formula_structural       Mn2Pd6
_chemical_formula_sum              "Mn2 Pd6"
_cell_length_a       3.93918
_cell_length_b       3.93918
_cell_length_c       8.28712
_cell_angle_alpha    103.749
_cell_angle_beta     103.749
_cell_angle_gamma    90

_space_group_name_H-M_alt    "P 1"
_space_group_IT_number       1

loop_
  _space_group_symop_operation_xyz
  'x, y, z'

loop_
  _atom_site_type_symbol
  _atom_site_label
  _atom_site_symmetry_multiplicity
  _atom_site_fract_x
  _atom_site_fract_y
  _atom_site_fract_z
  _atom_site_occupancy
  Mn  Mn1       1.0  0.12500  0.12500  0.24900  1.0000
  Mn  Mn2       1.0  0.87500  0.87500  0.75100  1.0000
  Pd  Pd1       1.0  0.50000  0.00000  0.00000  1.0000
  Pd  Pd2       1.0  0.00000  0.50000  0.00000  1.0000
  Pd  Pd3       1.0  0.62500  0.62500  0.25100  1.0000
  Pd  Pd4       1.0  0.75000  0.25000  0.50000  1.0000
  Pd  Pd5       1.0  0.25000  0.75000  0.50000  1.0000
  Pd  Pd6       1.0  0.37500  0.37500  0.74900  1.0000
