data_image0
_chemical_formula_structural       Al3Cu3Dy3
_chemical_formula_sum              "Al3 Cu3 Dy3"
_cell_length_a       7.02866
_cell_length_b       7.02866
_cell_length_c       4.01869
_cell_angle_alpha    90
_cell_angle_beta     90
_cell_angle_gamma    120

_space_group_name_H-M_alt    "P 1"
_space_group_IT_number       1

loop_
  _space_group_symop_operation_xyz
  'x, y, z'

loop_
  _atom_site_type_symbol
  _atom_site_label
  _atom_site_symmetry_multiplicity
  _atom_site_fract_x
  _atom_site_fract_y
  _atom_site_fract_z
  _atom_site_occupancy
  Al  Al1       1.0  0.23600  0.00000  0.00000  1.0000
  Al  Al2       1.0  0.00000  0.23600  0.00000  1.0000
  Al  Al3       1.0  0.76400  0.76400  0.00000  1.0000
  Cu  Cu1       1.0  0.66700  0.33300  0.00000  1.0000
  Cu  Cu2       1.0  0.33300  0.66700  0.00000  1.0000
  Cu  Cu3       1.0  0.00000  0.00000  0.50000  1.0000
  Dy  Dy1       1.0  0.58600  0.00002  0.50000  1.0000
  Dy  Dy2       1.0  0.41400  0.41400  0.50000  1.0000
  Dy  Dy3       1.0  0.00002  0.58600  0.50000  1.0000
