data_image0
_chemical_formula_structural       Cs6H10Mg2
_chemical_formula_sum              "Cs6 H10 Mg2"
_cell_length_a       8.2358
_cell_length_b       8.2358
_cell_length_c       8.57974
_cell_angle_alpha    118.683
_cell_angle_beta     118.683
_cell_angle_gamma    90

_space_group_name_H-M_alt    "P 1"
_space_group_IT_number       1

loop_
  _space_group_symop_operation_xyz
  'x, y, z'

loop_
  _atom_site_type_symbol
  _atom_site_label
  _atom_site_symmetry_multiplicity
  _atom_site_fract_x
  _atom_site_fract_y
  _atom_site_fract_z
  _atom_site_occupancy
  Cs  Cs1       1.0  0.68000  0.18000  0.00000  1.0000
  Cs  Cs2       1.0  0.18000  0.32000  0.00000  1.0000
  Cs  Cs3       1.0  0.82000  0.68000  0.00000  1.0000
  Cs  Cs4       1.0  0.32000  0.82000  0.00000  1.0000
  Cs  Cs5       1.0  0.25000  0.25000  0.50000  1.0000
  Cs  Cs6       1.0  0.75000  0.75000  0.50000  1.0000
  H   H1        1.0  0.00000  0.00000  0.00000  1.0000
  H   H2        1.0  0.50000  0.50000  0.00000  1.0000
  H   H3        1.0  0.78900  0.03440  0.32300  1.0000
  H   H4        1.0  0.53400  0.28900  0.32300  1.0000
  H   H5        1.0  0.03440  0.53400  0.32300  1.0000
  H   H6        1.0  0.28900  0.78900  0.32300  1.0000
  H   H7        1.0  0.71100  0.21100  0.67700  1.0000
  H   H8        1.0  0.96600  0.46600  0.67700  1.0000
  H   H9        1.0  0.46600  0.71100  0.67700  1.0000
  H   H10       1.0  0.21100  0.96600  0.67700  1.0000
  Mg  Mg1       1.0  0.75000  0.25000  0.50000  1.0000
  Mg  Mg2       1.0  0.25000  0.75000  0.50000  1.0000
