data_image0
_chemical_formula_structural       Ga4Pd2Yb2
_chemical_formula_sum              "Ga4 Pd2 Yb2"
_cell_length_a       4.39783
_cell_length_b       5.40883
_cell_length_c       6.88108
_cell_angle_alpha    90
_cell_angle_beta     90
_cell_angle_gamma    66.0122

_space_group_name_H-M_alt    "P 1"
_space_group_IT_number       1

loop_
  _space_group_symop_operation_xyz
  'x, y, z'

loop_
  _atom_site_type_symbol
  _atom_site_label
  _atom_site_symmetry_multiplicity
  _atom_site_fract_x
  _atom_site_fract_y
  _atom_site_fract_z
  _atom_site_occupancy
  Ga  Ga1       1.0  0.86600  0.26800  0.05600  1.0000
  Ga  Ga2       1.0  0.86600  0.26800  0.44400  1.0000
  Ga  Ga3       1.0  0.13400  0.73200  0.55600  1.0000
  Ga  Ga4       1.0  0.13400  0.73200  0.94400  1.0000
  Pd  Pd1       1.0  0.29500  0.41000  0.25000  1.0000
  Pd  Pd2       1.0  0.70500  0.59000  0.75000  1.0000
  Yb  Yb1       1.0  0.58100  0.83800  0.25000  1.0000
  Yb  Yb2       1.0  0.41900  0.16200  0.75000  1.0000
