data_image0
_chemical_formula_structural       Ge6Pd6Y6
_chemical_formula_sum              "Ge6 Pd6 Y6"
_cell_length_a       4.409
_cell_length_b       7.63913
_cell_length_c       11.4428
_cell_angle_alpha    109.499
_cell_angle_beta     101.108
_cell_angle_gamma    90

_space_group_name_H-M_alt    "P 1"
_space_group_IT_number       1

loop_
  _space_group_symop_operation_xyz
  'x, y, z'

loop_
  _atom_site_type_symbol
  _atom_site_label
  _atom_site_symmetry_multiplicity
  _atom_site_fract_x
  _atom_site_fract_y
  _atom_site_fract_z
  _atom_site_occupancy
  Ge  Ge1       1.0  0.06510  0.21900  0.13000  1.0000
  Ge  Ge2       1.0  0.59400  0.75000  0.18900  1.0000
  Ge  Ge3       1.0  0.23500  0.07240  0.47000  1.0000
  Ge  Ge4       1.0  0.76500  0.60300  0.53000  1.0000
  Ge  Ge5       1.0  0.40600  0.56100  0.81100  1.0000
  Ge  Ge6       1.0  0.93500  0.08880  0.87000  1.0000
  Pd  Pd1       1.0  0.57200  0.39500  0.14400  1.0000
  Pd  Pd2       1.0  0.10400  0.93100  0.20800  1.0000
  Pd  Pd3       1.0  0.73300  0.89900  0.46600  1.0000
  Pd  Pd4       1.0  0.26700  0.43400  0.53400  1.0000
  Pd  Pd5       1.0  0.89600  0.72300  0.79200  1.0000
  Pd  Pd6       1.0  0.42800  0.25200  0.85600  1.0000
  Y   Y1        1.0  0.00000  0.53400  0.00000  1.0000
  Y   Y2        1.0  0.50000  0.95100  0.00000  1.0000
  Y   Y3        1.0  0.66700  0.20200  0.33300  1.0000
  Y   Y4        1.0  0.16700  0.62500  0.33500  1.0000
  Y   Y5        1.0  0.83300  0.29000  0.66500  1.0000
  Y   Y6        1.0  0.33300  0.86900  0.66700  1.0000
