data_image0
_chemical_formula_structural       Li3Si3Y3
_chemical_formula_sum              "Li3 Si3 Y3"
_cell_length_a       6.98742
_cell_length_b       6.98742
_cell_length_c       4.22012
_cell_angle_alpha    90
_cell_angle_beta     90
_cell_angle_gamma    120

_space_group_name_H-M_alt    "P 1"
_space_group_IT_number       1

loop_
  _space_group_symop_operation_xyz
  'x, y, z'

loop_
  _atom_site_type_symbol
  _atom_site_label
  _atom_site_symmetry_multiplicity
  _atom_site_fract_x
  _atom_site_fract_y
  _atom_site_fract_z
  _atom_site_occupancy
  Li  Li1       1.0  0.23100  0.00001  0.50000  1.0000
  Li  Li2       1.0  0.00001  0.23100  0.50000  1.0000
  Li  Li3       1.0  0.76900  0.76900  0.50000  1.0000
  Si  Si1       1.0  0.00001  0.00000  0.00000  1.0000
  Si  Si2       1.0  0.66700  0.33300  0.50000  1.0000
  Si  Si3       1.0  0.33300  0.66700  0.50000  1.0000
  Y   Y1        1.0  0.57400  0.00000  0.00000  1.0000
  Y   Y2        1.0  0.42600  0.42600  0.00000  1.0000
  Y   Y3        1.0  0.00000  0.57400  0.00000  1.0000
