data_image0
_chemical_formula_structural       Se6Zr2
_chemical_formula_sum              "Se6 Zr2"
_cell_length_a       5.45835
_cell_length_b       3.78266
_cell_length_c       9.71485
_cell_angle_alpha    90
_cell_angle_beta     97.2072
_cell_angle_gamma    90

_space_group_name_H-M_alt    "P 1"
_space_group_IT_number       1

loop_
  _space_group_symop_operation_xyz
  'x, y, z'

loop_
  _atom_site_type_symbol
  _atom_site_label
  _atom_site_symmetry_multiplicity
  _atom_site_fract_x
  _atom_site_fract_y
  _atom_site_fract_z
  _atom_site_occupancy
  Se  Se1       1.0  0.89100  0.25000  0.17300  1.0000
  Se  Se2       1.0  0.45600  0.25000  0.17900  1.0000
  Se  Se3       1.0  0.23700  0.75000  0.44700  1.0000
  Se  Se4       1.0  0.76300  0.25000  0.55300  1.0000
  Se  Se5       1.0  0.54400  0.75000  0.82100  1.0000
  Se  Se6       1.0  0.10900  0.75000  0.82700  1.0000
  Zr  Zr1       1.0  0.71500  0.75000  0.34500  1.0000
  Zr  Zr2       1.0  0.28500  0.25000  0.65500  1.0000
