data_image0
_chemical_formula_structural       Bi3Se4
_chemical_formula_sum              "Bi3 Se4"
_cell_length_a       4.29677
_cell_length_b       4.29677
_cell_length_c       13.3438
_cell_angle_alpha    90
_cell_angle_beta     99.2651
_cell_angle_gamma    60

_space_group_name_H-M_alt    "P 1"
_space_group_IT_number       1

loop_
  _space_group_symop_operation_xyz
  'x, y, z'

loop_
  _atom_site_type_symbol
  _atom_site_label
  _atom_site_symmetry_multiplicity
  _atom_site_fract_x
  _atom_site_fract_y
  _atom_site_fract_z
  _atom_site_occupancy
  Bi  Bi1       1.0  0.00000  0.00000  0.00000  1.0000
  Bi  Bi2       1.0  0.85600  0.57200  0.28400  1.0000
  Bi  Bi3       1.0  0.14400  0.42800  0.71600  1.0000
  Se  Se1       1.0  0.41900  0.29000  0.12900  1.0000
  Se  Se2       1.0  0.26200  0.86900  0.39300  1.0000
  Se  Se3       1.0  0.73800  0.13100  0.60700  1.0000
  Se  Se4       1.0  0.58100  0.71000  0.87100  1.0000
