data_image0
_chemical_formula_structural       Au2In4Yb2
_chemical_formula_sum              "Au2 In4 Yb2"
_cell_length_a       4.58823
_cell_length_b       5.85665
_cell_length_c       7.64572
_cell_angle_alpha    90
_cell_angle_beta     90
_cell_angle_gamma    66.939

_space_group_name_H-M_alt    "P 1"
_space_group_IT_number       1

loop_
  _space_group_symop_operation_xyz
  'x, y, z'

loop_
  _atom_site_type_symbol
  _atom_site_label
  _atom_site_symmetry_multiplicity
  _atom_site_fract_x
  _atom_site_fract_y
  _atom_site_fract_z
  _atom_site_occupancy
  Au  Au1       1.0  0.21100  0.57900  0.25000  1.0000
  Au  Au2       1.0  0.78900  0.42100  0.75000  1.0000
  In  In1       1.0  0.63400  0.73200  0.04980  1.0000
  In  In2       1.0  0.63400  0.73200  0.45000  1.0000
  In  In3       1.0  0.36600  0.26800  0.55000  1.0000
  In  In4       1.0  0.36600  0.26800  0.95000  1.0000
  Yb  Yb1       1.0  0.92400  0.15100  0.25000  1.0000
  Yb  Yb2       1.0  0.07570  0.84900  0.75000  1.0000
