data_image0
_chemical_formula_structural       Mg2P4Si2
_chemical_formula_sum              "Mg2 P4 Si2"
_cell_length_a       5.75248
_cell_length_b       5.75248
_cell_length_c       6.51257
_cell_angle_alpha    116.209
_cell_angle_beta     116.209
_cell_angle_gamma    90

_space_group_name_H-M_alt    "P 1"
_space_group_IT_number       1

loop_
  _space_group_symop_operation_xyz
  'x, y, z'

loop_
  _atom_site_type_symbol
  _atom_site_label
  _atom_site_symmetry_multiplicity
  _atom_site_fract_x
  _atom_site_fract_y
  _atom_site_fract_z
  _atom_site_occupancy
  Mg  Mg1       1.0  0.00000  0.00000  0.00000  1.0000
  Mg  Mg2       1.0  0.25000  0.75000  0.50000  1.0000
  P   P1        1.0  0.41700  0.37500  0.25000  1.0000
  P   P2        1.0  0.83300  0.87500  0.25000  1.0000
  P   P3        1.0  0.62500  0.16700  0.75000  1.0000
  P   P4        1.0  0.12500  0.58300  0.75000  1.0000
  Si  Si1       1.0  0.50000  0.50000  0.00000  1.0000
  Si  Si2       1.0  0.75000  0.25000  0.50000  1.0000
