data_image0
_chemical_formula_structural       Ce4Mg20Ru8
_chemical_formula_sum              "Ce4 Mg20 Ru8"
_cell_length_a       9.87965
_cell_length_b       9.87965
_cell_length_c       7.07934
_cell_angle_alpha    90
_cell_angle_beta     90
_cell_angle_gamma    90

_space_group_name_H-M_alt    "P 1"
_space_group_IT_number       1

loop_
  _space_group_symop_operation_xyz
  'x, y, z'

loop_
  _atom_site_type_symbol
  _atom_site_label
  _atom_site_symmetry_multiplicity
  _atom_site_fract_x
  _atom_site_fract_y
  _atom_site_fract_z
  _atom_site_occupancy
  Ce  Ce1       1.0  0.75000  0.75000  0.06060  1.0000
  Ce  Ce2       1.0  0.25000  0.25000  0.43900  1.0000
  Ce  Ce3       1.0  0.75000  0.75000  0.56100  1.0000
  Ce  Ce4       1.0  0.25000  0.25000  0.93900  1.0000
  Mg  Mg1       1.0  0.00000  0.00000  0.00000  1.0000
  Mg  Mg2       1.0  0.50000  0.50000  0.00000  1.0000
  Mg  Mg3       1.0  0.54700  0.21300  0.16200  1.0000
  Mg  Mg4       1.0  0.95300  0.28700  0.16200  1.0000
  Mg  Mg5       1.0  0.21300  0.54700  0.16200  1.0000
  Mg  Mg6       1.0  0.28700  0.95300  0.16200  1.0000
  Mg  Mg7       1.0  0.78700  0.04740  0.33800  1.0000
  Mg  Mg8       1.0  0.71300  0.45300  0.33800  1.0000
  Mg  Mg9       1.0  0.45300  0.71300  0.33800  1.0000
  Mg  Mg10      1.0  0.04740  0.78700  0.33800  1.0000
  Mg  Mg11      1.0  0.50000  0.00000  0.50000  1.0000
  Mg  Mg12      1.0  0.00000  0.50000  0.50000  1.0000
  Mg  Mg13      1.0  0.95300  0.21300  0.66200  1.0000
  Mg  Mg14      1.0  0.54700  0.28700  0.66200  1.0000
  Mg  Mg15      1.0  0.28700  0.54700  0.66200  1.0000
  Mg  Mg16      1.0  0.21300  0.95300  0.66200  1.0000
  Mg  Mg17      1.0  0.71300  0.04740  0.83800  1.0000
  Mg  Mg18      1.0  0.78700  0.45300  0.83800  1.0000
  Mg  Mg19      1.0  0.04740  0.71300  0.83800  1.0000
  Mg  Mg20      1.0  0.45300  0.78700  0.83800  1.0000
  Ru  Ru1       1.0  0.94000  0.56000  0.14800  1.0000
  Ru  Ru2       1.0  0.56000  0.94000  0.14800  1.0000
  Ru  Ru3       1.0  0.06050  0.06050  0.35200  1.0000
  Ru  Ru4       1.0  0.44000  0.44000  0.35200  1.0000
  Ru  Ru5       1.0  0.56000  0.56000  0.64800  1.0000
  Ru  Ru6       1.0  0.94000  0.94000  0.64800  1.0000
  Ru  Ru7       1.0  0.44000  0.06050  0.85200  1.0000
  Ru  Ru8       1.0  0.06050  0.44000  0.85200  1.0000
