data_image0
_chemical_formula_structural       In2Rb2Te4
_chemical_formula_sum              "In2 Rb2 Te4"
_cell_length_a       7.34126
_cell_length_b       7.34126
_cell_length_c       7.34126
_cell_angle_alpha    105.09
_cell_angle_beta     118.642
_cell_angle_gamma    105.09

_space_group_name_H-M_alt    "P 1"
_space_group_IT_number       1

loop_
  _space_group_symop_operation_xyz
  'x, y, z'

loop_
  _atom_site_type_symbol
  _atom_site_label
  _atom_site_symmetry_multiplicity
  _atom_site_fract_x
  _atom_site_fract_y
  _atom_site_fract_z
  _atom_site_occupancy
  In  In1       1.0  0.75000  0.50000  0.25000  1.0000
  In  In2       1.0  0.25000  0.50000  0.75000  1.0000
  Rb  Rb1       1.0  0.25000  0.00000  0.25000  1.0000
  Rb  Rb2       1.0  0.75000  0.00000  0.75000  1.0000
  Te  Te1       1.0  0.32900  0.50000  0.17100  1.0000
  Te  Te2       1.0  0.82900  0.15700  0.32900  1.0000
  Te  Te3       1.0  0.17100  0.84300  0.67100  1.0000
  Te  Te4       1.0  0.67100  0.50000  0.82900  1.0000
