data_image0
_chemical_formula_structural       As4Ba2Pt2
_chemical_formula_sum              "As4 Ba2 Pt2"
_cell_length_a       4.66522
_cell_length_b       4.71337
_cell_length_c       8.97563
_cell_angle_alpha    74.7777
_cell_angle_beta     90
_cell_angle_gamma    90

_space_group_name_H-M_alt    "P 1"
_space_group_IT_number       1

loop_
  _space_group_symop_operation_xyz
  'x, y, z'

loop_
  _atom_site_type_symbol
  _atom_site_label
  _atom_site_symmetry_multiplicity
  _atom_site_fract_x
  _atom_site_fract_y
  _atom_site_fract_z
  _atom_site_occupancy
  As  As1       1.0  0.25000  0.96100  0.07720  1.0000
  As  As2       1.0  0.75000  0.75000  0.49900  1.0000
  As  As3       1.0  0.25000  0.25000  0.50100  1.0000
  As  As4       1.0  0.75000  0.03860  0.92300  1.0000
  Ba  Ba1       1.0  0.75000  0.39500  0.21000  1.0000
  Ba  Ba2       1.0  0.25000  0.60500  0.79000  1.0000
  Pt  Pt1       1.0  0.25000  0.81300  0.37500  1.0000
  Pt  Pt2       1.0  0.75000  0.18700  0.62500  1.0000
