data_image0
_chemical_formula_structural       CdGa2Te4
_chemical_formula_sum              "Cd1 Ga2 Te4"
_cell_length_a       6.23311
_cell_length_b       6.23311
_cell_length_c       7.4445
_cell_angle_alpha    114.749
_cell_angle_beta     114.749
_cell_angle_gamma    90

_space_group_name_H-M_alt    "P 1"
_space_group_IT_number       1

loop_
  _space_group_symop_operation_xyz
  'x, y, z'

loop_
  _atom_site_type_symbol
  _atom_site_label
  _atom_site_symmetry_multiplicity
  _atom_site_fract_x
  _atom_site_fract_y
  _atom_site_fract_z
  _atom_site_occupancy
  Cd  Cd1       1.0  0.00000  0.00000  0.00000  1.0000
  Ga  Ga1       1.0  0.50000  0.50000  0.00000  1.0000
  Ga  Ga2       1.0  0.25000  0.75000  0.50000  1.0000
  Te  Te1       1.0  0.41600  0.39000  0.27800  1.0000
  Te  Te2       1.0  0.86200  0.88800  0.27800  1.0000
  Te  Te3       1.0  0.11200  0.58400  0.72200  1.0000
  Te  Te4       1.0  0.61000  0.13800  0.72200  1.0000
