data_image0
_chemical_formula_structural       Ce4Ge4Ni4
_chemical_formula_sum              "Ce4 Ge4 Ni4"
_cell_length_a       7.48589
_cell_length_b       4.39564
_cell_length_c       7.37707
_cell_angle_alpha    90
_cell_angle_beta     90
_cell_angle_gamma    90

_space_group_name_H-M_alt    "P 1"
_space_group_IT_number       1

loop_
  _space_group_symop_operation_xyz
  'x, y, z'

loop_
  _atom_site_type_symbol
  _atom_site_label
  _atom_site_symmetry_multiplicity
  _atom_site_fract_x
  _atom_site_fract_y
  _atom_site_fract_z
  _atom_site_occupancy
  Ce  Ce1       1.0  0.98800  0.25000  0.20700  1.0000
  Ce  Ce2       1.0  0.48800  0.25000  0.29300  1.0000
  Ce  Ce3       1.0  0.51200  0.75000  0.70700  1.0000
  Ce  Ce4       1.0  0.01230  0.75000  0.79300  1.0000
  Ge  Ge1       1.0  0.69600  0.75000  0.08830  1.0000
  Ge  Ge2       1.0  0.19600  0.75000  0.41200  1.0000
  Ge  Ge3       1.0  0.80400  0.25000  0.58800  1.0000
  Ge  Ge4       1.0  0.30400  0.25000  0.91200  1.0000
  Ni  Ni1       1.0  0.30400  0.75000  0.08050  1.0000
  Ni  Ni2       1.0  0.80400  0.75000  0.41900  1.0000
  Ni  Ni3       1.0  0.19600  0.25000  0.58100  1.0000
  Ni  Ni4       1.0  0.69600  0.25000  0.91900  1.0000
