data_image0
_chemical_formula_structural       Gd4Ge4Zn4
_chemical_formula_sum              "Gd4 Ge4 Zn4"
_cell_length_a       4.25585
_cell_length_b       4.2557
_cell_length_c       15.8712
_cell_angle_alpha    90
_cell_angle_beta     90
_cell_angle_gamma    120.001

_space_group_name_H-M_alt    "P 1"
_space_group_IT_number       1

loop_
  _space_group_symop_operation_xyz
  'x, y, z'

loop_
  _atom_site_type_symbol
  _atom_site_label
  _atom_site_symmetry_multiplicity
  _atom_site_fract_x
  _atom_site_fract_y
  _atom_site_fract_z
  _atom_site_occupancy
  Gd  Gd1       1.0  0.00000  0.00000  0.00000  1.0000
  Gd  Gd2       1.0  0.00000  0.00000  0.25000  1.0000
  Gd  Gd3       1.0  0.00000  0.00000  0.50000  1.0000
  Gd  Gd4       1.0  0.00000  0.00001  0.75000  1.0000
  Ge  Ge1       1.0  0.66700  0.33300  0.11500  1.0000
  Ge  Ge2       1.0  0.66700  0.33300  0.38500  1.0000
  Ge  Ge3       1.0  0.33300  0.66700  0.61500  1.0000
  Ge  Ge4       1.0  0.33300  0.66700  0.88500  1.0000
  Zn  Zn1       1.0  0.33300  0.66700  0.14500  1.0000
  Zn  Zn2       1.0  0.33300  0.66700  0.35500  1.0000
  Zn  Zn3       1.0  0.66700  0.33300  0.64500  1.0000
  Zn  Zn4       1.0  0.66700  0.33300  0.85500  1.0000
