data_image0
_chemical_formula_structural       Ce12Ge12Pd12
_chemical_formula_sum              "Ce12 Ge12 Pd12"
_cell_length_a       22.3244
_cell_length_b       4.5418
_cell_length_c       7.77768
_cell_angle_alpha    90
_cell_angle_beta     90
_cell_angle_gamma    90

_space_group_name_H-M_alt    "P 1"
_space_group_IT_number       1

loop_
  _space_group_symop_operation_xyz
  'x, y, z'

loop_
  _atom_site_type_symbol
  _atom_site_label
  _atom_site_symmetry_multiplicity
  _atom_site_fract_x
  _atom_site_fract_y
  _atom_site_fract_z
  _atom_site_occupancy
  Ce  Ce1       1.0  0.83400  0.75000  0.20700  1.0000
  Ce  Ce2       1.0  0.16700  0.75000  0.21100  1.0000
  Ce  Ce3       1.0  0.49800  0.75000  0.21500  1.0000
  Ce  Ce4       1.0  0.99800  0.75000  0.28500  1.0000
  Ce  Ce5       1.0  0.66700  0.75000  0.28900  1.0000
  Ce  Ce6       1.0  0.33400  0.75000  0.29300  1.0000
  Ce  Ce7       1.0  0.66600  0.25000  0.70700  1.0000
  Ce  Ce8       1.0  0.33300  0.25000  0.71100  1.0000
  Ce  Ce9       1.0  0.00188  0.25000  0.71500  1.0000
  Ce  Ce10      1.0  0.50200  0.25000  0.78500  1.0000
  Ce  Ce11      1.0  0.83300  0.25000  0.78900  1.0000
  Ce  Ce12      1.0  0.16600  0.25000  0.79300  1.0000
  Ge  Ge1       1.0  0.39600  0.25000  0.08590  1.0000
  Ge  Ge2       1.0  0.26900  0.25000  0.08700  1.0000
  Ge  Ge3       1.0  0.07090  0.25000  0.09060  1.0000
  Ge  Ge4       1.0  0.57100  0.25000  0.40900  1.0000
  Ge  Ge5       1.0  0.76900  0.25000  0.41300  1.0000
  Ge  Ge6       1.0  0.89600  0.25000  0.41400  1.0000
  Ge  Ge7       1.0  0.10400  0.75000  0.58600  1.0000
  Ge  Ge8       1.0  0.23100  0.75000  0.58700  1.0000
  Ge  Ge9       1.0  0.42900  0.75000  0.59100  1.0000
  Ge  Ge10      1.0  0.92900  0.75000  0.90900  1.0000
  Ge  Ge11      1.0  0.73100  0.75000  0.91300  1.0000
  Ge  Ge12      1.0  0.60400  0.75000  0.91400  1.0000
  Pd  Pd1       1.0  0.59400  0.25000  0.07990  1.0000
  Pd  Pd2       1.0  0.73700  0.25000  0.08050  1.0000
  Pd  Pd3       1.0  0.93400  0.25000  0.08290  1.0000
  Pd  Pd4       1.0  0.43400  0.25000  0.41700  1.0000
  Pd  Pd5       1.0  0.23700  0.25000  0.41900  1.0000
  Pd  Pd6       1.0  0.09400  0.25000  0.42000  1.0000
  Pd  Pd7       1.0  0.90600  0.75000  0.58000  1.0000
  Pd  Pd8       1.0  0.76300  0.75000  0.58100  1.0000
  Pd  Pd9       1.0  0.56600  0.75000  0.58300  1.0000
  Pd  Pd10      1.0  0.06550  0.75000  0.91700  1.0000
  Pd  Pd11      1.0  0.26300  0.75000  0.91900  1.0000
  Pd  Pd12      1.0  0.40600  0.75000  0.92000  1.0000
