data_image0
_chemical_formula_structural       Au2Ge2La2
_chemical_formula_sum              "Au2 Ge2 La2"
_cell_length_a       4.52305
_cell_length_b       4.52306
_cell_length_c       8.15569
_cell_angle_alpha    90
_cell_angle_beta     90
_cell_angle_gamma    120

_space_group_name_H-M_alt    "P 1"
_space_group_IT_number       1

loop_
  _space_group_symop_operation_xyz
  'x, y, z'

loop_
  _atom_site_type_symbol
  _atom_site_label
  _atom_site_symmetry_multiplicity
  _atom_site_fract_x
  _atom_site_fract_y
  _atom_site_fract_z
  _atom_site_occupancy
  Au  Au1       1.0  0.33300  0.66700  0.48700  1.0000
  Au  Au2       1.0  0.66700  0.33300  0.98700  1.0000
  Ge  Ge1       1.0  0.33300  0.66700  0.02080  1.0000
  Ge  Ge2       1.0  0.66700  0.33300  0.52100  1.0000
  La  La1       1.0  0.00000  0.00000  0.24900  1.0000
  La  La2       1.0  0.00000  0.00001  0.74900  1.0000
