data_image0
_chemical_formula_structural       Cu4Ge4Ti4
_chemical_formula_sum              "Cu4 Ge4 Ti4"
_cell_length_a       5.14225
_cell_length_b       3.82102
_cell_length_c       8.85889
_cell_angle_alpha    90
_cell_angle_beta     90.0003
_cell_angle_gamma    90

_space_group_name_H-M_alt    "P 1"
_space_group_IT_number       1

loop_
  _space_group_symop_operation_xyz
  'x, y, z'

loop_
  _atom_site_type_symbol
  _atom_site_label
  _atom_site_symmetry_multiplicity
  _atom_site_fract_x
  _atom_site_fract_y
  _atom_site_fract_z
  _atom_site_occupancy
  Cu  Cu1       1.0  0.00052  0.75000  0.25000  1.0000
  Cu  Cu2       1.0  0.50100  0.75000  0.25000  1.0000
  Cu  Cu3       1.0  0.49900  0.25000  0.75000  1.0000
  Cu  Cu4       1.0  0.99900  0.25000  0.75000  1.0000
  Ge  Ge1       1.0  0.75000  0.25000  0.13900  1.0000
  Ge  Ge2       1.0  0.25000  0.25000  0.36100  1.0000
  Ge  Ge3       1.0  0.75000  0.75000  0.63900  1.0000
  Ge  Ge4       1.0  0.25000  0.75000  0.86100  1.0000
  Ti  Ti1       1.0  0.25000  0.25000  0.05210  1.0000
  Ti  Ti2       1.0  0.75000  0.25000  0.44800  1.0000
  Ti  Ti3       1.0  0.25000  0.75000  0.55200  1.0000
  Ti  Ti4       1.0  0.75000  0.75000  0.94800  1.0000
