data_image0
_chemical_formula_structural       Cu6Ti2
_chemical_formula_sum              "Cu6 Ti2"
_cell_length_a       5.29021
_cell_length_b       4.3079
_cell_length_c       4.45184
_cell_angle_alpha    90
_cell_angle_beta     90
_cell_angle_gamma    90

_space_group_name_H-M_alt    "P 1"
_space_group_IT_number       1

loop_
  _space_group_symop_operation_xyz
  'x, y, z'

loop_
  _atom_site_type_symbol
  _atom_site_label
  _atom_site_symmetry_multiplicity
  _atom_site_fract_x
  _atom_site_fract_y
  _atom_site_fract_z
  _atom_site_occupancy
  Cu  Cu1       1.0  0.99700  0.25000  0.15900  1.0000
  Cu  Cu2       1.0  0.50300  0.25000  0.15900  1.0000
  Cu  Cu3       1.0  0.25000  0.75000  0.32700  1.0000
  Cu  Cu4       1.0  0.75000  0.25000  0.67300  1.0000
  Cu  Cu5       1.0  0.00309  0.75000  0.84100  1.0000
  Cu  Cu6       1.0  0.49700  0.75000  0.84100  1.0000
  Ti  Ti1       1.0  0.75000  0.75000  0.34800  1.0000
  Ti  Ti2       1.0  0.25000  0.25000  0.65200  1.0000
