data_image0
_chemical_formula_structural       Gd4Ge4Mn4
_chemical_formula_sum              "Gd4 Ge4 Mn4"
_cell_length_a       7.37218
_cell_length_b       4.27126
_cell_length_c       8.48667
_cell_angle_alpha    90
_cell_angle_beta     90
_cell_angle_gamma    90

_space_group_name_H-M_alt    "P 1"
_space_group_IT_number       1

loop_
  _space_group_symop_operation_xyz
  'x, y, z'

loop_
  _atom_site_type_symbol
  _atom_site_label
  _atom_site_symmetry_multiplicity
  _atom_site_fract_x
  _atom_site_fract_y
  _atom_site_fract_z
  _atom_site_occupancy
  Gd  Gd1       1.0  0.03250  0.25000  0.19000  1.0000
  Gd  Gd2       1.0  0.53300  0.25000  0.31000  1.0000
  Gd  Gd3       1.0  0.46700  0.75000  0.69000  1.0000
  Gd  Gd4       1.0  0.96700  0.75000  0.81000  1.0000
  Ge  Ge1       1.0  0.75100  0.75000  0.11700  1.0000
  Ge  Ge2       1.0  0.25100  0.75000  0.38300  1.0000
  Ge  Ge3       1.0  0.74900  0.25000  0.61700  1.0000
  Ge  Ge4       1.0  0.24900  0.25000  0.88300  1.0000
  Mn  Mn1       1.0  0.35600  0.75000  0.07010  1.0000
  Mn  Mn2       1.0  0.85600  0.75000  0.43000  1.0000
  Mn  Mn3       1.0  0.14400  0.25000  0.57000  1.0000
  Mn  Mn4       1.0  0.64400  0.25000  0.93000  1.0000
