data_image0
_chemical_formula_structural       Ce4Ge4Zn4
_chemical_formula_sum              "Ce4 Ge4 Zn4"
_cell_length_a       4.32222
_cell_length_b       4.32214
_cell_length_c       16.9953
_cell_angle_alpha    90
_cell_angle_beta     90
_cell_angle_gamma    120.001

_space_group_name_H-M_alt    "P 1"
_space_group_IT_number       1

loop_
  _space_group_symop_operation_xyz
  'x, y, z'

loop_
  _atom_site_type_symbol
  _atom_site_label
  _atom_site_symmetry_multiplicity
  _atom_site_fract_x
  _atom_site_fract_y
  _atom_site_fract_z
  _atom_site_occupancy
  Ce  Ce1       1.0  0.00000  0.00000  0.00000  1.0000
  Ce  Ce2       1.0  0.00000  0.00000  0.25000  1.0000
  Ce  Ce3       1.0  0.00000  0.00000  0.50000  1.0000
  Ce  Ce4       1.0  0.00000  0.00001  0.75000  1.0000
  Ge  Ge1       1.0  0.66700  0.33300  0.11800  1.0000
  Ge  Ge2       1.0  0.66700  0.33300  0.38200  1.0000
  Ge  Ge3       1.0  0.33300  0.66700  0.61800  1.0000
  Ge  Ge4       1.0  0.33300  0.66700  0.88200  1.0000
  Zn  Zn1       1.0  0.33300  0.66700  0.13900  1.0000
  Zn  Zn2       1.0  0.33300  0.66700  0.36100  1.0000
  Zn  Zn3       1.0  0.66700  0.33300  0.63900  1.0000
  Zn  Zn4       1.0  0.66700  0.33300  0.86100  1.0000
