data_image0
_chemical_formula_structural       Au2Ge2Sm2
_chemical_formula_sum              "Au2 Ge2 Sm2"
_cell_length_a       4.48711
_cell_length_b       4.48744
_cell_length_c       7.66559
_cell_angle_alpha    90
_cell_angle_beta     90
_cell_angle_gamma    119.998

_space_group_name_H-M_alt    "P 1"
_space_group_IT_number       1

loop_
  _space_group_symop_operation_xyz
  'x, y, z'

loop_
  _atom_site_type_symbol
  _atom_site_label
  _atom_site_symmetry_multiplicity
  _atom_site_fract_x
  _atom_site_fract_y
  _atom_site_fract_z
  _atom_site_occupancy
  Au  Au1       1.0  0.33300  0.66700  0.02420  1.0000
  Au  Au2       1.0  0.66700  0.33300  0.52400  1.0000
  Ge  Ge1       1.0  0.33300  0.66700  0.46500  1.0000
  Ge  Ge2       1.0  0.66700  0.33300  0.96500  1.0000
  Sm  Sm1       1.0  0.00000  0.00000  0.25100  1.0000
  Sm  Sm2       1.0  0.00000  0.00000  0.75100  1.0000
