data_image0
_chemical_formula_structural       Ge4Mn4Tb4
_chemical_formula_sum              "Ge4 Mn4 Tb4"
_cell_length_a       7.17848
_cell_length_b       4.17685
_cell_length_c       8.00951
_cell_angle_alpha    89.9712
_cell_angle_beta     90.0049
_cell_angle_gamma    90.0564

_space_group_name_H-M_alt    "P 1"
_space_group_IT_number       1

loop_
  _space_group_symop_operation_xyz
  'x, y, z'

loop_
  _atom_site_type_symbol
  _atom_site_label
  _atom_site_symmetry_multiplicity
  _atom_site_fract_x
  _atom_site_fract_y
  _atom_site_fract_z
  _atom_site_occupancy
  Ge  Ge1       1.0  0.77800  0.25000  0.11800  1.0000
  Ge  Ge2       1.0  0.27700  0.25000  0.38200  1.0000
  Ge  Ge3       1.0  0.72200  0.75000  0.61800  1.0000
  Ge  Ge4       1.0  0.22200  0.75000  0.88200  1.0000
  Mn  Mn1       1.0  0.13500  0.25000  0.05510  1.0000
  Mn  Mn2       1.0  0.63500  0.25000  0.44500  1.0000
  Mn  Mn3       1.0  0.36500  0.75000  0.55500  1.0000
  Mn  Mn4       1.0  0.86500  0.75000  0.94500  1.0000
  Tb  Tb1       1.0  0.48000  0.75000  0.18100  1.0000
  Tb  Tb2       1.0  0.98000  0.75000  0.31900  1.0000
  Tb  Tb3       1.0  0.02000  0.25000  0.68100  1.0000
  Tb  Tb4       1.0  0.52000  0.25000  0.81900  1.0000
