data_image0
_chemical_formula_structural       Ga2Ge2Te2
_chemical_formula_sum              "Ga2 Ge2 Te2"
_cell_length_a       4.10641
_cell_length_b       4.10641
_cell_length_c       12.008
_cell_angle_alpha    99.8452
_cell_angle_beta     80.1548
_cell_angle_gamma    120

_space_group_name_H-M_alt    "P 1"
_space_group_IT_number       1

loop_
  _space_group_symop_operation_xyz
  'x, y, z'

loop_
  _atom_site_type_symbol
  _atom_site_label
  _atom_site_symmetry_multiplicity
  _atom_site_fract_x
  _atom_site_fract_y
  _atom_site_fract_z
  _atom_site_occupancy
  Ga  Ga1       1.0  0.25200  0.74800  0.24400  1.0000
  Ga  Ga2       1.0  0.74800  0.25200  0.75600  1.0000
  Ge  Ge1       1.0  0.32200  0.67800  0.03430  1.0000
  Ge  Ge2       1.0  0.67800  0.32200  0.96600  1.0000
  Te  Te1       1.0  0.88300  0.11700  0.35200  1.0000
  Te  Te2       1.0  0.11700  0.88300  0.64800  1.0000
