data_image0
_chemical_formula_structural       Er4Ge4Mn4
_chemical_formula_sum              "Er4 Ge4 Mn4"
_cell_length_a       6.97342
_cell_length_b       4.05323
_cell_length_c       7.94545
_cell_angle_alpha    90
_cell_angle_beta     90
_cell_angle_gamma    90

_space_group_name_H-M_alt    "P 1"
_space_group_IT_number       1

loop_
  _space_group_symop_operation_xyz
  'x, y, z'

loop_
  _atom_site_type_symbol
  _atom_site_label
  _atom_site_symmetry_multiplicity
  _atom_site_fract_x
  _atom_site_fract_y
  _atom_site_fract_z
  _atom_site_occupancy
  Er  Er1       1.0  0.47200  0.75000  0.18000  1.0000
  Er  Er2       1.0  0.97200  0.75000  0.32000  1.0000
  Er  Er3       1.0  0.02850  0.25000  0.68000  1.0000
  Er  Er4       1.0  0.52800  0.25000  0.82000  1.0000
  Ge  Ge1       1.0  0.77300  0.25000  0.12100  1.0000
  Ge  Ge2       1.0  0.27300  0.25000  0.37900  1.0000
  Ge  Ge3       1.0  0.72700  0.75000  0.62100  1.0000
  Ge  Ge4       1.0  0.22700  0.75000  0.87900  1.0000
  Mn  Mn1       1.0  0.13300  0.25000  0.05520  1.0000
  Mn  Mn2       1.0  0.63300  0.25000  0.44500  1.0000
  Mn  Mn3       1.0  0.36700  0.75000  0.55500  1.0000
  Mn  Mn4       1.0  0.86700  0.75000  0.94500  1.0000
