data_image0
_chemical_formula_structural       Ge3Mn3Ta3
_chemical_formula_sum              "Ge3 Mn3 Ta3"
_cell_length_a       6.77544
_cell_length_b       6.77544
_cell_length_c       3.6858
_cell_angle_alpha    90
_cell_angle_beta     90
_cell_angle_gamma    119.948

_space_group_name_H-M_alt    "P 1"
_space_group_IT_number       1

loop_
  _space_group_symop_operation_xyz
  'x, y, z'

loop_
  _atom_site_type_symbol
  _atom_site_label
  _atom_site_symmetry_multiplicity
  _atom_site_fract_x
  _atom_site_fract_y
  _atom_site_fract_z
  _atom_site_occupancy
  Ge  Ge1       1.0  0.66600  0.33300  0.00000  1.0000
  Ge  Ge2       1.0  0.33300  0.66600  0.00000  1.0000
  Ge  Ge3       1.0  0.00018  0.00018  0.50000  1.0000
  Mn  Mn1       1.0  0.25300  0.00010  0.00000  1.0000
  Mn  Mn2       1.0  0.00010  0.25300  0.00000  1.0000
  Mn  Mn3       1.0  0.74700  0.74700  0.00000  1.0000
  Ta  Ta1       1.0  0.58700  0.00002  0.50000  1.0000
  Ta  Ta2       1.0  0.41300  0.41300  0.50000  1.0000
  Ta  Ta3       1.0  0.00002  0.58700  0.50000  1.0000
