data_image0
_chemical_formula_structural       Er3Pb3Pd3
_chemical_formula_sum              "Er3 Pb3 Pd3"
_cell_length_a       7.81491
_cell_length_b       7.81491
_cell_length_c       3.82368
_cell_angle_alpha    90
_cell_angle_beta     90
_cell_angle_gamma    120.001

_space_group_name_H-M_alt    "P 1"
_space_group_IT_number       1

loop_
  _space_group_symop_operation_xyz
  'x, y, z'

loop_
  _atom_site_type_symbol
  _atom_site_label
  _atom_site_symmetry_multiplicity
  _atom_site_fract_x
  _atom_site_fract_y
  _atom_site_fract_z
  _atom_site_occupancy
  Er  Er1       1.0  0.60000  0.00001  0.50000  1.0000
  Er  Er2       1.0  0.40000  0.40000  0.50000  1.0000
  Er  Er3       1.0  0.00001  0.60000  0.50000  1.0000
  Pb  Pb1       1.0  0.26700  0.00001  0.00000  1.0000
  Pb  Pb2       1.0  0.00001  0.26700  0.00000  1.0000
  Pb  Pb3       1.0  0.73300  0.73300  0.00000  1.0000
  Pd  Pd1       1.0  0.66700  0.33300  0.00000  1.0000
  Pd  Pd2       1.0  0.33300  0.66700  0.00000  1.0000
  Pd  Pd3       1.0  0.00000  0.00000  0.50000  1.0000
