data_image0
_chemical_formula_structural       Er4Ru4Si4
_chemical_formula_sum              "Er4 Ru4 Si4"
_cell_length_a       6.94297
_cell_length_b       4.29654
_cell_length_c       7.11603
_cell_angle_alpha    90
_cell_angle_beta     90
_cell_angle_gamma    90

_space_group_name_H-M_alt    "P 1"
_space_group_IT_number       1

loop_
  _space_group_symop_operation_xyz
  'x, y, z'

loop_
  _atom_site_type_symbol
  _atom_site_label
  _atom_site_symmetry_multiplicity
  _atom_site_fract_x
  _atom_site_fract_y
  _atom_site_fract_z
  _atom_site_occupancy
  Er  Er1       1.0  0.98800  0.25000  0.18700  1.0000
  Er  Er2       1.0  0.48800  0.25000  0.31300  1.0000
  Er  Er3       1.0  0.51200  0.75000  0.68700  1.0000
  Er  Er4       1.0  0.01180  0.75000  0.81300  1.0000
  Ru  Ru1       1.0  0.34500  0.75000  0.06490  1.0000
  Ru  Ru2       1.0  0.84500  0.75000  0.43500  1.0000
  Ru  Ru3       1.0  0.15500  0.25000  0.56500  1.0000
  Ru  Ru4       1.0  0.65500  0.25000  0.93500  1.0000
  Si  Si1       1.0  0.69800  0.75000  0.10800  1.0000
  Si  Si2       1.0  0.19800  0.75000  0.39200  1.0000
  Si  Si3       1.0  0.80200  0.25000  0.60800  1.0000
  Si  Si4       1.0  0.30200  0.25000  0.89200  1.0000
