data_image0
_chemical_formula_structural       Ir4La16Mg4
_chemical_formula_sum              "Ir4 La16 Mg4"
_cell_length_a       10.1843
_cell_length_b       10.1843
_cell_length_c       10.1843
_cell_angle_alpha    120
_cell_angle_beta     90
_cell_angle_gamma    120

_space_group_name_H-M_alt    "P 1"
_space_group_IT_number       1

loop_
  _space_group_symop_operation_xyz
  'x, y, z'

loop_
  _atom_site_type_symbol
  _atom_site_label
  _atom_site_symmetry_multiplicity
  _atom_site_fract_x
  _atom_site_fract_y
  _atom_site_fract_z
  _atom_site_occupancy
  Ir  Ir1       1.0  0.42300  0.28200  0.14100  1.0000
  Ir  Ir2       1.0  0.85900  0.28200  0.14100  1.0000
  Ir  Ir3       1.0  0.85900  0.71800  0.14100  1.0000
  Ir  Ir4       1.0  0.85900  0.71800  0.57700  1.0000
  La  La1       1.0  0.81100  0.00000  0.18900  1.0000
  La  La2       1.0  0.18900  0.00000  0.18900  1.0000
  La  La3       1.0  0.18900  0.37700  0.18900  1.0000
  La  La4       1.0  0.65400  0.30900  0.34600  1.0000
  La  La5       1.0  0.03690  0.69100  0.34600  1.0000
  La  La6       1.0  0.65400  0.69100  0.34600  1.0000
  La  La7       1.0  0.06080  0.12200  0.56100  1.0000
  La  La8       1.0  0.06080  0.50000  0.56100  1.0000
  La  La9       1.0  0.43900  0.50000  0.56100  1.0000
  La  La10      1.0  0.18900  0.00000  0.81100  1.0000
  La  La11      1.0  0.81100  0.62300  0.81100  1.0000
  La  La12      1.0  0.81100  0.00000  0.81100  1.0000
  La  La13      1.0  0.06080  0.50000  0.93900  1.0000
  La  La14      1.0  0.43900  0.50000  0.93900  1.0000
  La  La15      1.0  0.43900  0.87800  0.93900  1.0000
  La  La16      1.0  0.65400  0.30900  0.96300  1.0000
  Mg  Mg1       1.0  0.42200  0.84300  0.26500  1.0000
  Mg  Mg2       1.0  0.42200  0.84300  0.57800  1.0000
  Mg  Mg3       1.0  0.42200  0.15700  0.57800  1.0000
  Mg  Mg4       1.0  0.73500  0.15700  0.57800  1.0000
