data_image0
_chemical_formula_structural       Er4Ge4Rh4
_chemical_formula_sum              "Er4 Ge4 Rh4"
_cell_length_a       6.86724
_cell_length_b       4.28927
_cell_length_c       7.5676
_cell_angle_alpha    90
_cell_angle_beta     90
_cell_angle_gamma    90

_space_group_name_H-M_alt    "P 1"
_space_group_IT_number       1

loop_
  _space_group_symop_operation_xyz
  'x, y, z'

loop_
  _atom_site_type_symbol
  _atom_site_label
  _atom_site_symmetry_multiplicity
  _atom_site_fract_x
  _atom_site_fract_y
  _atom_site_fract_z
  _atom_site_occupancy
  Er  Er1       1.0  0.00449  0.25000  0.19500  1.0000
  Er  Er2       1.0  0.50400  0.25000  0.30500  1.0000
  Er  Er3       1.0  0.49600  0.75000  0.69500  1.0000
  Er  Er4       1.0  0.99600  0.75000  0.80500  1.0000
  Ge  Ge1       1.0  0.71200  0.75000  0.10600  1.0000
  Ge  Ge2       1.0  0.21200  0.75000  0.39400  1.0000
  Ge  Ge3       1.0  0.78800  0.25000  0.60600  1.0000
  Ge  Ge4       1.0  0.28800  0.25000  0.89400  1.0000
  Rh  Rh1       1.0  0.34200  0.75000  0.06770  1.0000
  Rh  Rh2       1.0  0.84200  0.75000  0.43200  1.0000
  Rh  Rh3       1.0  0.15800  0.25000  0.56800  1.0000
  Rh  Rh4       1.0  0.65800  0.25000  0.93200  1.0000
