data_image0
_chemical_formula_structural       Ga6Hf6Pd6
_chemical_formula_sum              "Ga6 Hf6 Pd6"
_cell_length_a       7.20575
_cell_length_b       7.20575
_cell_length_c       6.94148
_cell_angle_alpha    90
_cell_angle_beta     90
_cell_angle_gamma    120

_space_group_name_H-M_alt    "P 1"
_space_group_IT_number       1

loop_
  _space_group_symop_operation_xyz
  'x, y, z'

loop_
  _atom_site_type_symbol
  _atom_site_label
  _atom_site_symmetry_multiplicity
  _atom_site_fract_x
  _atom_site_fract_y
  _atom_site_fract_z
  _atom_site_occupancy
  Ga  Ga1       1.0  0.73200  0.00000  0.00000  1.0000
  Ga  Ga2       1.0  0.26800  0.26800  0.00000  1.0000
  Ga  Ga3       1.0  0.00000  0.73200  0.00000  1.0000
  Ga  Ga4       1.0  0.73200  0.00000  0.50000  1.0000
  Ga  Ga5       1.0  0.26800  0.26800  0.50000  1.0000
  Ga  Ga6       1.0  0.00000  0.73200  0.50000  1.0000
  Hf  Hf1       1.0  0.40900  0.02080  0.25000  1.0000
  Hf  Hf2       1.0  0.97900  0.38800  0.25000  1.0000
  Hf  Hf3       1.0  0.61200  0.59100  0.25000  1.0000
  Hf  Hf4       1.0  0.02080  0.40900  0.75000  1.0000
  Hf  Hf5       1.0  0.59100  0.61200  0.75000  1.0000
  Hf  Hf6       1.0  0.38800  0.97900  0.75000  1.0000
  Pd  Pd1       1.0  0.33300  0.66700  0.03040  1.0000
  Pd  Pd2       1.0  0.00000  0.00000  0.25000  1.0000
  Pd  Pd3       1.0  0.33300  0.66700  0.47000  1.0000
  Pd  Pd4       1.0  0.66700  0.33300  0.53000  1.0000
  Pd  Pd5       1.0  0.00000  0.00000  0.75000  1.0000
  Pd  Pd6       1.0  0.66700  0.33300  0.97000  1.0000
