data_image0
_chemical_formula_structural       Dy2Ni2Si4
_chemical_formula_sum              "Dy2 Ni2 Si4"
_cell_length_a       3.96591
_cell_length_b       3.97675
_cell_length_c       8.43795
_cell_angle_alpha    76.3703
_cell_angle_beta     90
_cell_angle_gamma    90

_space_group_name_H-M_alt    "P 1"
_space_group_IT_number       1

loop_
  _space_group_symop_operation_xyz
  'x, y, z'

loop_
  _atom_site_type_symbol
  _atom_site_label
  _atom_site_symmetry_multiplicity
  _atom_site_fract_x
  _atom_site_fract_y
  _atom_site_fract_z
  _atom_site_occupancy
  Dy  Dy1       1.0  0.25000  0.89500  0.21100  1.0000
  Dy  Dy2       1.0  0.75000  0.10500  0.78900  1.0000
  Ni  Ni1       1.0  0.75000  0.32300  0.35500  1.0000
  Ni  Ni2       1.0  0.25000  0.67700  0.64500  1.0000
  Si  Si1       1.0  0.75000  0.46000  0.07950  1.0000
  Si  Si2       1.0  0.25000  0.25000  0.49900  1.0000
  Si  Si3       1.0  0.75000  0.75000  0.50100  1.0000
  Si  Si4       1.0  0.25000  0.54000  0.92000  1.0000
