data_image0
_chemical_formula_structural       Ca4In4Pd4
_chemical_formula_sum              "Ca4 In4 Pd4"
_cell_length_a       7.32619
_cell_length_b       8.54831
_cell_length_c       4.38591
_cell_angle_alpha    90
_cell_angle_beta     90
_cell_angle_gamma    90

_space_group_name_H-M_alt    "P 1"
_space_group_IT_number       1

loop_
  _space_group_symop_operation_xyz
  'x, y, z'

loop_
  _atom_site_type_symbol
  _atom_site_label
  _atom_site_symmetry_multiplicity
  _atom_site_fract_x
  _atom_site_fract_y
  _atom_site_fract_z
  _atom_site_occupancy
  Ca  Ca1       1.0  0.03160  0.67700  0.25000  1.0000
  Ca  Ca2       1.0  0.53200  0.82300  0.25000  1.0000
  Ca  Ca3       1.0  0.46800  0.17700  0.75000  1.0000
  Ca  Ca4       1.0  0.96800  0.32300  0.75000  1.0000
  In  In1       1.0  0.14700  0.06240  0.25000  1.0000
  In  In2       1.0  0.64700  0.43800  0.25000  1.0000
  In  In3       1.0  0.35300  0.56200  0.75000  1.0000
  In  In4       1.0  0.85300  0.93800  0.75000  1.0000
  Pd  Pd1       1.0  0.76700  0.12900  0.25000  1.0000
  Pd  Pd2       1.0  0.26700  0.37100  0.25000  1.0000
  Pd  Pd3       1.0  0.73300  0.62900  0.75000  1.0000
  Pd  Pd4       1.0  0.23300  0.87100  0.75000  1.0000
