data_image0
_chemical_formula_structural       Au12Ca12Ge12
_chemical_formula_sum              "Au12 Ca12 Ge12"
_cell_length_a       21.7345
_cell_length_b       4.55741
_cell_length_c       7.83341
_cell_angle_alpha    90
_cell_angle_beta     90.0001
_cell_angle_gamma    90

_space_group_name_H-M_alt    "P 1"
_space_group_IT_number       1

loop_
  _space_group_symop_operation_xyz
  'x, y, z'

loop_
  _atom_site_type_symbol
  _atom_site_label
  _atom_site_symmetry_multiplicity
  _atom_site_fract_x
  _atom_site_fract_y
  _atom_site_fract_z
  _atom_site_occupancy
  Au  Au1       1.0  0.93300  0.25000  0.08430  1.0000
  Au  Au2       1.0  0.59400  0.25000  0.08450  1.0000
  Au  Au3       1.0  0.73800  0.25000  0.08750  1.0000
  Au  Au4       1.0  0.23800  0.25000  0.41200  1.0000
  Au  Au5       1.0  0.09430  0.25000  0.41600  1.0000
  Au  Au6       1.0  0.43300  0.25000  0.41600  1.0000
  Au  Au7       1.0  0.56800  0.75000  0.58400  1.0000
  Au  Au8       1.0  0.90600  0.75000  0.58400  1.0000
  Au  Au9       1.0  0.76200  0.75000  0.58800  1.0000
  Au  Au10      1.0  0.26200  0.75000  0.91300  1.0000
  Au  Au11      1.0  0.40600  0.75000  0.91600  1.0000
  Au  Au12      1.0  0.06750  0.75000  0.91600  1.0000
  Ca  Ca1       1.0  0.16700  0.75000  0.20700  1.0000
  Ca  Ca2       1.0  0.83400  0.75000  0.20900  1.0000
  Ca  Ca3       1.0  0.49900  0.75000  0.21500  1.0000
  Ca  Ca4       1.0  0.99900  0.75000  0.28500  1.0000
  Ca  Ca5       1.0  0.33400  0.75000  0.29100  1.0000
  Ca  Ca6       1.0  0.66700  0.75000  0.29300  1.0000
  Ca  Ca7       1.0  0.33300  0.25000  0.70700  1.0000
  Ca  Ca8       1.0  0.66600  0.25000  0.70900  1.0000
  Ca  Ca9       1.0  0.00052  0.25000  0.71500  1.0000
  Ca  Ca10      1.0  0.50100  0.25000  0.78500  1.0000
  Ca  Ca11      1.0  0.16600  0.25000  0.79100  1.0000
  Ca  Ca12      1.0  0.83300  0.25000  0.79300  1.0000
  Ge  Ge1       1.0  0.27100  0.25000  0.08280  1.0000
  Ge  Ge2       1.0  0.39600  0.25000  0.08570  1.0000
  Ge  Ge3       1.0  0.06840  0.25000  0.08930  1.0000
  Ge  Ge4       1.0  0.56800  0.25000  0.41100  1.0000
  Ge  Ge5       1.0  0.89600  0.25000  0.41400  1.0000
  Ge  Ge6       1.0  0.77100  0.25000  0.41700  1.0000
  Ge  Ge7       1.0  0.22900  0.75000  0.58300  1.0000
  Ge  Ge8       1.0  0.10400  0.75000  0.58600  1.0000
  Ge  Ge9       1.0  0.43200  0.75000  0.58900  1.0000
  Ge  Ge10      1.0  0.93200  0.75000  0.91100  1.0000
  Ge  Ge11      1.0  0.60400  0.75000  0.91400  1.0000
  Ge  Ge12      1.0  0.72900  0.75000  0.91700  1.0000
