data_image0
_chemical_formula_structural       Ca3Li3Sn3
_chemical_formula_sum              "Ca3 Li3 Sn3"
_cell_length_a       4.90131
_cell_length_b       4.90138
_cell_length_c       10.7285
_cell_angle_alpha    90
_cell_angle_beta     90.0002
_cell_angle_gamma    120

_space_group_name_H-M_alt    "P 1"
_space_group_IT_number       1

loop_
  _space_group_symop_operation_xyz
  'x, y, z'

loop_
  _atom_site_type_symbol
  _atom_site_label
  _atom_site_symmetry_multiplicity
  _atom_site_fract_x
  _atom_site_fract_y
  _atom_site_fract_z
  _atom_site_occupancy
  Ca  Ca1       1.0  0.00000  0.00000  0.32800  1.0000
  Ca  Ca2       1.0  0.00000  0.00000  0.66200  1.0000
  Ca  Ca3       1.0  0.00000  0.00000  0.99700  1.0000
  Li  Li1       1.0  0.33300  0.66700  0.19700  1.0000
  Li  Li2       1.0  0.66700  0.33300  0.48000  1.0000
  Li  Li3       1.0  0.33300  0.66700  0.80000  1.0000
  Sn  Sn1       1.0  0.66700  0.33300  0.14800  1.0000
  Sn  Sn2       1.0  0.33300  0.66700  0.49600  1.0000
  Sn  Sn3       1.0  0.66700  0.33300  0.84800  1.0000
