data_image0
_chemical_formula_structural       Na3S4Sb
_chemical_formula_sum              "Na3 S4 Sb1"
_cell_length_a       6.23068
_cell_length_b       6.23068
_cell_length_c       6.23068
_cell_angle_alpha    109.471
_cell_angle_beta     109.471
_cell_angle_gamma    109.471

_space_group_name_H-M_alt    "P 1"
_space_group_IT_number       1

loop_
  _space_group_symop_operation_xyz
  'x, y, z'

loop_
  _atom_site_type_symbol
  _atom_site_label
  _atom_site_symmetry_multiplicity
  _atom_site_fract_x
  _atom_site_fract_y
  _atom_site_fract_z
  _atom_site_occupancy
  Na  Na1       1.0  0.50000  0.50000  0.00000  1.0000
  Na  Na2       1.0  0.50000  0.00000  0.50000  1.0000
  Na  Na3       1.0  0.00000  0.50000  0.50000  1.0000
  S   S1        1.0  0.62000  0.00000  0.00000  1.0000
  S   S2        1.0  0.00000  0.62000  0.00000  1.0000
  S   S3        1.0  0.38000  0.38000  0.38000  1.0000
  S   S4        1.0  0.00000  0.00000  0.62000  1.0000
  Sb  Sb1       1.0  0.00000  0.00000  0.00000  1.0000
