data_image0
_chemical_formula_structural       Ca4In4Pt4
_chemical_formula_sum              "Ca4 In4 Pt4"
_cell_length_a       7.32397
_cell_length_b       4.39278
_cell_length_c       8.46552
_cell_angle_alpha    90
_cell_angle_beta     90
_cell_angle_gamma    90

_space_group_name_H-M_alt    "P 1"
_space_group_IT_number       1

loop_
  _space_group_symop_operation_xyz
  'x, y, z'

loop_
  _atom_site_type_symbol
  _atom_site_label
  _atom_site_symmetry_multiplicity
  _atom_site_fract_x
  _atom_site_fract_y
  _atom_site_fract_z
  _atom_site_occupancy
  Ca  Ca1       1.0  0.47000  0.75000  0.17800  1.0000
  Ca  Ca2       1.0  0.97000  0.75000  0.32200  1.0000
  Ca  Ca3       1.0  0.02950  0.25000  0.67800  1.0000
  Ca  Ca4       1.0  0.53000  0.25000  0.82200  1.0000
  In  In1       1.0  0.14900  0.25000  0.06530  1.0000
  In  In2       1.0  0.64900  0.25000  0.43500  1.0000
  In  In3       1.0  0.35100  0.75000  0.56500  1.0000
  In  In4       1.0  0.85100  0.75000  0.93500  1.0000
  Pt  Pt1       1.0  0.76800  0.25000  0.12400  1.0000
  Pt  Pt2       1.0  0.26800  0.25000  0.37600  1.0000
  Pt  Pt3       1.0  0.73200  0.75000  0.62400  1.0000
  Pt  Pt4       1.0  0.23200  0.75000  0.87600  1.0000
