data_image0
_chemical_formula_structural       Ca3Cd3Pb3
_chemical_formula_sum              "Ca3 Cd3 Pb3"
_cell_length_a       7.8552
_cell_length_b       7.8552
_cell_length_c       4.7805
_cell_angle_alpha    90
_cell_angle_beta     90
_cell_angle_gamma    120.001

_space_group_name_H-M_alt    "P 1"
_space_group_IT_number       1

loop_
  _space_group_symop_operation_xyz
  'x, y, z'

loop_
  _atom_site_type_symbol
  _atom_site_label
  _atom_site_symmetry_multiplicity
  _atom_site_fract_x
  _atom_site_fract_y
  _atom_site_fract_z
  _atom_site_occupancy
  Ca  Ca1       1.0  0.58300  0.00001  0.50000  1.0000
  Ca  Ca2       1.0  0.41700  0.41700  0.50000  1.0000
  Ca  Ca3       1.0  0.00001  0.58300  0.50000  1.0000
  Cd  Cd1       1.0  0.25000  0.00000  0.00000  1.0000
  Cd  Cd2       1.0  0.00000  0.25000  0.00000  1.0000
  Cd  Cd3       1.0  0.75000  0.75000  0.00000  1.0000
  Pb  Pb1       1.0  0.66700  0.33300  0.00000  1.0000
  Pb  Pb2       1.0  0.33300  0.66700  0.00000  1.0000
  Pb  Pb3       1.0  0.00000  0.00000  0.50000  1.0000
