data_image0
_chemical_formula_structural       Al4Ca4Pt4
_chemical_formula_sum              "Al4 Ca4 Pt4"
_cell_length_a       7.21781
_cell_length_b       4.31905
_cell_length_c       7.82278
_cell_angle_alpha    90
_cell_angle_beta     90
_cell_angle_gamma    90

_space_group_name_H-M_alt    "P 1"
_space_group_IT_number       1

loop_
  _space_group_symop_operation_xyz
  'x, y, z'

loop_
  _atom_site_type_symbol
  _atom_site_label
  _atom_site_symmetry_multiplicity
  _atom_site_fract_x
  _atom_site_fract_y
  _atom_site_fract_z
  _atom_site_occupancy
  Al  Al1       1.0  0.64500  0.25000  0.06560  1.0000
  Al  Al2       1.0  0.14500  0.25000  0.43400  1.0000
  Al  Al3       1.0  0.85500  0.75000  0.56600  1.0000
  Al  Al4       1.0  0.35500  0.75000  0.93400  1.0000
  Ca  Ca1       1.0  0.98000  0.75000  0.17600  1.0000
  Ca  Ca2       1.0  0.48000  0.75000  0.32400  1.0000
  Ca  Ca3       1.0  0.52000  0.25000  0.67600  1.0000
  Ca  Ca4       1.0  0.02040  0.25000  0.82400  1.0000
  Pt  Pt1       1.0  0.28900  0.25000  0.11700  1.0000
  Pt  Pt2       1.0  0.78900  0.25000  0.38300  1.0000
  Pt  Pt3       1.0  0.21100  0.75000  0.61700  1.0000
  Pt  Pt4       1.0  0.71100  0.75000  0.88300  1.0000
