data_image0
_chemical_formula_structural       Ca6Cu6Sn6
_chemical_formula_sum              "Ca6 Cu6 Sn6"
_cell_length_a       4.60102
_cell_length_b       7.926
_cell_length_c       11.8763
_cell_angle_alpha    109.493
_cell_angle_beta     101.169
_cell_angle_gamma    90

_space_group_name_H-M_alt    "P 1"
_space_group_IT_number       1

loop_
  _space_group_symop_operation_xyz
  'x, y, z'

loop_
  _atom_site_type_symbol
  _atom_site_label
  _atom_site_symmetry_multiplicity
  _atom_site_fract_x
  _atom_site_fract_y
  _atom_site_fract_z
  _atom_site_occupancy
  Ca  Ca1       1.0  0.00000  0.00122  0.00000  1.0000
  Ca  Ca2       1.0  0.50000  0.42500  0.00000  1.0000
  Ca  Ca3       1.0  0.16500  0.08970  0.33000  1.0000
  Ca  Ca4       1.0  0.66900  0.66900  0.33700  1.0000
  Ca  Ca5       1.0  0.33100  0.33200  0.66300  1.0000
  Ca  Ca6       1.0  0.83500  0.75900  0.67000  1.0000
  Cu  Cu1       1.0  0.07250  0.70100  0.14500  1.0000
  Cu  Cu2       1.0  0.60300  0.23200  0.20500  1.0000
  Cu  Cu3       1.0  0.23200  0.53000  0.46400  1.0000
  Cu  Cu4       1.0  0.76800  0.06600  0.53600  1.0000
  Cu  Cu5       1.0  0.39700  0.02640  0.79500  1.0000
  Cu  Cu6       1.0  0.92800  0.55600  0.85500  1.0000
  Sn  Sn1       1.0  0.56900  0.86700  0.13700  1.0000
  Sn  Sn2       1.0  0.09750  0.39700  0.19500  1.0000
  Sn  Sn3       1.0  0.73400  0.36000  0.46800  1.0000
  Sn  Sn4       1.0  0.26600  0.89200  0.53200  1.0000
  Sn  Sn5       1.0  0.90200  0.20200  0.80500  1.0000
  Sn  Sn6       1.0  0.43100  0.73000  0.86300  1.0000
