data_image0
_chemical_formula_structural       Ni2Si4Sm2
_chemical_formula_sum              "Ni2 Si4 Sm2"
_cell_length_a       4.01997
_cell_length_b       4.08208
_cell_length_c       8.44285
_cell_angle_alpha    76.0103
_cell_angle_beta     90
_cell_angle_gamma    90

_space_group_name_H-M_alt    "P 1"
_space_group_IT_number       1

loop_
  _space_group_symop_operation_xyz
  'x, y, z'

loop_
  _atom_site_type_symbol
  _atom_site_label
  _atom_site_symmetry_multiplicity
  _atom_site_fract_x
  _atom_site_fract_y
  _atom_site_fract_z
  _atom_site_occupancy
  Ni  Ni1       1.0  0.75000  0.32000  0.36000  1.0000
  Ni  Ni2       1.0  0.25000  0.68000  0.64000  1.0000
  Si  Si1       1.0  0.75000  0.46000  0.08100  1.0000
  Si  Si2       1.0  0.75000  0.75000  0.50000  1.0000
  Si  Si3       1.0  0.25000  0.25000  0.50000  1.0000
  Si  Si4       1.0  0.25000  0.54000  0.91900  1.0000
  Sm  Sm1       1.0  0.25000  0.89400  0.21200  1.0000
  Sm  Sm2       1.0  0.75000  0.10600  0.78800  1.0000
