data_image0
_chemical_formula_structural       Ca4Mg4Sn4
_chemical_formula_sum              "Ca4 Mg4 Sn4"
_cell_length_a       7.85748
_cell_length_b       4.70424
_cell_length_c       8.77557
_cell_angle_alpha    90
_cell_angle_beta     90
_cell_angle_gamma    90

_space_group_name_H-M_alt    "P 1"
_space_group_IT_number       1

loop_
  _space_group_symop_operation_xyz
  'x, y, z'

loop_
  _atom_site_type_symbol
  _atom_site_label
  _atom_site_symmetry_multiplicity
  _atom_site_fract_x
  _atom_site_fract_y
  _atom_site_fract_z
  _atom_site_occupancy
  Ca  Ca1       1.0  0.98200  0.75000  0.18400  1.0000
  Ca  Ca2       1.0  0.48200  0.75000  0.31600  1.0000
  Ca  Ca3       1.0  0.51800  0.25000  0.68400  1.0000
  Ca  Ca4       1.0  0.01800  0.25000  0.81600  1.0000
  Mg  Mg1       1.0  0.64600  0.25000  0.06330  1.0000
  Mg  Mg2       1.0  0.14600  0.25000  0.43700  1.0000
  Mg  Mg3       1.0  0.85400  0.75000  0.56300  1.0000
  Mg  Mg4       1.0  0.35400  0.75000  0.93700  1.0000
  Sn  Sn1       1.0  0.26600  0.25000  0.11600  1.0000
  Sn  Sn2       1.0  0.76600  0.25000  0.38400  1.0000
  Sn  Sn3       1.0  0.23400  0.75000  0.61600  1.0000
  Sn  Sn4       1.0  0.73400  0.75000  0.88400  1.0000
