data_image0
_chemical_formula_structural       Ag4Ca4Sb4
_chemical_formula_sum              "Ag4 Ca4 Sb4"
_cell_length_a       7.69463
_cell_length_b       4.60271
_cell_length_c       8.45765
_cell_angle_alpha    90
_cell_angle_beta     90
_cell_angle_gamma    90

_space_group_name_H-M_alt    "P 1"
_space_group_IT_number       1

loop_
  _space_group_symop_operation_xyz
  'x, y, z'

loop_
  _atom_site_type_symbol
  _atom_site_label
  _atom_site_symmetry_multiplicity
  _atom_site_fract_x
  _atom_site_fract_y
  _atom_site_fract_z
  _atom_site_occupancy
  Ag  Ag1       1.0  0.14400  0.25000  0.06560  1.0000
  Ag  Ag2       1.0  0.64400  0.25000  0.43400  1.0000
  Ag  Ag3       1.0  0.35600  0.75000  0.56600  1.0000
  Ag  Ag4       1.0  0.85600  0.75000  0.93400  1.0000
  Ca  Ca1       1.0  0.48000  0.75000  0.19500  1.0000
  Ca  Ca2       1.0  0.98000  0.75000  0.30500  1.0000
  Ca  Ca3       1.0  0.01980  0.25000  0.69500  1.0000
  Ca  Ca4       1.0  0.52000  0.25000  0.80500  1.0000
  Sb  Sb1       1.0  0.75700  0.25000  0.11300  1.0000
  Sb  Sb2       1.0  0.25700  0.25000  0.38700  1.0000
  Sb  Sb3       1.0  0.74300  0.75000  0.61300  1.0000
  Sb  Sb4       1.0  0.24300  0.75000  0.88700  1.0000
