data_image0
_chemical_formula_structural       Ge2S2
_chemical_formula_sum              "Ge2 S2"
_cell_length_a       3.86517
_cell_length_b       3.86307
_cell_length_c       5.77889
_cell_angle_alpha    70.4737
_cell_angle_beta     90
_cell_angle_gamma    90

_space_group_name_H-M_alt    "P 1"
_space_group_IT_number       1

loop_
  _space_group_symop_operation_xyz
  'x, y, z'

loop_
  _atom_site_type_symbol
  _atom_site_label
  _atom_site_symmetry_multiplicity
  _atom_site_fract_x
  _atom_site_fract_y
  _atom_site_fract_z
  _atom_site_occupancy
  Ge  Ge1       1.0  0.25000  0.86600  0.26900  1.0000
  Ge  Ge2       1.0  0.75000  0.13400  0.73100  1.0000
  S   S1        1.0  0.75000  0.35300  0.29400  1.0000
  S   S2        1.0  0.25000  0.64700  0.70600  1.0000
