data_image0
_chemical_formula_structural       S6Sr2
_chemical_formula_sum              "S6 Sr2"
_cell_length_a       5.39626
_cell_length_b       5.39626
_cell_length_c       7.00561
_cell_angle_alpha    90
_cell_angle_beta     90
_cell_angle_gamma    97.1224

_space_group_name_H-M_alt    "P 1"
_space_group_IT_number       1

loop_
  _space_group_symop_operation_xyz
  'x, y, z'

loop_
  _atom_site_type_symbol
  _atom_site_label
  _atom_site_symmetry_multiplicity
  _atom_site_fract_x
  _atom_site_fract_y
  _atom_site_fract_z
  _atom_site_occupancy
  S   S1        1.0  0.46400  0.46400  0.00000  1.0000
  S   S2        1.0  0.47500  0.80500  0.14100  1.0000
  S   S3        1.0  0.97500  0.30500  0.35900  1.0000
  S   S4        1.0  0.96400  0.96400  0.50000  1.0000
  S   S5        1.0  0.30500  0.97500  0.64100  1.0000
  S   S6        1.0  0.80500  0.47500  0.85900  1.0000
  Sr  Sr1       1.0  0.00015  0.00015  0.00000  1.0000
  Sr  Sr2       1.0  0.50000  0.50000  0.50000  1.0000
