data_image0
_chemical_formula_structural       Bi4Ir4Ta4
_chemical_formula_sum              "Bi4 Ir4 Ta4"
_cell_length_a       6.64439
_cell_length_b       4.23849
_cell_length_c       8.74468
_cell_angle_alpha    90
_cell_angle_beta     90
_cell_angle_gamma    90

_space_group_name_H-M_alt    "P 1"
_space_group_IT_number       1

loop_
  _space_group_symop_operation_xyz
  'x, y, z'

loop_
  _atom_site_type_symbol
  _atom_site_label
  _atom_site_symmetry_multiplicity
  _atom_site_fract_x
  _atom_site_fract_y
  _atom_site_fract_z
  _atom_site_occupancy
  Bi  Bi1       1.0  0.33900  0.25000  0.06950  1.0000
  Bi  Bi2       1.0  0.83900  0.25000  0.43100  1.0000
  Bi  Bi3       1.0  0.16100  0.75000  0.56900  1.0000
  Bi  Bi4       1.0  0.66100  0.75000  0.93100  1.0000
  Ir  Ir1       1.0  0.91600  0.25000  0.09520  1.0000
  Ir  Ir2       1.0  0.41600  0.25000  0.40500  1.0000
  Ir  Ir3       1.0  0.58400  0.75000  0.59500  1.0000
  Ir  Ir4       1.0  0.08420  0.75000  0.90500  1.0000
  Ta  Ta1       1.0  0.06840  0.75000  0.22400  1.0000
  Ta  Ta2       1.0  0.56800  0.75000  0.27600  1.0000
  Ta  Ta3       1.0  0.43200  0.25000  0.72400  1.0000
  Ta  Ta4       1.0  0.93200  0.25000  0.77600  1.0000
