data_image0
_chemical_formula_structural       Cr2Te4V
_chemical_formula_sum              "Cr2 Te4 V1"
_cell_length_a       3.99059
_cell_length_b       6.96069
_cell_length_c       7.25091
_cell_angle_alpha    117.446
_cell_angle_beta     105.973
_cell_angle_gamma    90

_space_group_name_H-M_alt    "P 1"
_space_group_IT_number       1

loop_
  _space_group_symop_operation_xyz
  'x, y, z'

loop_
  _atom_site_type_symbol
  _atom_site_label
  _atom_site_symmetry_multiplicity
  _atom_site_fract_x
  _atom_site_fract_y
  _atom_site_fract_z
  _atom_site_occupancy
  Cr  Cr1       1.0  0.74100  0.72300  0.48300  1.0000
  Cr  Cr2       1.0  0.25900  0.27700  0.51700  1.0000
  Te  Te1       1.0  0.12000  0.45200  0.23900  1.0000
  Te  Te2       1.0  0.63100  0.97000  0.26200  1.0000
  Te  Te3       1.0  0.36900  0.03020  0.73800  1.0000
  Te  Te4       1.0  0.88000  0.54800  0.76100  1.0000
  V   V1        1.0  0.00000  0.00000  0.00000  1.0000
