data_image0
_chemical_formula_structural       As10Pd10Zr10
_chemical_formula_sum              "As10 Pd10 Zr10"
_cell_length_a       3.92955
_cell_length_b       19.5986
_cell_length_c       6.76976
_cell_angle_alpha    90
_cell_angle_beta     90
_cell_angle_gamma    90

_space_group_name_H-M_alt    "P 1"
_space_group_IT_number       1

loop_
  _space_group_symop_operation_xyz
  'x, y, z'

loop_
  _atom_site_type_symbol
  _atom_site_label
  _atom_site_symmetry_multiplicity
  _atom_site_fract_x
  _atom_site_fract_y
  _atom_site_fract_z
  _atom_site_occupancy
  As  As1       1.0  0.25000  0.65100  0.24500  1.0000
  As  As2       1.0  0.25000  0.84900  0.24500  1.0000
  As  As3       1.0  0.25000  0.25000  0.25200  1.0000
  As  As4       1.0  0.75000  0.05280  0.25800  1.0000
  As  As5       1.0  0.75000  0.44700  0.25800  1.0000
  As  As6       1.0  0.25000  0.55300  0.74200  1.0000
  As  As7       1.0  0.25000  0.94700  0.74200  1.0000
  As  As8       1.0  0.75000  0.75000  0.74800  1.0000
  As  As9       1.0  0.75000  0.15100  0.75500  1.0000
  As  As10      1.0  0.75000  0.34900  0.75500  1.0000
  Pd  Pd1       1.0  0.75000  0.17400  0.11900  1.0000
  Pd  Pd2       1.0  0.75000  0.32600  0.11900  1.0000
  Pd  Pd3       1.0  0.25000  0.52800  0.35200  1.0000
  Pd  Pd4       1.0  0.25000  0.97200  0.35200  1.0000
  Pd  Pd5       1.0  0.25000  0.75000  0.49000  1.0000
  Pd  Pd6       1.0  0.75000  0.25000  0.51000  1.0000
  Pd  Pd7       1.0  0.75000  0.02770  0.64800  1.0000
  Pd  Pd8       1.0  0.75000  0.47200  0.64800  1.0000
  Pd  Pd9       1.0  0.25000  0.67400  0.88100  1.0000
  Pd  Pd10      1.0  0.25000  0.82600  0.88100  1.0000
  Zr  Zr1       1.0  0.75000  0.56800  0.02930  1.0000
  Zr  Zr2       1.0  0.75000  0.93200  0.02930  1.0000
  Zr  Zr3       1.0  0.75000  0.75000  0.15600  1.0000
  Zr  Zr4       1.0  0.25000  0.12800  0.45700  1.0000
  Zr  Zr5       1.0  0.25000  0.37200  0.45700  1.0000
  Zr  Zr6       1.0  0.75000  0.62800  0.54300  1.0000
  Zr  Zr7       1.0  0.75000  0.87200  0.54300  1.0000
  Zr  Zr8       1.0  0.25000  0.25000  0.84400  1.0000
  Zr  Zr9       1.0  0.25000  0.06820  0.97100  1.0000
  Zr  Zr10      1.0  0.25000  0.43200  0.97100  1.0000
