data_image0
_chemical_formula_structural       F6TiZr
_chemical_formula_sum              "F6 Ti1 Zr1"
_cell_length_a       5.72043
_cell_length_b       5.72043
_cell_length_c       5.72043
_cell_angle_alpha    120
_cell_angle_beta     90
_cell_angle_gamma    120

_space_group_name_H-M_alt    "P 1"
_space_group_IT_number       1

loop_
  _space_group_symop_operation_xyz
  'x, y, z'

loop_
  _atom_site_type_symbol
  _atom_site_label
  _atom_site_symmetry_multiplicity
  _atom_site_fract_x
  _atom_site_fract_y
  _atom_site_fract_z
  _atom_site_occupancy
  F   F1        1.0  0.74700  0.00000  0.25300  1.0000
  F   F2        1.0  0.25300  0.00000  0.25300  1.0000
  F   F3        1.0  0.25300  0.50500  0.25300  1.0000
  F   F4        1.0  0.74700  0.00000  0.74700  1.0000
  F   F5        1.0  0.25300  0.00000  0.74700  1.0000
  F   F6        1.0  0.74700  0.49500  0.74700  1.0000
  Ti  Ti1       1.0  0.50000  0.00000  0.50000  1.0000
  Zr  Zr1       1.0  0.00000  0.00000  0.00000  1.0000
