data_image0
_chemical_formula_structural       Ge4Pd4Ta4
_chemical_formula_sum              "Ge4 Pd4 Ta4"
_cell_length_a       6.60714
_cell_length_b       3.78595
_cell_length_c       7.73151
_cell_angle_alpha    90
_cell_angle_beta     90
_cell_angle_gamma    90

_space_group_name_H-M_alt    "P 1"
_space_group_IT_number       1

loop_
  _space_group_symop_operation_xyz
  'x, y, z'

loop_
  _atom_site_type_symbol
  _atom_site_label
  _atom_site_symmetry_multiplicity
  _atom_site_fract_x
  _atom_site_fract_y
  _atom_site_fract_z
  _atom_site_occupancy
  Ge  Ge1       1.0  0.27100  0.25000  0.13700  1.0000
  Ge  Ge2       1.0  0.77100  0.25000  0.36300  1.0000
  Ge  Ge3       1.0  0.22900  0.75000  0.63700  1.0000
  Ge  Ge4       1.0  0.72900  0.75000  0.86300  1.0000
  Pd  Pd1       1.0  0.64900  0.25000  0.06340  1.0000
  Pd  Pd2       1.0  0.14900  0.25000  0.43700  1.0000
  Pd  Pd3       1.0  0.85100  0.75000  0.56300  1.0000
  Pd  Pd4       1.0  0.35100  0.75000  0.93700  1.0000
  Ta  Ta1       1.0  0.97200  0.75000  0.15400  1.0000
  Ta  Ta2       1.0  0.47200  0.75000  0.34600  1.0000
  Ta  Ta3       1.0  0.52800  0.25000  0.65400  1.0000
  Ta  Ta4       1.0  0.02820  0.25000  0.84600  1.0000
