data_image0
_chemical_formula_structural       Nb4Pd4Si4
_chemical_formula_sum              "Nb4 Pd4 Si4"
_cell_length_a       6.46009
_cell_length_b       3.78497
_cell_length_c       7.47675
_cell_angle_alpha    90
_cell_angle_beta     90
_cell_angle_gamma    90

_space_group_name_H-M_alt    "P 1"
_space_group_IT_number       1

loop_
  _space_group_symop_operation_xyz
  'x, y, z'

loop_
  _atom_site_type_symbol
  _atom_site_label
  _atom_site_symmetry_multiplicity
  _atom_site_fract_x
  _atom_site_fract_y
  _atom_site_fract_z
  _atom_site_occupancy
  Nb  Nb1       1.0  0.52700  0.75000  0.16600  1.0000
  Nb  Nb2       1.0  0.02730  0.75000  0.33400  1.0000
  Nb  Nb3       1.0  0.97300  0.25000  0.66600  1.0000
  Nb  Nb4       1.0  0.47300  0.25000  0.83400  1.0000
  Pd  Pd1       1.0  0.85200  0.25000  0.06260  1.0000
  Pd  Pd2       1.0  0.35200  0.25000  0.43700  1.0000
  Pd  Pd3       1.0  0.64800  0.75000  0.56300  1.0000
  Pd  Pd4       1.0  0.14800  0.75000  0.93700  1.0000
  Si  Si1       1.0  0.23300  0.25000  0.12900  1.0000
  Si  Si2       1.0  0.73300  0.25000  0.37100  1.0000
  Si  Si3       1.0  0.26700  0.75000  0.62900  1.0000
  Si  Si4       1.0  0.76700  0.75000  0.87100  1.0000
