data_image0
_chemical_formula_structural       Ge3Mn3Pd3
_chemical_formula_sum              "Ge3 Mn3 Pd3"
_cell_length_a       6.80077
_cell_length_b       6.80313
_cell_length_c       3.59623
_cell_angle_alpha    90
_cell_angle_beta     90
_cell_angle_gamma    119.999

_space_group_name_H-M_alt    "P 1"
_space_group_IT_number       1

loop_
  _space_group_symop_operation_xyz
  'x, y, z'

loop_
  _atom_site_type_symbol
  _atom_site_label
  _atom_site_symmetry_multiplicity
  _atom_site_fract_x
  _atom_site_fract_y
  _atom_site_fract_z
  _atom_site_occupancy
  Ge  Ge1       1.0  0.66700  0.33300  0.00000  1.0000
  Ge  Ge2       1.0  0.33400  0.66700  0.00000  1.0000
  Ge  Ge3       1.0  0.00000  0.00000  0.50000  1.0000
  Mn  Mn1       1.0  0.40400  0.40400  0.50000  1.0000
  Mn  Mn2       1.0  0.00008  0.59600  0.50000  1.0000
  Mn  Mn3       1.0  0.59600  0.00000  0.50000  1.0000
  Pd  Pd1       1.0  0.00000  0.26500  0.00000  1.0000
  Pd  Pd2       1.0  0.73500  0.73500  0.00000  1.0000
  Pd  Pd3       1.0  0.26500  0.00000  0.00000  1.0000
