data_image0
_chemical_formula_structural       Ni3Pd3Si3
_chemical_formula_sum              "Ni3 Pd3 Si3"
_cell_length_a       6.18315
_cell_length_b       6.18315
_cell_length_c       3.44659
_cell_angle_alpha    90
_cell_angle_beta     90
_cell_angle_gamma    120.003

_space_group_name_H-M_alt    "P 1"
_space_group_IT_number       1

loop_
  _space_group_symop_operation_xyz
  'x, y, z'

loop_
  _atom_site_type_symbol
  _atom_site_label
  _atom_site_symmetry_multiplicity
  _atom_site_fract_x
  _atom_site_fract_y
  _atom_site_fract_z
  _atom_site_occupancy
  Ni  Ni1       1.0  0.25500  0.00000  0.00000  1.0000
  Ni  Ni2       1.0  0.00000  0.25500  0.00000  1.0000
  Ni  Ni3       1.0  0.74500  0.74500  0.00000  1.0000
  Pd  Pd1       1.0  0.60100  0.00000  0.50000  1.0000
  Pd  Pd2       1.0  0.39900  0.39900  0.50000  1.0000
  Pd  Pd3       1.0  0.00000  0.60100  0.50000  1.0000
  Si  Si1       1.0  0.66700  0.33300  0.00000  1.0000
  Si  Si2       1.0  0.33300  0.66700  0.00000  1.0000
  Si  Si3       1.0  0.00001  0.00001  0.50000  1.0000
