data_image0
_chemical_formula_structural       Ba2Te6
_chemical_formula_sum              "Ba2 Te6"
_cell_length_a       8.03506
_cell_length_b       8.03506
_cell_length_c       4.44562
_cell_angle_alpha    90
_cell_angle_beta     90
_cell_angle_gamma    90

_space_group_name_H-M_alt    "P 1"
_space_group_IT_number       1

loop_
  _space_group_symop_operation_xyz
  'x, y, z'

loop_
  _atom_site_type_symbol
  _atom_site_label
  _atom_site_symmetry_multiplicity
  _atom_site_fract_x
  _atom_site_fract_y
  _atom_site_fract_z
  _atom_site_occupancy
  Ba  Ba1       1.0  0.00000  0.00000  0.00000  1.0000
  Ba  Ba2       1.0  0.50000  0.50000  0.00000  1.0000
  Te  Te1       1.0  0.00000  0.50000  0.11900  1.0000
  Te  Te2       1.0  0.29900  0.20100  0.49800  1.0000
  Te  Te3       1.0  0.70100  0.79900  0.49800  1.0000
  Te  Te4       1.0  0.79900  0.29900  0.50200  1.0000
  Te  Te5       1.0  0.20100  0.70100  0.50200  1.0000
  Te  Te6       1.0  0.50000  0.00000  0.88100  1.0000
