data_image0
_chemical_formula_structural       B12Mg4Ni28
_chemical_formula_sum              "B12 Mg4 Ni28"
_cell_length_a       9.38224
_cell_length_b       7.48764
_cell_length_c       7.48764
_cell_angle_alpha    90
_cell_angle_beta     113.518
_cell_angle_gamma    113.518

_space_group_name_H-M_alt    "P 1"
_space_group_IT_number       1

loop_
  _space_group_symop_operation_xyz
  'x, y, z'

loop_
  _atom_site_type_symbol
  _atom_site_label
  _atom_site_symmetry_multiplicity
  _atom_site_fract_x
  _atom_site_fract_y
  _atom_site_fract_z
  _atom_site_occupancy
  B   B1        1.0  0.00000  0.29000  0.00000  1.0000
  B   B2        1.0  0.00000  0.71000  0.00000  1.0000
  B   B3        1.0  0.63300  0.81600  0.06640  1.0000
  B   B4        1.0  0.86700  0.93400  0.18400  1.0000
  B   B5        1.0  0.50000  0.00000  0.29000  1.0000
  B   B6        1.0  0.50000  0.50000  0.29000  1.0000
  B   B7        1.0  0.00000  0.29000  0.50000  1.0000
  B   B8        1.0  0.00000  0.71000  0.50000  1.0000
  B   B9        1.0  0.50000  0.00000  0.71000  1.0000
  B   B10       1.0  0.50000  0.50000  0.71000  1.0000
  B   B11       1.0  0.13300  0.06640  0.81600  1.0000
  B   B12       1.0  0.36700  0.18400  0.93400  1.0000
  Mg  Mg1       1.0  0.82100  0.41100  0.16100  1.0000
  Mg  Mg2       1.0  0.32100  0.16100  0.41100  1.0000
  Mg  Mg3       1.0  0.67900  0.83900  0.58900  1.0000
  Mg  Mg4       1.0  0.17900  0.58900  0.83900  1.0000
  Ni  Ni1       1.0  0.50000  0.00000  0.00000  1.0000
  Ni  Ni2       1.0  0.50000  0.50000  0.00000  1.0000
  Ni  Ni3       1.0  0.00000  0.00000  0.00000  1.0000
  Ni  Ni4       1.0  0.25000  0.31500  0.06470  1.0000
  Ni  Ni5       1.0  0.25000  0.93500  0.06470  1.0000
  Ni  Ni6       1.0  0.13700  0.56900  0.15400  1.0000
  Ni  Ni7       1.0  0.45400  0.72700  0.18900  1.0000
  Ni  Ni8       1.0  0.54600  0.27300  0.23500  1.0000
  Ni  Ni9       1.0  0.04640  0.23500  0.27300  1.0000
  Ni  Ni10      1.0  0.04640  0.81100  0.27300  1.0000
  Ni  Ni11      1.0  0.75000  0.06470  0.31500  1.0000
  Ni  Ni12      1.0  0.75000  0.68500  0.31500  1.0000
  Ni  Ni13      1.0  0.36300  0.51600  0.43100  1.0000
  Ni  Ni14      1.0  0.36300  0.84600  0.43100  1.0000
  Ni  Ni15      1.0  0.13700  0.56900  0.48400  1.0000
  Ni  Ni16      1.0  0.00000  0.00000  0.50000  1.0000
  Ni  Ni17      1.0  0.86300  0.43100  0.51600  1.0000
  Ni  Ni18      1.0  0.63700  0.15400  0.56900  1.0000
  Ni  Ni19      1.0  0.63700  0.48400  0.56900  1.0000
  Ni  Ni20      1.0  0.25000  0.31500  0.68500  1.0000
  Ni  Ni21      1.0  0.25000  0.93500  0.68500  1.0000
  Ni  Ni22      1.0  0.95400  0.18900  0.72700  1.0000
  Ni  Ni23      1.0  0.95400  0.76500  0.72700  1.0000
  Ni  Ni24      1.0  0.45400  0.72700  0.76500  1.0000
  Ni  Ni25      1.0  0.54600  0.27300  0.81100  1.0000
  Ni  Ni26      1.0  0.86300  0.43100  0.84600  1.0000
  Ni  Ni27      1.0  0.75000  0.06470  0.93500  1.0000
  Ni  Ni28      1.0  0.75000  0.68500  0.93500  1.0000
