data_image0
_chemical_formula_structural       Ge4Lu4Pt4
_chemical_formula_sum              "Ge4 Lu4 Pt4"
_cell_length_a       6.8774
_cell_length_b       4.33405
_cell_length_c       7.57487
_cell_angle_alpha    90
_cell_angle_beta     90
_cell_angle_gamma    90

_space_group_name_H-M_alt    "P 1"
_space_group_IT_number       1

loop_
  _space_group_symop_operation_xyz
  'x, y, z'

loop_
  _atom_site_type_symbol
  _atom_site_label
  _atom_site_symmetry_multiplicity
  _atom_site_fract_x
  _atom_site_fract_y
  _atom_site_fract_z
  _atom_site_occupancy
  Ge  Ge1       1.0  0.19300  0.25000  0.09000  1.0000
  Ge  Ge2       1.0  0.69300  0.25000  0.41000  1.0000
  Ge  Ge3       1.0  0.30700  0.75000  0.59000  1.0000
  Ge  Ge4       1.0  0.80700  0.75000  0.91000  1.0000
  Lu  Lu1       1.0  0.49800  0.75000  0.20400  1.0000
  Lu  Lu2       1.0  0.99800  0.75000  0.29600  1.0000
  Lu  Lu3       1.0  0.00205  0.25000  0.70400  1.0000
  Lu  Lu4       1.0  0.50200  0.25000  0.79600  1.0000
  Pt  Pt1       1.0  0.79500  0.25000  0.08380  1.0000
  Pt  Pt2       1.0  0.29500  0.25000  0.41600  1.0000
  Pt  Pt3       1.0  0.70500  0.75000  0.58400  1.0000
  Pt  Pt4       1.0  0.20500  0.75000  0.91600  1.0000
