data_image0
_chemical_formula_structural       Ge4Lu4Ru4
_chemical_formula_sum              "Ge4 Lu4 Ru4"
_cell_length_a       6.90648
_cell_length_b       4.3311
_cell_length_c       7.27376
_cell_angle_alpha    90
_cell_angle_beta     90
_cell_angle_gamma    90

_space_group_name_H-M_alt    "P 1"
_space_group_IT_number       1

loop_
  _space_group_symop_operation_xyz
  'x, y, z'

loop_
  _atom_site_type_symbol
  _atom_site_label
  _atom_site_symmetry_multiplicity
  _atom_site_fract_x
  _atom_site_fract_y
  _atom_site_fract_z
  _atom_site_occupancy
  Ge  Ge1       1.0  0.70700  0.75000  0.11000  1.0000
  Ge  Ge2       1.0  0.20700  0.75000  0.39000  1.0000
  Ge  Ge3       1.0  0.79300  0.25000  0.61000  1.0000
  Ge  Ge4       1.0  0.29300  0.25000  0.89000  1.0000
  Lu  Lu1       1.0  0.99400  0.25000  0.19200  1.0000
  Lu  Lu2       1.0  0.49400  0.25000  0.30800  1.0000
  Lu  Lu3       1.0  0.50600  0.75000  0.69200  1.0000
  Lu  Lu4       1.0  0.00634  0.75000  0.80800  1.0000
  Ru  Ru1       1.0  0.34200  0.75000  0.06090  1.0000
  Ru  Ru2       1.0  0.84200  0.75000  0.43900  1.0000
  Ru  Ru3       1.0  0.15800  0.25000  0.56100  1.0000
  Ru  Ru4       1.0  0.65800  0.25000  0.93900  1.0000
