data_image0
_chemical_formula_structural       Ag2Lu2Sn2
_chemical_formula_sum              "Ag2 Lu2 Sn2"
_cell_length_a       4.67829
_cell_length_b       4.67813
_cell_length_c       7.25039
_cell_angle_alpha    90
_cell_angle_beta     90
_cell_angle_gamma    120.001

_space_group_name_H-M_alt    "P 1"
_space_group_IT_number       1

loop_
  _space_group_symop_operation_xyz
  'x, y, z'

loop_
  _atom_site_type_symbol
  _atom_site_label
  _atom_site_symmetry_multiplicity
  _atom_site_fract_x
  _atom_site_fract_y
  _atom_site_fract_z
  _atom_site_occupancy
  Ag  Ag1       1.0  0.66700  0.33300  0.18500  1.0000
  Ag  Ag2       1.0  0.33300  0.66700  0.68500  1.0000
  Lu  Lu1       1.0  0.00001  0.00001  0.00002  1.0000
  Lu  Lu2       1.0  0.00000  0.00000  0.50000  1.0000
  Sn  Sn1       1.0  0.33300  0.66700  0.27900  1.0000
  Sn  Sn2       1.0  0.66700  0.33300  0.77900  1.0000
