data_image0
_chemical_formula_structural       H2KO3PS
_chemical_formula_sum              "H2 K1 O3 P1 S1"
_cell_length_a       4.49949
_cell_length_b       4.49949
_cell_length_c       5.81638
_cell_angle_alpha    103.461
_cell_angle_beta     76.5385
_cell_angle_gamma    91.4671

_space_group_name_H-M_alt    "P 1"
_space_group_IT_number       1

loop_
  _space_group_symop_operation_xyz
  'x, y, z'

loop_
  _atom_site_type_symbol
  _atom_site_label
  _atom_site_symmetry_multiplicity
  _atom_site_fract_x
  _atom_site_fract_y
  _atom_site_fract_z
  _atom_site_occupancy
  H   H1        1.0  0.20300  0.16600  0.80900  1.0000
  H   H2        1.0  0.83400  0.79700  0.80900  1.0000
  K   K1        1.0  0.84600  0.15400  0.39200  1.0000
  O   O1        1.0  0.26000  0.34700  0.72300  1.0000
  O   O2        1.0  0.65300  0.74000  0.72300  1.0000
  O   O3        1.0  0.10100  0.89900  0.90400  1.0000
  P   P1        1.0  0.34600  0.65400  0.89000  1.0000
  S   S1        1.0  0.39100  0.60900  0.20900  1.0000
