data_image0
_chemical_formula_structural       In4Lu4Rh4
_chemical_formula_sum              "In4 Lu4 Rh4"
_cell_length_a       6.94247
_cell_length_b       4.16077
_cell_length_c       8.54987
_cell_angle_alpha    90
_cell_angle_beta     90
_cell_angle_gamma    90

_space_group_name_H-M_alt    "P 1"
_space_group_IT_number       1

loop_
  _space_group_symop_operation_xyz
  'x, y, z'

loop_
  _atom_site_type_symbol
  _atom_site_label
  _atom_site_symmetry_multiplicity
  _atom_site_fract_x
  _atom_site_fract_y
  _atom_site_fract_z
  _atom_site_occupancy
  In  In1       1.0  0.64300  0.25000  0.05930  1.0000
  In  In2       1.0  0.14300  0.25000  0.44100  1.0000
  In  In3       1.0  0.85700  0.75000  0.55900  1.0000
  In  In4       1.0  0.35700  0.75000  0.94100  1.0000
  Lu  Lu1       1.0  0.96200  0.75000  0.17500  1.0000
  Lu  Lu2       1.0  0.46200  0.75000  0.32500  1.0000
  Lu  Lu3       1.0  0.53800  0.25000  0.67500  1.0000
  Lu  Lu4       1.0  0.03810  0.25000  0.82500  1.0000
  Rh  Rh1       1.0  0.24400  0.25000  0.13500  1.0000
  Rh  Rh2       1.0  0.74400  0.25000  0.36500  1.0000
  Rh  Rh3       1.0  0.25600  0.75000  0.63500  1.0000
  Rh  Rh4       1.0  0.75600  0.75000  0.86500  1.0000
