data_image0
_chemical_formula_structural       Au2Lu2Si2
_chemical_formula_sum              "Au2 Lu2 Si2"
_cell_length_a       4.31837
_cell_length_b       4.31863
_cell_length_c       7.15227
_cell_angle_alpha    90
_cell_angle_beta     90
_cell_angle_gamma    119.998

_space_group_name_H-M_alt    "P 1"
_space_group_IT_number       1

loop_
  _space_group_symop_operation_xyz
  'x, y, z'

loop_
  _atom_site_type_symbol
  _atom_site_label
  _atom_site_symmetry_multiplicity
  _atom_site_fract_x
  _atom_site_fract_y
  _atom_site_fract_z
  _atom_site_occupancy
  Au  Au1       1.0  0.66700  0.33300  0.22000  1.0000
  Au  Au2       1.0  0.66700  0.33300  0.78000  1.0000
  Lu  Lu1       1.0  0.00000  0.00000  0.00000  1.0000
  Lu  Lu2       1.0  0.00000  0.00000  0.50000  1.0000
  Si  Si1       1.0  0.33300  0.66700  0.28800  1.0000
  Si  Si2       1.0  0.33300  0.66700  0.71200  1.0000
