data_image0
_chemical_formula_structural       Ge6Lu6Pd6
_chemical_formula_sum              "Ge6 Lu6 Pd6"
_cell_length_a       4.35626
_cell_length_b       7.58443
_cell_length_c       11.1656
_cell_angle_alpha    109.854
_cell_angle_beta     101.249
_cell_angle_gamma    90

_space_group_name_H-M_alt    "P 1"
_space_group_IT_number       1

loop_
  _space_group_symop_operation_xyz
  'x, y, z'

loop_
  _atom_site_type_symbol
  _atom_site_label
  _atom_site_symmetry_multiplicity
  _atom_site_fract_x
  _atom_site_fract_y
  _atom_site_fract_z
  _atom_site_occupancy
  Ge  Ge1       1.0  0.06590  0.21800  0.13200  1.0000
  Ge  Ge2       1.0  0.59300  0.74600  0.18500  1.0000
  Ge  Ge3       1.0  0.23700  0.07710  0.47400  1.0000
  Ge  Ge4       1.0  0.76300  0.60300  0.52600  1.0000
  Ge  Ge5       1.0  0.40700  0.56100  0.81500  1.0000
  Ge  Ge6       1.0  0.93400  0.08610  0.86800  1.0000
  Lu  Lu1       1.0  0.00000  0.53400  0.00000  1.0000
  Lu  Lu2       1.0  0.50000  0.95200  0.00000  1.0000
  Lu  Lu3       1.0  0.16700  0.62500  0.33300  1.0000
  Lu  Lu4       1.0  0.66700  0.20300  0.33400  1.0000
  Lu  Lu5       1.0  0.33300  0.86900  0.66600  1.0000
  Lu  Lu6       1.0  0.83300  0.29100  0.66700  1.0000
  Pd  Pd1       1.0  0.57300  0.39500  0.14500  1.0000
  Pd  Pd2       1.0  0.10500  0.93100  0.20900  1.0000
  Pd  Pd3       1.0  0.73200  0.89900  0.46300  1.0000
  Pd  Pd4       1.0  0.26800  0.43600  0.53700  1.0000
  Pd  Pd5       1.0  0.89500  0.72200  0.79100  1.0000
  Pd  Pd6       1.0  0.42700  0.25000  0.85500  1.0000
