data_image0
_chemical_formula_structural       B4Co4Re4
_chemical_formula_sum              "B4 Co4 Re4"
_cell_length_a       5.61351
_cell_length_b       3.27992
_cell_length_c       6.48954
_cell_angle_alpha    90
_cell_angle_beta     90
_cell_angle_gamma    90

_space_group_name_H-M_alt    "P 1"
_space_group_IT_number       1

loop_
  _space_group_symop_operation_xyz
  'x, y, z'

loop_
  _atom_site_type_symbol
  _atom_site_label
  _atom_site_symmetry_multiplicity
  _atom_site_fract_x
  _atom_site_fract_y
  _atom_site_fract_z
  _atom_site_occupancy
  B   B1        1.0  0.73200  0.75000  0.12500  1.0000
  B   B2        1.0  0.23200  0.75000  0.37500  1.0000
  B   B3        1.0  0.76800  0.25000  0.62500  1.0000
  B   B4        1.0  0.26800  0.25000  0.87500  1.0000
  Co  Co1       1.0  0.35400  0.75000  0.05580  1.0000
  Co  Co2       1.0  0.85400  0.75000  0.44400  1.0000
  Co  Co3       1.0  0.14600  0.25000  0.55600  1.0000
  Co  Co4       1.0  0.64600  0.25000  0.94400  1.0000
  Re  Re1       1.0  0.02850  0.25000  0.17200  1.0000
  Re  Re2       1.0  0.52900  0.25000  0.32800  1.0000
  Re  Re3       1.0  0.47100  0.75000  0.67200  1.0000
  Re  Re4       1.0  0.97100  0.75000  0.82800  1.0000
