data_image0
_chemical_formula_structural       B4Ir4Pd4
_chemical_formula_sum              "B4 Ir4 Pd4"
_cell_length_a       5.54218
_cell_length_b       5.54218
_cell_length_c       6.12122
_cell_angle_alpha    109.301
_cell_angle_beta     109.301
_cell_angle_gamma    105.657

_space_group_name_H-M_alt    "P 1"
_space_group_IT_number       1

loop_
  _space_group_symop_operation_xyz
  'x, y, z'

loop_
  _atom_site_type_symbol
  _atom_site_label
  _atom_site_symmetry_multiplicity
  _atom_site_fract_x
  _atom_site_fract_y
  _atom_site_fract_z
  _atom_site_occupancy
  B   B1        1.0  0.34700  0.72800  0.03180  1.0000
  B   B2        1.0  0.06520  0.94600  0.46800  1.0000
  B   B3        1.0  0.47800  0.59700  0.53200  1.0000
  B   B4        1.0  0.69600  0.31500  0.96800  1.0000
  Ir  Ir1       1.0  0.13300  0.60400  0.23500  1.0000
  Ir  Ir2       1.0  0.64800  0.61900  0.26500  1.0000
  Ir  Ir3       1.0  0.35400  0.38300  0.73500  1.0000
  Ir  Ir4       1.0  0.36900  0.89800  0.76500  1.0000
  Pd  Pd1       1.0  0.29100  0.11900  0.23200  1.0000
  Pd  Pd2       1.0  0.80900  0.13700  0.26800  1.0000
  Pd  Pd3       1.0  0.86900  0.54100  0.73200  1.0000
  Pd  Pd4       1.0  0.88700  0.05870  0.76800  1.0000
