data_image0
_chemical_formula_structural       B4Cu4Ir4
_chemical_formula_sum              "B4 Cu4 Ir4"
_cell_length_a       5.46527
_cell_length_b       5.46527
_cell_length_c       5.99542
_cell_angle_alpha    109.212
_cell_angle_beta     109.212
_cell_angle_gamma    106.143

_space_group_name_H-M_alt    "P 1"
_space_group_IT_number       1

loop_
  _space_group_symop_operation_xyz
  'x, y, z'

loop_
  _atom_site_type_symbol
  _atom_site_label
  _atom_site_symmetry_multiplicity
  _atom_site_fract_x
  _atom_site_fract_y
  _atom_site_fract_z
  _atom_site_occupancy
  B   B1        1.0  0.34900  0.72900  0.03280  1.0000
  B   B2        1.0  0.06570  0.94600  0.46700  1.0000
  B   B3        1.0  0.47900  0.59900  0.53300  1.0000
  B   B4        1.0  0.69600  0.31600  0.96700  1.0000
  Cu  Cu1       1.0  0.29100  0.11700  0.23000  1.0000
  Cu  Cu2       1.0  0.81100  0.13800  0.27000  1.0000
  Cu  Cu3       1.0  0.86700  0.54100  0.73000  1.0000
  Cu  Cu4       1.0  0.88800  0.06140  0.77000  1.0000
  Ir  Ir1       1.0  0.12800  0.59900  0.22600  1.0000
  Ir  Ir2       1.0  0.65200  0.62300  0.27400  1.0000
  Ir  Ir3       1.0  0.34900  0.37800  0.72600  1.0000
  Ir  Ir4       1.0  0.37300  0.90200  0.77400  1.0000
