data_image0
_chemical_formula_structural       B3Fe3Nb3
_chemical_formula_sum              "B3 Fe3 Nb3"
_cell_length_a       6.2919
_cell_length_b       6.29219
_cell_length_c       3.10775
_cell_angle_alpha    90
_cell_angle_beta     90
_cell_angle_gamma    119.957

_space_group_name_H-M_alt    "P 1"
_space_group_IT_number       1

loop_
  _space_group_symop_operation_xyz
  'x, y, z'

loop_
  _atom_site_type_symbol
  _atom_site_label
  _atom_site_symmetry_multiplicity
  _atom_site_fract_x
  _atom_site_fract_y
  _atom_site_fract_z
  _atom_site_occupancy
  B   B1        1.0  0.66700  0.33300  0.50000  1.0000
  B   B2        1.0  0.33300  0.66700  0.50000  1.0000
  B   B3        1.0  0.00000  0.00000  0.50000  1.0000
  Fe  Fe1       1.0  0.30300  0.00023  0.50000  1.0000
  Fe  Fe2       1.0  0.00024  0.30300  0.50000  1.0000
  Fe  Fe3       1.0  0.69700  0.69700  0.50000  1.0000
  Nb  Nb1       1.0  0.61400  0.00005  0.00000  1.0000
  Nb  Nb2       1.0  0.38600  0.38600  0.00000  1.0000
  Nb  Nb3       1.0  0.00005  0.61400  0.00000  1.0000
