data_image0
_chemical_formula_structural       AlI2Pd5
_chemical_formula_sum              "Al1 I2 Pd5"
_cell_length_a       4.08254
_cell_length_b       4.08254
_cell_length_c       10.2772
_cell_angle_alpha    101.456
_cell_angle_beta     101.456
_cell_angle_gamma    90

_space_group_name_H-M_alt    "P 1"
_space_group_IT_number       1

loop_
  _space_group_symop_operation_xyz
  'x, y, z'

loop_
  _atom_site_type_symbol
  _atom_site_label
  _atom_site_symmetry_multiplicity
  _atom_site_fract_x
  _atom_site_fract_y
  _atom_site_fract_z
  _atom_site_occupancy
  Al  Al1       1.0  0.50000  0.50000  0.00000  1.0000
  I   I1        1.0  0.18300  0.18300  0.36600  1.0000
  I   I2        1.0  0.81700  0.81700  0.63400  1.0000
  Pd  Pd1       1.0  0.00000  0.00000  0.00000  1.0000
  Pd  Pd2       1.0  0.58900  0.08910  0.17800  1.0000
  Pd  Pd3       1.0  0.08910  0.58900  0.17800  1.0000
  Pd  Pd4       1.0  0.91100  0.41100  0.82200  1.0000
  Pd  Pd5       1.0  0.41100  0.91100  0.82200  1.0000
