data_image0
_chemical_formula_structural       La4Sn4Zn4
_chemical_formula_sum              "La4 Sn4 Zn4"
_cell_length_a       4.61881
_cell_length_b       4.61913
_cell_length_c       17.0501
_cell_angle_alpha    90
_cell_angle_beta     90
_cell_angle_gamma    119.998

_space_group_name_H-M_alt    "P 1"
_space_group_IT_number       1

loop_
  _space_group_symop_operation_xyz
  'x, y, z'

loop_
  _atom_site_type_symbol
  _atom_site_label
  _atom_site_symmetry_multiplicity
  _atom_site_fract_x
  _atom_site_fract_y
  _atom_site_fract_z
  _atom_site_occupancy
  La  La1       1.0  0.00000  0.00000  0.00000  1.0000
  La  La2       1.0  0.00000  0.00000  0.25000  1.0000
  La  La3       1.0  0.00000  0.00000  0.50000  1.0000
  La  La4       1.0  0.00003  0.00006  0.75000  1.0000
  Sn  Sn1       1.0  0.66600  0.33300  0.11600  1.0000
  Sn  Sn2       1.0  0.66600  0.33300  0.38400  1.0000
  Sn  Sn3       1.0  0.33400  0.66700  0.61600  1.0000
  Sn  Sn4       1.0  0.33400  0.66700  0.88400  1.0000
  Zn  Zn1       1.0  0.33300  0.66600  0.15500  1.0000
  Zn  Zn2       1.0  0.33300  0.66600  0.34500  1.0000
  Zn  Zn3       1.0  0.66700  0.33400  0.65500  1.0000
  Zn  Zn4       1.0  0.66700  0.33400  0.84500  1.0000
