data_image0
_chemical_formula_structural       La8Rh8Zn8
_chemical_formula_sum              "La8 Rh8 Zn8"
_cell_length_a       7.42913
_cell_length_b       4.06176
_cell_length_c       16.58
_cell_angle_alpha    90
_cell_angle_beta     90
_cell_angle_gamma    90

_space_group_name_H-M_alt    "P 1"
_space_group_IT_number       1

loop_
  _space_group_symop_operation_xyz
  'x, y, z'

loop_
  _atom_site_type_symbol
  _atom_site_label
  _atom_site_symmetry_multiplicity
  _atom_site_fract_x
  _atom_site_fract_y
  _atom_site_fract_z
  _atom_site_occupancy
  La  La1       1.0  0.17000  0.25000  0.05980  1.0000
  La  La2       1.0  0.54600  0.25000  0.21700  1.0000
  La  La3       1.0  0.04650  0.25000  0.28300  1.0000
  La  La4       1.0  0.67000  0.25000  0.44000  1.0000
  La  La5       1.0  0.33000  0.75000  0.56000  1.0000
  La  La6       1.0  0.95400  0.75000  0.71700  1.0000
  La  La7       1.0  0.45400  0.75000  0.78300  1.0000
  La  La8       1.0  0.83000  0.75000  0.94000  1.0000
  Rh  Rh1       1.0  0.74100  0.25000  0.06540  1.0000
  Rh  Rh2       1.0  0.25100  0.75000  0.18500  1.0000
  Rh  Rh3       1.0  0.75100  0.75000  0.31500  1.0000
  Rh  Rh4       1.0  0.24100  0.25000  0.43500  1.0000
  Rh  Rh5       1.0  0.75900  0.75000  0.56500  1.0000
  Rh  Rh6       1.0  0.24900  0.25000  0.68500  1.0000
  Rh  Rh7       1.0  0.74900  0.25000  0.81500  1.0000
  Rh  Rh8       1.0  0.25900  0.75000  0.93500  1.0000
  Zn  Zn1       1.0  0.50200  0.75000  0.06000  1.0000
  Zn  Zn2       1.0  0.87100  0.75000  0.14900  1.0000
  Zn  Zn3       1.0  0.37100  0.75000  0.35100  1.0000
  Zn  Zn4       1.0  0.00168  0.75000  0.44000  1.0000
  Zn  Zn5       1.0  0.99800  0.25000  0.56000  1.0000
  Zn  Zn6       1.0  0.62900  0.25000  0.64900  1.0000
  Zn  Zn7       1.0  0.12900  0.25000  0.85100  1.0000
  Zn  Zn8       1.0  0.49800  0.25000  0.94000  1.0000
