data_image0
_chemical_formula_structural       Cs12K14
_chemical_formula_sum              "Cs12 K14"
_cell_length_a       9.07055
_cell_length_b       9.0704
_cell_length_c       32.8742
_cell_angle_alpha    90.0013
_cell_angle_beta     89.9992
_cell_angle_gamma    120.007

_space_group_name_H-M_alt    "P 1"
_space_group_IT_number       1

loop_
  _space_group_symop_operation_xyz
  'x, y, z'

loop_
  _atom_site_type_symbol
  _atom_site_label
  _atom_site_symmetry_multiplicity
  _atom_site_fract_x
  _atom_site_fract_y
  _atom_site_fract_z
  _atom_site_occupancy
  Cs  Cs1       1.0  0.33300  0.66700  0.82100  1.0000
  Cs  Cs2       1.0  0.66700  0.33300  0.32200  1.0000
  Cs  Cs3       1.0  0.66700  0.33300  0.17800  1.0000
  Cs  Cs4       1.0  0.33300  0.66700  0.67800  1.0000
  Cs  Cs5       1.0  0.33300  0.66700  0.25000  1.0000
  Cs  Cs6       1.0  0.66700  0.33300  0.75000  1.0000
  Cs  Cs7       1.0  0.33300  0.66700  0.97700  1.0000
  Cs  Cs8       1.0  0.66700  0.33300  0.47700  1.0000
  Cs  Cs9       1.0  0.66700  0.33300  0.02290  1.0000
  Cs  Cs10      1.0  0.33300  0.66700  0.52300  1.0000
  Cs  Cs11      1.0  0.00000  0.00000  0.25000  1.0000
  Cs  Cs12      1.0  0.00001  0.00000  0.75000  1.0000
  K   K1        1.0  0.16700  0.33400  0.11500  1.0000
  K   K2        1.0  0.83300  0.66600  0.61500  1.0000
  K   K3        1.0  0.66600  0.83300  0.11500  1.0000
  K   K4        1.0  0.16700  0.83300  0.11500  1.0000
  K   K5        1.0  0.83300  0.16700  0.61500  1.0000
  K   K6        1.0  0.33400  0.16700  0.61500  1.0000
  K   K7        1.0  0.83300  0.66600  0.88500  1.0000
  K   K8        1.0  0.83300  0.16700  0.88500  1.0000
  K   K9        1.0  0.33400  0.16700  0.88500  1.0000
  K   K10       1.0  0.66600  0.83300  0.38500  1.0000
  K   K11       1.0  0.16700  0.83300  0.38500  1.0000
  K   K12       1.0  0.16700  0.33400  0.38500  1.0000
  K   K13       1.0  0.00000  0.00000  0.00001  1.0000
  K   K14       1.0  0.00000  0.00000  0.50000  1.0000
