data_image0
_chemical_formula_structural       Li2O4Tl2
_chemical_formula_sum              "Li2 O4 Tl2"
_cell_length_a       4.56702
_cell_length_b       4.56702
_cell_length_c       5.59335
_cell_angle_alpha    114.095
_cell_angle_beta     114.095
_cell_angle_gamma    90

_space_group_name_H-M_alt    "P 1"
_space_group_IT_number       1

loop_
  _space_group_symop_operation_xyz
  'x, y, z'

loop_
  _atom_site_type_symbol
  _atom_site_label
  _atom_site_symmetry_multiplicity
  _atom_site_fract_x
  _atom_site_fract_y
  _atom_site_fract_z
  _atom_site_occupancy
  Li  Li1       1.0  0.50000  0.50000  0.00000  1.0000
  Li  Li2       1.0  0.75000  0.25000  0.50000  1.0000
  O   O1        1.0  0.49900  0.99900  0.99800  1.0000
  O   O2        1.0  0.00117  0.50100  0.00235  1.0000
  O   O3        1.0  0.24900  0.24900  0.49800  1.0000
  O   O4        1.0  0.75100  0.75100  0.50200  1.0000
  Tl  Tl1       1.0  0.00000  0.00000  0.00000  1.0000
  Tl  Tl2       1.0  0.25000  0.75000  0.50000  1.0000
