data_image0
_chemical_formula_structural       Co14Er24
_chemical_formula_sum              "Co14 Er24"
_cell_length_a       8.11445
_cell_length_b       10.9523
_cell_length_c       13.4654
_cell_angle_alpha    90
_cell_angle_beta     138.51
_cell_angle_gamma    90

_space_group_name_H-M_alt    "P 1"
_space_group_IT_number       1

loop_
  _space_group_symop_operation_xyz
  'x, y, z'

loop_
  _atom_site_type_symbol
  _atom_site_label
  _atom_site_symmetry_multiplicity
  _atom_site_fract_x
  _atom_site_fract_y
  _atom_site_fract_z
  _atom_site_occupancy
  Co  Co1       1.0  0.21300  0.19400  0.15400  1.0000
  Co  Co2       1.0  0.21300  0.30600  0.65400  1.0000
  Co  Co3       1.0  0.78700  0.80600  0.84600  1.0000
  Co  Co4       1.0  0.50000  0.00000  0.00000  1.0000
  Co  Co5       1.0  0.50000  0.50000  0.50000  1.0000
  Co  Co6       1.0  0.78700  0.69400  0.34600  1.0000
  Co  Co7       1.0  0.98300  0.66300  0.03560  1.0000
  Co  Co8       1.0  0.01700  0.16300  0.46400  1.0000
  Co  Co9       1.0  0.01700  0.33700  0.96400  1.0000
  Co  Co10      1.0  0.98300  0.83700  0.53600  1.0000
  Co  Co11      1.0  0.68700  0.40400  0.09810  1.0000
  Co  Co12      1.0  0.31300  0.90400  0.40200  1.0000
  Co  Co13      1.0  0.31300  0.59600  0.90200  1.0000
  Co  Co14      1.0  0.68700  0.09600  0.59800  1.0000
  Er  Er1       1.0  0.94800  0.92800  0.08710  1.0000
  Er  Er2       1.0  0.05240  0.42800  0.41300  1.0000
  Er  Er3       1.0  0.05240  0.07240  0.91300  1.0000
  Er  Er4       1.0  0.94800  0.57200  0.58700  1.0000
  Er  Er5       1.0  0.59600  0.30000  0.67200  1.0000
  Er  Er6       1.0  0.40400  0.80000  0.82800  1.0000
  Er  Er7       1.0  0.40400  0.70000  0.32800  1.0000
  Er  Er8       1.0  0.59600  0.20000  0.17200  1.0000
  Er  Er9       1.0  0.87500  0.92900  0.30000  1.0000
  Er  Er10      1.0  0.12500  0.42900  0.20000  1.0000
  Er  Er11      1.0  0.12500  0.07120  0.70000  1.0000
  Er  Er12      1.0  0.87500  0.57100  0.80000  1.0000
  Er  Er13      1.0  0.56000  0.49500  0.85300  1.0000
  Er  Er14      1.0  0.44000  0.99500  0.64700  1.0000
  Er  Er15      1.0  0.44000  0.50500  0.14700  1.0000
  Er  Er16      1.0  0.56000  0.00498  0.35300  1.0000
  Er  Er17      1.0  0.82000  0.65800  0.16000  1.0000
  Er  Er18      1.0  0.18000  0.15800  0.34000  1.0000
  Er  Er19      1.0  0.18000  0.34200  0.84000  1.0000
  Er  Er20      1.0  0.82000  0.84200  0.66000  1.0000
  Er  Er21      1.0  0.68900  0.20500  0.96100  1.0000
  Er  Er22      1.0  0.31100  0.70500  0.53900  1.0000
  Er  Er23      1.0  0.31100  0.79500  0.03870  1.0000
  Er  Er24      1.0  0.68900  0.29500  0.46100  1.0000
