data_image0
_chemical_formula_structural       C4RuSc3
_chemical_formula_sum              "C4 Ru1 Sc3"
_cell_length_a       3.32178
_cell_length_b       4.50116
_cell_length_c       6.80992
_cell_angle_alpha    109.298
_cell_angle_beta     104.116
_cell_angle_gamma    90

_space_group_name_H-M_alt    "P 1"
_space_group_IT_number       1

loop_
  _space_group_symop_operation_xyz
  'x, y, z'

loop_
  _atom_site_type_symbol
  _atom_site_label
  _atom_site_symmetry_multiplicity
  _atom_site_fract_x
  _atom_site_fract_y
  _atom_site_fract_z
  _atom_site_occupancy
  C   C1        1.0  0.62900  0.47000  0.25800  1.0000
  C   C2        1.0  0.62900  0.78800  0.25800  1.0000
  C   C3        1.0  0.37100  0.21200  0.74200  1.0000
  C   C4        1.0  0.37100  0.53000  0.74200  1.0000
  Ru  Ru1       1.0  0.50000  0.00000  0.00000  1.0000
  Sc  Sc1       1.0  0.00000  0.50000  0.00000  1.0000
  Sc  Sc2       1.0  0.19000  0.19000  0.38000  1.0000
  Sc  Sc3       1.0  0.81000  0.81000  0.62000  1.0000
