data_image0
_chemical_formula_structural       In4Rh2Sr2
_chemical_formula_sum              "In4 Rh2 Sr2"
_cell_length_a       4.40674
_cell_length_b       5.91482
_cell_length_c       8.04398
_cell_angle_alpha    90
_cell_angle_beta     90
_cell_angle_gamma    68.1291

_space_group_name_H-M_alt    "P 1"
_space_group_IT_number       1

loop_
  _space_group_symop_operation_xyz
  'x, y, z'

loop_
  _atom_site_type_symbol
  _atom_site_label
  _atom_site_symmetry_multiplicity
  _atom_site_fract_x
  _atom_site_fract_y
  _atom_site_fract_z
  _atom_site_occupancy
  In  In1       1.0  0.65500  0.69000  0.05390  1.0000
  In  In2       1.0  0.65500  0.69000  0.44600  1.0000
  In  In3       1.0  0.34500  0.31000  0.55400  1.0000
  In  In4       1.0  0.34500  0.31000  0.94600  1.0000
  Rh  Rh1       1.0  0.21800  0.56300  0.25000  1.0000
  Rh  Rh2       1.0  0.78200  0.43700  0.75000  1.0000
  Sr  Sr1       1.0  0.94100  0.11900  0.25000  1.0000
  Sr  Sr2       1.0  0.05950  0.88100  0.75000  1.0000
