data_image0
_chemical_formula_structural       Cl18Mn6Rb6
_chemical_formula_sum              "Cl18 Mn6 Rb6"
_cell_length_a       7.05726
_cell_length_b       7.05732
_cell_length_c       17.6282
_cell_angle_alpha    90.0029
_cell_angle_beta     90.0029
_cell_angle_gamma    120.074

_space_group_name_H-M_alt    "P 1"
_space_group_IT_number       1

loop_
  _space_group_symop_operation_xyz
  'x, y, z'

loop_
  _atom_site_type_symbol
  _atom_site_label
  _atom_site_symmetry_multiplicity
  _atom_site_fract_x
  _atom_site_fract_y
  _atom_site_fract_z
  _atom_site_occupancy
  Cl  Cl1       1.0  0.16600  0.83400  0.08300  1.0000
  Cl  Cl2       1.0  0.83400  0.16600  0.58300  1.0000
  Cl  Cl3       1.0  0.16600  0.33200  0.08300  1.0000
  Cl  Cl4       1.0  0.66800  0.83400  0.08300  1.0000
  Cl  Cl5       1.0  0.33200  0.16600  0.58300  1.0000
  Cl  Cl6       1.0  0.83400  0.66800  0.58300  1.0000
  Cl  Cl7       1.0  0.33200  0.16600  0.91700  1.0000
  Cl  Cl8       1.0  0.83400  0.66800  0.91700  1.0000
  Cl  Cl9       1.0  0.83400  0.16600  0.91700  1.0000
  Cl  Cl10      1.0  0.16600  0.83400  0.41700  1.0000
  Cl  Cl11      1.0  0.16600  0.33200  0.41700  1.0000
  Cl  Cl12      1.0  0.66800  0.83400  0.41700  1.0000
  Cl  Cl13      1.0  0.49800  0.50300  0.25000  1.0000
  Cl  Cl14      1.0  0.50300  0.49800  0.75000  1.0000
  Cl  Cl15      1.0  0.49800  0.99500  0.25000  1.0000
  Cl  Cl16      1.0  0.00497  0.50200  0.25000  1.0000
  Cl  Cl17      1.0  0.99500  0.49800  0.75000  1.0000
  Cl  Cl18      1.0  0.50200  0.00497  0.75000  1.0000
  Mn  Mn1       1.0  0.33300  0.66700  0.16300  1.0000
  Mn  Mn2       1.0  0.66700  0.33300  0.66300  1.0000
  Mn  Mn3       1.0  0.66700  0.33300  0.83700  1.0000
  Mn  Mn4       1.0  0.33300  0.66700  0.33700  1.0000
  Mn  Mn5       1.0  0.00000  0.00000  1.00000  1.0000
  Mn  Mn6       1.0  0.00000  0.00000  0.50000  1.0000
  Rb  Rb1       1.0  0.00024  0.00010  0.25000  1.0000
  Rb  Rb2       1.0  0.00012  0.00023  0.75000  1.0000
  Rb  Rb3       1.0  0.33300  0.66700  0.91600  1.0000
  Rb  Rb4       1.0  0.66700  0.33300  0.41600  1.0000
  Rb  Rb5       1.0  0.66700  0.33300  0.08430  1.0000
  Rb  Rb6       1.0  0.33300  0.66700  0.58400  1.0000
