data_image0
_chemical_formula_structural       Ba2In4Ir2
_chemical_formula_sum              "Ba2 In4 Ir2"
_cell_length_a       4.47877
_cell_length_b       6.22528
_cell_length_c       8.14942
_cell_angle_alpha    90
_cell_angle_beta     90
_cell_angle_gamma    68.9167

_space_group_name_H-M_alt    "P 1"
_space_group_IT_number       1

loop_
  _space_group_symop_operation_xyz
  'x, y, z'

loop_
  _atom_site_type_symbol
  _atom_site_label
  _atom_site_symmetry_multiplicity
  _atom_site_fract_x
  _atom_site_fract_y
  _atom_site_fract_z
  _atom_site_occupancy
  Ba  Ba1       1.0  0.94600  0.10800  0.25000  1.0000
  Ba  Ba2       1.0  0.05420  0.89200  0.75000  1.0000
  In  In1       1.0  0.66300  0.67300  0.05480  1.0000
  In  In2       1.0  0.66300  0.67300  0.44500  1.0000
  In  In3       1.0  0.33700  0.32700  0.55500  1.0000
  In  In4       1.0  0.33700  0.32700  0.94500  1.0000
  Ir  Ir1       1.0  0.21900  0.56300  0.25000  1.0000
  Ir  Ir2       1.0  0.78100  0.43700  0.75000  1.0000
