data_image0
_chemical_formula_structural       Au2Sc2Si2
_chemical_formula_sum              "Au2 Sc2 Si2"
_cell_length_a       4.25485
_cell_length_b       4.25477
_cell_length_c       6.84564
_cell_angle_alpha    90
_cell_angle_beta     90
_cell_angle_gamma    120.001

_space_group_name_H-M_alt    "P 1"
_space_group_IT_number       1

loop_
  _space_group_symop_operation_xyz
  'x, y, z'

loop_
  _atom_site_type_symbol
  _atom_site_label
  _atom_site_symmetry_multiplicity
  _atom_site_fract_x
  _atom_site_fract_y
  _atom_site_fract_z
  _atom_site_occupancy
  Au  Au1       1.0  0.66700  0.33300  0.21600  1.0000
  Au  Au2       1.0  0.66700  0.33300  0.78400  1.0000
  Sc  Sc1       1.0  0.00000  0.00001  0.00000  1.0000
  Sc  Sc2       1.0  0.00000  0.00000  0.50000  1.0000
  Si  Si1       1.0  0.33300  0.66700  0.29700  1.0000
  Si  Si2       1.0  0.33300  0.66700  0.70300  1.0000
