data_image0
_chemical_formula_structural       Au8Sb8Tl8
_chemical_formula_sum              "Au8 Sb8 Tl8"
_cell_length_a       6.67087
_cell_length_b       14.6879
_cell_length_c       6.63646
_cell_angle_alpha    90
_cell_angle_beta     90
_cell_angle_gamma    90

_space_group_name_H-M_alt    "P 1"
_space_group_IT_number       1

loop_
  _space_group_symop_operation_xyz
  'x, y, z'

loop_
  _atom_site_type_symbol
  _atom_site_label
  _atom_site_symmetry_multiplicity
  _atom_site_fract_x
  _atom_site_fract_y
  _atom_site_fract_z
  _atom_site_occupancy
  Au  Au1       1.0  0.03790  0.14200  0.00114  1.0000
  Au  Au2       1.0  0.53800  0.35800  0.00114  1.0000
  Au  Au3       1.0  0.53700  0.10800  0.47600  1.0000
  Au  Au4       1.0  0.03660  0.39200  0.47600  1.0000
  Au  Au5       1.0  0.46200  0.64200  0.50100  1.0000
  Au  Au6       1.0  0.96200  0.85800  0.50100  1.0000
  Au  Au7       1.0  0.96300  0.60800  0.97600  1.0000
  Au  Au8       1.0  0.46300  0.89200  0.97600  1.0000
  Sb  Sb1       1.0  0.65200  0.18100  0.11100  1.0000
  Sb  Sb2       1.0  0.15200  0.31900  0.11100  1.0000
  Sb  Sb3       1.0  0.10700  0.57200  0.35700  1.0000
  Sb  Sb4       1.0  0.60700  0.92800  0.35700  1.0000
  Sb  Sb5       1.0  0.84800  0.68100  0.61100  1.0000
  Sb  Sb6       1.0  0.34800  0.81900  0.61100  1.0000
  Sb  Sb7       1.0  0.39300  0.07170  0.85700  1.0000
  Sb  Sb8       1.0  0.89300  0.42800  0.85700  1.0000
  Tl  Tl1       1.0  0.58200  0.70500  0.09100  1.0000
  Tl  Tl2       1.0  0.08220  0.79500  0.09100  1.0000
  Tl  Tl3       1.0  0.12500  0.03330  0.36500  1.0000
  Tl  Tl4       1.0  0.62500  0.46700  0.36500  1.0000
  Tl  Tl5       1.0  0.91800  0.20500  0.59100  1.0000
  Tl  Tl6       1.0  0.41800  0.29500  0.59100  1.0000
  Tl  Tl7       1.0  0.37500  0.53300  0.86500  1.0000
  Tl  Tl8       1.0  0.87500  0.96700  0.86500  1.0000
