data_image0
_chemical_formula_structural       In4Pd2Yb2
_chemical_formula_sum              "In4 Pd2 Yb2"
_cell_length_a       4.46499
_cell_length_b       5.58678
_cell_length_c       7.93365
_cell_angle_alpha    90
_cell_angle_beta     90
_cell_angle_gamma    66.4466

_space_group_name_H-M_alt    "P 1"
_space_group_IT_number       1

loop_
  _space_group_symop_operation_xyz
  'x, y, z'

loop_
  _atom_site_type_symbol
  _atom_site_label
  _atom_site_symmetry_multiplicity
  _atom_site_fract_x
  _atom_site_fract_y
  _atom_site_fract_z
  _atom_site_occupancy
  In  In1       1.0  0.64300  0.71400  0.05270  1.0000
  In  In2       1.0  0.64300  0.71400  0.44700  1.0000
  In  In3       1.0  0.35700  0.28600  0.55300  1.0000
  In  In4       1.0  0.35700  0.28600  0.94700  1.0000
  Pd  Pd1       1.0  0.21700  0.56600  0.25000  1.0000
  Pd  Pd2       1.0  0.78300  0.43400  0.75000  1.0000
  Yb  Yb1       1.0  0.93300  0.13300  0.25000  1.0000
  Yb  Yb2       1.0  0.06660  0.86700  0.75000  1.0000
