data_image0
_chemical_formula_structural       Br2C2Y2
_chemical_formula_sum              "Br2 C2 Y2"
_cell_length_a       3.79266
_cell_length_b       4.00081
_cell_length_c       10.0898
_cell_angle_alpha    98.554
_cell_angle_beta     90
_cell_angle_gamma    118.293

_space_group_name_H-M_alt    "P 1"
_space_group_IT_number       1

loop_
  _space_group_symop_operation_xyz
  'x, y, z'

loop_
  _atom_site_type_symbol
  _atom_site_label
  _atom_site_symmetry_multiplicity
  _atom_site_fract_x
  _atom_site_fract_y
  _atom_site_fract_z
  _atom_site_occupancy
  Br  Br1       1.0  0.79700  0.59400  0.33600  1.0000
  Br  Br2       1.0  0.20300  0.40600  0.66400  1.0000
  C   C1        1.0  0.08710  0.17400  0.03790  1.0000
  C   C2        1.0  0.91300  0.82600  0.96200  1.0000
  Y   Y1        1.0  0.40800  0.81500  0.14600  1.0000
  Y   Y2        1.0  0.59200  0.18500  0.85400  1.0000
