data_image0
_chemical_formula_structural       Ag2Pb2Pr2
_chemical_formula_sum              "Ag2 Pb2 Pr2"
_cell_length_a       4.89567
_cell_length_b       4.89522
_cell_length_c       7.73491
_cell_angle_alpha    90
_cell_angle_beta     90
_cell_angle_gamma    120.003

_space_group_name_H-M_alt    "P 1"
_space_group_IT_number       1

loop_
  _space_group_symop_operation_xyz
  'x, y, z'

loop_
  _atom_site_type_symbol
  _atom_site_label
  _atom_site_symmetry_multiplicity
  _atom_site_fract_x
  _atom_site_fract_y
  _atom_site_fract_z
  _atom_site_occupancy
  Ag  Ag1       1.0  0.66700  0.33300  0.29800  1.0000
  Ag  Ag2       1.0  0.33300  0.66700  0.79800  1.0000
  Pb  Pb1       1.0  0.33300  0.66700  0.21500  1.0000
  Pb  Pb2       1.0  0.66700  0.33300  0.71500  1.0000
  Pr  Pr1       1.0  0.00000  0.00000  0.99500  1.0000
  Pr  Pr2       1.0  0.00000  0.00000  0.49500  1.0000
