data_image0
_chemical_formula_structural       Na2O4Pr2
_chemical_formula_sum              "Na2 O4 Pr2"
_cell_length_a       4.77241
_cell_length_b       4.77241
_cell_length_c       6.43178
_cell_angle_alpha    111.777
_cell_angle_beta     111.777
_cell_angle_gamma    90

_space_group_name_H-M_alt    "P 1"
_space_group_IT_number       1

loop_
  _space_group_symop_operation_xyz
  'x, y, z'

loop_
  _atom_site_type_symbol
  _atom_site_label
  _atom_site_symmetry_multiplicity
  _atom_site_fract_x
  _atom_site_fract_y
  _atom_site_fract_z
  _atom_site_occupancy
  Na  Na1       1.0  0.50000  0.50000  0.00000  1.0000
  Na  Na2       1.0  0.75000  0.25000  0.50000  1.0000
  O   O1        1.0  0.02880  0.52900  0.05750  1.0000
  O   O2        1.0  0.22100  0.22100  0.44200  1.0000
  O   O3        1.0  0.77900  0.77900  0.55800  1.0000
  O   O4        1.0  0.47100  0.97100  0.94200  1.0000
  Pr  Pr1       1.0  0.00000  0.00000  0.00000  1.0000
  Pr  Pr2       1.0  0.25000  0.75000  0.50000  1.0000
