data_image0
_chemical_formula_structural       Cu2GeS4Zn
_chemical_formula_sum              "Cu2 Ge1 S4 Zn1"
_cell_length_a       5.31909
_cell_length_b       5.31909
_cell_length_c       6.54942
_cell_angle_alpha    113.958
_cell_angle_beta     113.958
_cell_angle_gamma    90

_space_group_name_H-M_alt    "P 1"
_space_group_IT_number       1

loop_
  _space_group_symop_operation_xyz
  'x, y, z'

loop_
  _atom_site_type_symbol
  _atom_site_label
  _atom_site_symmetry_multiplicity
  _atom_site_fract_x
  _atom_site_fract_y
  _atom_site_fract_z
  _atom_site_occupancy
  Cu  Cu1       1.0  0.75000  0.25000  0.50000  1.0000
  Cu  Cu2       1.0  0.25000  0.75000  0.50000  1.0000
  Ge  Ge1       1.0  0.50000  0.50000  0.00000  1.0000
  S   S1        1.0  0.38500  0.38500  0.25600  1.0000
  S   S2        1.0  0.87100  0.87100  0.25600  1.0000
  S   S3        1.0  0.61500  0.12900  0.74400  1.0000
  S   S4        1.0  0.12900  0.61500  0.74400  1.0000
  Zn  Zn1       1.0  0.00000  0.00000  0.00000  1.0000
