data_image0
_chemical_formula_structural       Fe2Rb2Se4
_chemical_formula_sum              "Fe2 Rb2 Se4"
_cell_length_a       5.65843
_cell_length_b       7.04366
_cell_length_c       7.04366
_cell_angle_alpha    116.237
_cell_angle_beta     101.62
_cell_angle_gamma    101.62

_space_group_name_H-M_alt    "P 1"
_space_group_IT_number       1

loop_
  _space_group_symop_operation_xyz
  'x, y, z'

loop_
  _atom_site_type_symbol
  _atom_site_label
  _atom_site_symmetry_multiplicity
  _atom_site_fract_x
  _atom_site_fract_y
  _atom_site_fract_z
  _atom_site_occupancy
  Fe  Fe1       1.0  0.25000  0.99800  0.00224  1.0000
  Fe  Fe2       1.0  0.75000  0.00224  0.99800  1.0000
  Rb  Rb1       1.0  0.75000  0.64100  0.35900  1.0000
  Rb  Rb2       1.0  0.25000  0.35900  0.64100  1.0000
  Se  Se1       1.0  0.09730  0.30100  0.08030  1.0000
  Se  Se2       1.0  0.59700  0.08030  0.30100  1.0000
  Se  Se3       1.0  0.40300  0.92000  0.69900  1.0000
  Se  Se4       1.0  0.90300  0.69900  0.92000  1.0000
