data_image0
_chemical_formula_structural       As3Mn3Ni3
_chemical_formula_sum              "As3 Mn3 Ni3"
_cell_length_a       6.14418
_cell_length_b       6.14418
_cell_length_c       3.67015
_cell_angle_alpha    90
_cell_angle_beta     90
_cell_angle_gamma    119.996

_space_group_name_H-M_alt    "P 1"
_space_group_IT_number       1

loop_
  _space_group_symop_operation_xyz
  'x, y, z'

loop_
  _atom_site_type_symbol
  _atom_site_label
  _atom_site_symmetry_multiplicity
  _atom_site_fract_x
  _atom_site_fract_y
  _atom_site_fract_z
  _atom_site_occupancy
  As  As1       1.0  0.66700  0.33300  0.00000  1.0000
  As  As2       1.0  0.33300  0.66700  0.00000  1.0000
  As  As3       1.0  0.00004  0.00004  0.50000  1.0000
  Mn  Mn1       1.0  0.58600  0.00002  0.50000  1.0000
  Mn  Mn2       1.0  0.41400  0.41400  0.50000  1.0000
  Mn  Mn3       1.0  0.00002  0.58600  0.50000  1.0000
  Ni  Ni1       1.0  0.25200  0.00005  0.00000  1.0000
  Ni  Ni2       1.0  0.00005  0.25200  0.00000  1.0000
  Ni  Ni3       1.0  0.74800  0.74800  0.00000  1.0000
