data_image0
_chemical_formula_structural       B4C4F24K4
_chemical_formula_sum              "B4 C4 F24 K4"
_cell_length_a       4.35725
_cell_length_b       14.892
_cell_length_c       5.8303
_cell_angle_alpha    90
_cell_angle_beta     103.829
_cell_angle_gamma    90

_space_group_name_H-M_alt    "P 1"
_space_group_IT_number       1

loop_
  _space_group_symop_operation_xyz
  'x, y, z'

loop_
  _atom_site_type_symbol
  _atom_site_label
  _atom_site_symmetry_multiplicity
  _atom_site_fract_x
  _atom_site_fract_y
  _atom_site_fract_z
  _atom_site_occupancy
  B   B1        1.0  0.72200  0.16400  0.65200  1.0000
  B   B2        1.0  0.27800  0.66400  0.84800  1.0000
  B   B3        1.0  0.27800  0.83600  0.34800  1.0000
  B   B4        1.0  0.72200  0.33600  0.15200  1.0000
  C   C1        1.0  0.59800  0.07970  0.77600  1.0000
  C   C2        1.0  0.40200  0.58000  0.72400  1.0000
  C   C3        1.0  0.40200  0.92000  0.22400  1.0000
  C   C4        1.0  0.59800  0.42000  0.27600  1.0000
  F   F1        1.0  0.51500  0.23700  0.60300  1.0000
  F   F2        1.0  0.48500  0.73700  0.89700  1.0000
  F   F3        1.0  0.48500  0.76300  0.39700  1.0000
  F   F4        1.0  0.51500  0.26300  0.10300  1.0000
  F   F5        1.0  0.01410  0.19200  0.79400  1.0000
  F   F6        1.0  0.98600  0.69200  0.70600  1.0000
  F   F7        1.0  0.98600  0.80800  0.20600  1.0000
  F   F8        1.0  0.01410  0.30800  0.29400  1.0000
  F   F9        1.0  0.75900  0.13000  0.43600  1.0000
  F   F10       1.0  0.24100  0.63000  0.06370  1.0000
  F   F11       1.0  0.24100  0.87000  0.56400  1.0000
  F   F12       1.0  0.75900  0.37000  0.93600  1.0000
  F   F13       1.0  0.56300  0.09120  0.00154  1.0000
  F   F14       1.0  0.43700  0.59100  0.49800  1.0000
  F   F15       1.0  0.43700  0.90900  0.99800  1.0000
  F   F16       1.0  0.56300  0.40900  0.50200  1.0000
  F   F17       1.0  0.32300  0.04420  0.64800  1.0000
  F   F18       1.0  0.67700  0.54400  0.85200  1.0000
  F   F19       1.0  0.67700  0.95600  0.35200  1.0000
  F   F20       1.0  0.32300  0.45600  0.14800  1.0000
  F   F21       1.0  0.82400  0.01390  0.79800  1.0000
  F   F22       1.0  0.17600  0.51400  0.70200  1.0000
  F   F23       1.0  0.17600  0.98600  0.20200  1.0000
  F   F24       1.0  0.82400  0.48600  0.29800  1.0000
  K   K1        1.0  0.16500  0.15000  0.22500  1.0000
  K   K2        1.0  0.83500  0.65000  0.27500  1.0000
  K   K3        1.0  0.83500  0.85000  0.77500  1.0000
  K   K4        1.0  0.16500  0.35000  0.72500  1.0000
