data_image0
_chemical_formula_structural       Cl16Cs4Fe4
_chemical_formula_sum              "Cl16 Cs4 Fe4"
_cell_length_a       9.20098
_cell_length_b       11.4743
_cell_length_c       6.91009
_cell_angle_alpha    90
_cell_angle_beta     90
_cell_angle_gamma    90

_space_group_name_H-M_alt    "P 1"
_space_group_IT_number       1

loop_
  _space_group_symop_operation_xyz
  'x, y, z'

loop_
  _atom_site_type_symbol
  _atom_site_label
  _atom_site_symmetry_multiplicity
  _atom_site_fract_x
  _atom_site_fract_y
  _atom_site_fract_z
  _atom_site_occupancy
  Cl  Cl1       1.0  0.83700  0.08240  0.99600  1.0000
  Cl  Cl2       1.0  0.33700  0.41800  0.00353  1.0000
  Cl  Cl3       1.0  0.66300  0.58200  0.50400  1.0000
  Cl  Cl4       1.0  0.16300  0.91800  0.49600  1.0000
  Cl  Cl5       1.0  0.16300  0.91800  0.00353  1.0000
  Cl  Cl6       1.0  0.66300  0.58200  0.99600  1.0000
  Cl  Cl7       1.0  0.33700  0.41800  0.49600  1.0000
  Cl  Cl8       1.0  0.83700  0.08240  0.50400  1.0000
  Cl  Cl9       1.0  0.58600  0.89900  0.25000  1.0000
  Cl  Cl10      1.0  0.08580  0.60100  0.75000  1.0000
  Cl  Cl11      1.0  0.91400  0.39900  0.25000  1.0000
  Cl  Cl12      1.0  0.41400  0.10100  0.75000  1.0000
  Cl  Cl13      1.0  0.55100  0.22000  0.25000  1.0000
  Cl  Cl14      1.0  0.05050  0.28000  0.75000  1.0000
  Cl  Cl15      1.0  0.94900  0.72000  0.25000  1.0000
  Cl  Cl16      1.0  0.44900  0.78000  0.75000  1.0000
  Cs  Cs1       1.0  0.17200  0.18000  0.25000  1.0000
  Cs  Cs2       1.0  0.67200  0.32000  0.75000  1.0000
  Cs  Cs3       1.0  0.32800  0.68000  0.25000  1.0000
  Cs  Cs4       1.0  0.82800  0.82000  0.75000  1.0000
  Fe  Fe1       1.0  0.69500  0.06800  0.25000  1.0000
  Fe  Fe2       1.0  0.19500  0.43200  0.75000  1.0000
  Fe  Fe3       1.0  0.80500  0.56800  0.25000  1.0000
  Fe  Fe4       1.0  0.30500  0.93200  0.75000  1.0000
