data_image0
_chemical_formula_structural       Bi4Ca4Li4
_chemical_formula_sum              "Bi4 Ca4 Li4"
_cell_length_a       7.76973
_cell_length_b       4.71572
_cell_length_c       8.48087
_cell_angle_alpha    90
_cell_angle_beta     90
_cell_angle_gamma    90

_space_group_name_H-M_alt    "P 1"
_space_group_IT_number       1

loop_
  _space_group_symop_operation_xyz
  'x, y, z'

loop_
  _atom_site_type_symbol
  _atom_site_label
  _atom_site_symmetry_multiplicity
  _atom_site_fract_x
  _atom_site_fract_y
  _atom_site_fract_z
  _atom_site_occupancy
  Bi  Bi1       1.0  0.26700  0.25000  0.10100  1.0000
  Bi  Bi2       1.0  0.76700  0.25000  0.39900  1.0000
  Bi  Bi3       1.0  0.23300  0.75000  0.60100  1.0000
  Bi  Bi4       1.0  0.73300  0.75000  0.89900  1.0000
  Ca  Ca1       1.0  0.98800  0.75000  0.20100  1.0000
  Ca  Ca2       1.0  0.48800  0.75000  0.29900  1.0000
  Ca  Ca3       1.0  0.51200  0.25000  0.70100  1.0000
  Ca  Ca4       1.0  0.01160  0.25000  0.79900  1.0000
  Li  Li1       1.0  0.64600  0.25000  0.07140  1.0000
  Li  Li2       1.0  0.14600  0.25000  0.42900  1.0000
  Li  Li3       1.0  0.85400  0.75000  0.57100  1.0000
  Li  Li4       1.0  0.35400  0.75000  0.92900  1.0000
