data_image0
_chemical_formula_structural       NiRh2Se4
_chemical_formula_sum              "Ni1 Rh2 Se4"
_cell_length_a       3.71927
_cell_length_b       6.38414
_cell_length_c       6.41157
_cell_angle_alpha    118.028
_cell_angle_beta     73.1394
_cell_angle_gamma    90

_space_group_name_H-M_alt    "P 1"
_space_group_IT_number       1

loop_
  _space_group_symop_operation_xyz
  'x, y, z'

loop_
  _atom_site_type_symbol
  _atom_site_label
  _atom_site_symmetry_multiplicity
  _atom_site_fract_x
  _atom_site_fract_y
  _atom_site_fract_z
  _atom_site_occupancy
  Ni  Ni1       1.0  0.00000  0.00000  0.00000  1.0000
  Rh  Rh1       1.0  0.26400  0.71600  0.47100  1.0000
  Rh  Rh2       1.0  0.73600  0.28400  0.52900  1.0000
  Se  Se1       1.0  0.88400  0.44900  0.23100  1.0000
  Se  Se2       1.0  0.36800  0.97700  0.26300  1.0000
  Se  Se3       1.0  0.63200  0.02330  0.73700  1.0000
  Se  Se4       1.0  0.11600  0.55100  0.76900  1.0000
