data_image0
_chemical_formula_structural       Ca4H24K4N12
_chemical_formula_sum              "Ca4 H24 K4 N12"
_cell_length_a       6.26512
_cell_length_b       11.0795
_cell_length_c       6.5037
_cell_angle_alpha    90
_cell_angle_beta     107.021
_cell_angle_gamma    90

_space_group_name_H-M_alt    "P 1"
_space_group_IT_number       1

loop_
  _space_group_symop_operation_xyz
  'x, y, z'

loop_
  _atom_site_type_symbol
  _atom_site_label
  _atom_site_symmetry_multiplicity
  _atom_site_fract_x
  _atom_site_fract_y
  _atom_site_fract_z
  _atom_site_occupancy
  Ca  Ca1       1.0  0.16700  0.26200  0.41100  1.0000
  Ca  Ca2       1.0  0.83300  0.76200  0.08940  1.0000
  Ca  Ca3       1.0  0.83300  0.73800  0.58900  1.0000
  Ca  Ca4       1.0  0.16700  0.23800  0.91100  1.0000
  H   H1        1.0  0.74000  0.16500  0.57700  1.0000
  H   H2        1.0  0.26000  0.66500  0.92300  1.0000
  H   H3        1.0  0.26000  0.83500  0.42300  1.0000
  H   H4        1.0  0.74000  0.33500  0.07710  1.0000
  H   H5        1.0  0.34900  0.07630  0.31300  1.0000
  H   H6        1.0  0.65100  0.57600  0.18700  1.0000
  H   H7        1.0  0.65100  0.92400  0.68700  1.0000
  H   H8        1.0  0.34900  0.42400  0.81300  1.0000
  H   H9        1.0  0.93500  0.07370  0.56700  1.0000
  H   H10       1.0  0.06470  0.57400  0.93300  1.0000
  H   H11       1.0  0.06470  0.92600  0.43300  1.0000
  H   H12       1.0  0.93500  0.42600  0.06690  1.0000
  H   H13       1.0  0.57800  0.28500  0.29400  1.0000
  H   H14       1.0  0.42200  0.78500  0.20600  1.0000
  H   H15       1.0  0.42200  0.71500  0.70600  1.0000
  H   H16       1.0  0.57800  0.21500  0.79400  1.0000
  H   H17       1.0  0.13600  0.00000  0.18600  1.0000
  H   H18       1.0  0.86400  0.50000  0.31400  1.0000
  H   H19       1.0  0.86400  0.00020  0.81400  1.0000
  H   H20       1.0  0.13600  0.50000  0.68600  1.0000
  H   H21       1.0  0.49700  0.41300  0.18400  1.0000
  H   H22       1.0  0.50300  0.91300  0.31600  1.0000
  H   H23       1.0  0.50300  0.58700  0.81600  1.0000
  H   H24       1.0  0.49700  0.08750  0.68400  1.0000
  K   K1        1.0  0.28400  0.58400  0.36200  1.0000
  K   K2        1.0  0.71600  0.08410  0.13800  1.0000
  K   K3        1.0  0.71600  0.41600  0.63800  1.0000
  K   K4        1.0  0.28400  0.91600  0.86200  1.0000
  N   N1        1.0  0.90100  0.16500  0.56700  1.0000
  N   N2        1.0  0.09860  0.66500  0.93300  1.0000
  N   N3        1.0  0.09860  0.83500  0.43300  1.0000
  N   N4        1.0  0.90100  0.33500  0.06750  1.0000
  N   N5        1.0  0.20900  0.08260  0.18100  1.0000
  N   N6        1.0  0.79100  0.58300  0.31900  1.0000
  N   N7        1.0  0.79100  0.91700  0.81900  1.0000
  N   N8        1.0  0.20900  0.41700  0.68100  1.0000
  N   N9        1.0  0.43400  0.33300  0.22500  1.0000
  N   N10       1.0  0.56600  0.83300  0.27500  1.0000
  N   N11       1.0  0.56600  0.66700  0.77500  1.0000
  N   N12       1.0  0.43400  0.16700  0.72500  1.0000
