data_image0
_chemical_formula_structural       In2Se3
_chemical_formula_sum              "In2 Se3"
_cell_length_a       4.0074
_cell_length_b       4.00759
_cell_length_c       9.67017
_cell_angle_alpha    90
_cell_angle_beta     90.0055
_cell_angle_gamma    120.002

_space_group_name_H-M_alt    "P 1"
_space_group_IT_number       1

loop_
  _space_group_symop_operation_xyz
  'x, y, z'

loop_
  _atom_site_type_symbol
  _atom_site_label
  _atom_site_symmetry_multiplicity
  _atom_site_fract_x
  _atom_site_fract_y
  _atom_site_fract_z
  _atom_site_occupancy
  In  In1       1.0  0.66700  0.33300  0.19400  1.0000
  In  In2       1.0  0.33300  0.66700  0.80600  1.0000
  Se  Se1       1.0  0.00000  0.00000  0.00000  1.0000
  Se  Se2       1.0  0.33300  0.66700  0.33200  1.0000
  Se  Se3       1.0  0.66700  0.33300  0.66800  1.0000
