data_image0
_chemical_formula_structural       Ag2I4Tl2
_chemical_formula_sum              "Ag2 I4 Tl2"
_cell_length_a       7.09597
_cell_length_b       7.09597
_cell_length_c       7.09597
_cell_angle_alpha    113.717
_cell_angle_beta     107.391
_cell_angle_gamma    107.391

_space_group_name_H-M_alt    "P 1"
_space_group_IT_number       1

loop_
  _space_group_symop_operation_xyz
  'x, y, z'

loop_
  _atom_site_type_symbol
  _atom_site_label
  _atom_site_symmetry_multiplicity
  _atom_site_fract_x
  _atom_site_fract_y
  _atom_site_fract_z
  _atom_site_occupancy
  Ag  Ag1       1.0  0.50000  0.75000  0.25000  1.0000
  Ag  Ag2       1.0  0.50000  0.25000  0.75000  1.0000
  I   I1        1.0  0.50000  0.31900  0.18100  1.0000
  I   I2        1.0  0.13900  0.81900  0.31900  1.0000
  I   I3        1.0  0.86100  0.18100  0.68100  1.0000
  I   I4        1.0  0.50000  0.68100  0.81900  1.0000
  Tl  Tl1       1.0  0.00000  0.25000  0.25000  1.0000
  Tl  Tl2       1.0  0.00000  0.75000  0.75000  1.0000
