data_image0
_chemical_formula_structural       In12Te30
_chemical_formula_sum              "In12 Te30"
_cell_length_a       8.53059
_cell_length_b       8.53059
_cell_length_c       40.7286
_cell_angle_alpha    80.7574
_cell_angle_beta     99.2426
_cell_angle_gamma    150.511

_space_group_name_H-M_alt    "P 1"
_space_group_IT_number       1

loop_
  _space_group_symop_operation_xyz
  'x, y, z'

loop_
  _atom_site_type_symbol
  _atom_site_label
  _atom_site_symmetry_multiplicity
  _atom_site_fract_x
  _atom_site_fract_y
  _atom_site_fract_z
  _atom_site_occupancy
  In  In1       1.0  0.03970  0.05130  0.05630  1.0000
  In  In2       1.0  0.05130  0.03970  0.44400  1.0000
  In  In3       1.0  0.96000  0.94900  0.94400  1.0000
  In  In4       1.0  0.94900  0.96000  0.55600  1.0000
  In  In5       1.0  0.69700  0.42000  0.11200  1.0000
  In  In6       1.0  0.42000  0.69700  0.38800  1.0000
  In  In7       1.0  0.30300  0.58000  0.88800  1.0000
  In  In8       1.0  0.58000  0.30300  0.61200  1.0000
  In  In9       1.0  0.40600  0.81300  0.21900  1.0000
  In  In10      1.0  0.81300  0.40600  0.28100  1.0000
  In  In11      1.0  0.59400  0.18700  0.78100  1.0000
  In  In12      1.0  0.18700  0.59400  0.71900  1.0000
  Te  Te1       1.0  0.09120  0.09120  0.25000  1.0000
  Te  Te2       1.0  0.90900  0.90900  0.75000  1.0000
  Te  Te3       1.0  0.09250  0.01660  0.12800  1.0000
  Te  Te4       1.0  0.01660  0.09250  0.37200  1.0000
  Te  Te5       1.0  0.90800  0.98300  0.87200  1.0000
  Te  Te6       1.0  0.98300  0.90800  0.62800  1.0000
  Te  Te7       1.0  0.63700  0.44700  0.04040  1.0000
  Te  Te8       1.0  0.44700  0.63700  0.46000  1.0000
  Te  Te9       1.0  0.36300  0.55300  0.96000  1.0000
  Te  Te10      1.0  0.55300  0.36300  0.54000  1.0000
  Te  Te11      1.0  0.82100  0.20700  0.13400  1.0000
  Te  Te12      1.0  0.20700  0.82100  0.36600  1.0000
  Te  Te13      1.0  0.17900  0.79300  0.86600  1.0000
  Te  Te14      1.0  0.79300  0.17900  0.63400  1.0000
  Te  Te15      1.0  0.35300  0.71900  0.08200  1.0000
  Te  Te16      1.0  0.71900  0.35300  0.41800  1.0000
  Te  Te17      1.0  0.64700  0.28100  0.91800  1.0000
  Te  Te18      1.0  0.28100  0.64700  0.58200  1.0000
  Te  Te19      1.0  0.84000  0.18400  0.03020  1.0000
  Te  Te20      1.0  0.18400  0.84000  0.47000  1.0000
  Te  Te21      1.0  0.16000  0.81600  0.97000  1.0000
  Te  Te22      1.0  0.81600  0.16000  0.53000  1.0000
  Te  Te23      1.0  0.78700  0.42300  0.20800  1.0000
  Te  Te24      1.0  0.42300  0.78700  0.29200  1.0000
  Te  Te25      1.0  0.21300  0.57700  0.79200  1.0000
  Te  Te26      1.0  0.57700  0.21300  0.70800  1.0000
  Te  Te27      1.0  0.49900  0.60400  0.19800  1.0000
  Te  Te28      1.0  0.60400  0.49900  0.30200  1.0000
  Te  Te29      1.0  0.50100  0.39600  0.80200  1.0000
  Te  Te30      1.0  0.39600  0.50100  0.69800  1.0000
