data_image0
_chemical_formula_structural       CrS4V2
_chemical_formula_sum              "Cr1 S4 V2"
_cell_length_a       3.27039
_cell_length_b       5.83141
_cell_length_c       6.42292
_cell_angle_alpha    114.532
_cell_angle_beta     104.749
_cell_angle_gamma    90

_space_group_name_H-M_alt    "P 1"
_space_group_IT_number       1

loop_
  _space_group_symop_operation_xyz
  'x, y, z'

loop_
  _atom_site_type_symbol
  _atom_site_label
  _atom_site_symmetry_multiplicity
  _atom_site_fract_x
  _atom_site_fract_y
  _atom_site_fract_z
  _atom_site_occupancy
  Cr  Cr1       1.0  0.00000  0.00000  0.00000  1.0000
  S   S1        1.0  0.10900  0.45000  0.21700  1.0000
  S   S2        1.0  0.63900  0.98000  0.27900  1.0000
  S   S3        1.0  0.36100  0.01970  0.72100  1.0000
  S   S4        1.0  0.89100  0.55000  0.78300  1.0000
  V   V1        1.0  0.74200  0.68300  0.48300  1.0000
  V   V2        1.0  0.25800  0.31700  0.51700  1.0000
