data_image0
_chemical_formula_structural       Bi4Cs6I18
_chemical_formula_sum              "Bi4 Cs6 I18"
_cell_length_a       8.46006
_cell_length_b       8.46024
_cell_length_c       21.3119
_cell_angle_alpha    89.9909
_cell_angle_beta     90.005
_cell_angle_gamma    120.103

_space_group_name_H-M_alt    "P 1"
_space_group_IT_number       1

loop_
  _space_group_symop_operation_xyz
  'x, y, z'

loop_
  _atom_site_type_symbol
  _atom_site_label
  _atom_site_symmetry_multiplicity
  _atom_site_fract_x
  _atom_site_fract_y
  _atom_site_fract_z
  _atom_site_occupancy
  Bi  Bi1       1.0  0.33300  0.66700  0.84400  1.0000
  Bi  Bi2       1.0  0.66700  0.33300  0.34400  1.0000
  Bi  Bi3       1.0  0.66700  0.33300  0.15600  1.0000
  Bi  Bi4       1.0  0.33300  0.66700  0.65600  1.0000
  Cs  Cs1       1.0  0.00008  0.00012  0.25000  1.0000
  Cs  Cs2       1.0  0.00018  0.00005  0.75000  1.0000
  Cs  Cs3       1.0  0.33400  0.66700  0.07830  1.0000
  Cs  Cs4       1.0  0.66700  0.33300  0.57800  1.0000
  Cs  Cs5       1.0  0.66700  0.33400  0.92200  1.0000
  Cs  Cs6       1.0  0.33400  0.66700  0.42200  1.0000
  I   I1        1.0  0.49100  0.98400  0.25000  1.0000
  I   I2        1.0  0.50900  0.01650  0.75000  1.0000
  I   I3        1.0  0.01600  0.50900  0.25000  1.0000
  I   I4        1.0  0.49300  0.50800  0.25000  1.0000
  I   I5        1.0  0.50800  0.49300  0.75000  1.0000
  I   I6        1.0  0.98400  0.49100  0.75000  1.0000
  I   I7        1.0  0.83800  0.67500  0.08070  1.0000
  I   I8        1.0  0.16200  0.32500  0.58100  1.0000
  I   I9        1.0  0.32500  0.16200  0.08100  1.0000
  I   I10       1.0  0.83700  0.16200  0.08090  1.0000
  I   I11       1.0  0.16100  0.83600  0.58100  1.0000
  I   I12       1.0  0.67500  0.83800  0.58100  1.0000
  I   I13       1.0  0.16200  0.32500  0.91900  1.0000
  I   I14       1.0  0.16300  0.83800  0.91900  1.0000
  I   I15       1.0  0.67500  0.83800  0.91900  1.0000
  I   I16       1.0  0.32500  0.16200  0.41900  1.0000
  I   I17       1.0  0.83700  0.16200  0.41900  1.0000
  I   I18       1.0  0.83800  0.67500  0.41900  1.0000
