data_image0
_chemical_formula_structural       F14Fe2Na4Ni2
_chemical_formula_sum              "F14 Fe2 Na4 Ni2"
_cell_length_a       6.45687
_cell_length_b       6.45687
_cell_length_c       6.45687
_cell_angle_alpha    120.198
_cell_angle_beta     89.8921
_cell_angle_gamma    119.926

_space_group_name_H-M_alt    "P 1"
_space_group_IT_number       1

loop_
  _space_group_symop_operation_xyz
  'x, y, z'

loop_
  _atom_site_type_symbol
  _atom_site_label
  _atom_site_symmetry_multiplicity
  _atom_site_fract_x
  _atom_site_fract_y
  _atom_site_fract_z
  _atom_site_occupancy
  F   F1        1.0  0.85400  0.85400  1.00000  1.0000
  F   F2        1.0  0.15400  0.65400  0.50000  1.0000
  F   F3        1.0  0.63600  0.48600  0.14900  1.0000
  F   F4        1.0  0.33700  0.48600  0.85100  1.0000
  F   F5        1.0  0.35800  0.00700  0.35100  1.0000
  F   F6        1.0  0.65600  0.00700  0.64900  1.0000
  F   F7        1.0  0.33800  0.41900  0.34900  1.0000
  F   F8        1.0  0.07010  0.98800  0.65100  1.0000
  F   F9        1.0  0.33800  0.98800  0.91800  1.0000
  F   F10       1.0  0.07010  0.41900  0.08170  1.0000
  F   F11       1.0  0.92100  0.07420  0.41700  1.0000
  F   F12       1.0  0.65700  0.50400  0.58300  1.0000
  F   F13       1.0  0.92100  0.50400  0.84700  1.0000
  F   F14       1.0  0.65700  0.07420  0.15300  1.0000
  Fe  Fe1       1.0  0.49700  0.24700  0.25100  1.0000
  Fe  Fe2       1.0  0.99600  0.24700  0.74900  1.0000
  Na  Na1       1.0  0.99600  0.74900  0.24700  1.0000
  Na  Na2       1.0  0.50100  0.74900  0.75300  1.0000
  Na  Na3       1.0  0.49500  0.74600  0.25000  1.0000
  Na  Na4       1.0  0.49500  0.24500  0.75000  1.0000
  Ni  Ni1       1.0  0.99900  0.25200  0.25300  1.0000
  Ni  Ni2       1.0  0.99900  0.74500  0.74700  1.0000
