data_image0
_chemical_formula_structural       Ag2Na4Sb2
_chemical_formula_sum              "Ag2 Na4 Sb2"
_cell_length_a       5.77079
_cell_length_b       6.05231
_cell_length_c       6.05231
_cell_angle_alpha    99.1695
_cell_angle_beta     90
_cell_angle_gamma    90

_space_group_name_H-M_alt    "P 1"
_space_group_IT_number       1

loop_
  _space_group_symop_operation_xyz
  'x, y, z'

loop_
  _atom_site_type_symbol
  _atom_site_label
  _atom_site_symmetry_multiplicity
  _atom_site_fract_x
  _atom_site_fract_y
  _atom_site_fract_z
  _atom_site_occupancy
  Ag  Ag1       1.0  0.00000  0.50000  0.50000  1.0000
  Ag  Ag2       1.0  0.50000  0.50000  0.50000  1.0000
  Na  Na1       1.0  0.25000  0.67000  0.02860  1.0000
  Na  Na2       1.0  0.75000  0.97100  0.33000  1.0000
  Na  Na3       1.0  0.25000  0.02860  0.67000  1.0000
  Na  Na4       1.0  0.75000  0.33000  0.97100  1.0000
  Sb  Sb1       1.0  0.25000  0.20500  0.20500  1.0000
  Sb  Sb2       1.0  0.75000  0.79500  0.79500  1.0000
