data_image0
_chemical_formula_structural       B2C2Mo4
_chemical_formula_sum              "B2 C2 Mo4"
_cell_length_a       3.07253
_cell_length_b       3.11113
_cell_length_c       8.90721
_cell_angle_alpha    79.9422
_cell_angle_beta     90
_cell_angle_gamma    90

_space_group_name_H-M_alt    "P 1"
_space_group_IT_number       1

loop_
  _space_group_symop_operation_xyz
  'x, y, z'

loop_
  _atom_site_type_symbol
  _atom_site_label
  _atom_site_symmetry_multiplicity
  _atom_site_fract_x
  _atom_site_fract_y
  _atom_site_fract_z
  _atom_site_occupancy
  B   B1        1.0  0.75000  0.47200  0.05570  1.0000
  B   B2        1.0  0.25000  0.52800  0.94400  1.0000
  C   C1        1.0  0.25000  0.80900  0.38200  1.0000
  C   C2        1.0  0.75000  0.19100  0.61800  1.0000
  Mo  Mo1       1.0  0.25000  0.92800  0.14400  1.0000
  Mo  Mo2       1.0  0.75000  0.31500  0.37100  1.0000
  Mo  Mo3       1.0  0.25000  0.68500  0.62900  1.0000
  Mo  Mo4       1.0  0.75000  0.07180  0.85600  1.0000
