data_image0
_chemical_formula_structural       O20Te4U4
_chemical_formula_sum              "O20 Te4 U4"
_cell_length_a       4.85341
_cell_length_b       9.70068
_cell_length_c       7.70273
_cell_angle_alpha    90
_cell_angle_beta     90
_cell_angle_gamma    90

_space_group_name_H-M_alt    "P 1"
_space_group_IT_number       1

loop_
  _space_group_symop_operation_xyz
  'x, y, z'

loop_
  _atom_site_type_symbol
  _atom_site_label
  _atom_site_symmetry_multiplicity
  _atom_site_fract_x
  _atom_site_fract_y
  _atom_site_fract_z
  _atom_site_occupancy
  O   O1        1.0  0.69900  0.88900  0.25000  1.0000
  O   O2        1.0  0.30100  0.11100  0.75000  1.0000
  O   O3        1.0  0.69900  0.61100  0.75000  1.0000
  O   O4        1.0  0.30100  0.38900  0.25000  1.0000
  O   O5        1.0  0.30000  0.11100  0.25000  1.0000
  O   O6        1.0  0.70000  0.88900  0.75000  1.0000
  O   O7        1.0  0.30000  0.38900  0.75000  1.0000
  O   O8        1.0  0.70000  0.61100  0.25000  1.0000
  O   O9        1.0  0.81000  0.08790  0.50000  1.0000
  O   O10       1.0  0.19000  0.91200  0.00033  1.0000
  O   O11       1.0  0.81000  0.41200  0.50000  1.0000
  O   O12       1.0  0.19000  0.58800  0.00000  1.0000
  O   O13       1.0  0.19000  0.91200  0.50000  1.0000
  O   O14       1.0  0.81000  0.08790  0.00000  1.0000
  O   O15       1.0  0.19000  0.58800  0.50000  1.0000
  O   O16       1.0  0.81000  0.41200  0.00033  1.0000
  O   O17       1.0  0.76400  0.24900  0.25000  1.0000
  O   O18       1.0  0.23600  0.75100  0.75000  1.0000
  O   O19       1.0  0.76400  0.25100  0.75000  1.0000
  O   O20       1.0  0.23600  0.74900  0.25000  1.0000
  Te  Te1       1.0  0.58300  0.25000  0.50000  1.0000
  Te  Te2       1.0  0.41700  0.75000  0.00000  1.0000
  Te  Te3       1.0  0.41700  0.75000  0.50000  1.0000
  Te  Te4       1.0  0.58300  0.25000  0.00000  1.0000
  U   U1        1.0  0.99900  0.00017  0.25000  1.0000
  U   U2        1.0  0.00068  0.00000  0.75000  1.0000
  U   U3        1.0  0.99900  0.50000  0.75000  1.0000
  U   U4        1.0  0.00068  0.50000  0.25000  1.0000
