data_image0
_chemical_formula_structural       Au4Eu4In4
_chemical_formula_sum              "Au4 Eu4 In4"
_cell_length_a       7.46078
_cell_length_b       4.72965
_cell_length_c       8.49501
_cell_angle_alpha    90
_cell_angle_beta     90
_cell_angle_gamma    90

_space_group_name_H-M_alt    "P 1"
_space_group_IT_number       1

loop_
  _space_group_symop_operation_xyz
  'x, y, z'

loop_
  _atom_site_type_symbol
  _atom_site_label
  _atom_site_symmetry_multiplicity
  _atom_site_fract_x
  _atom_site_fract_y
  _atom_site_fract_z
  _atom_site_occupancy
  Au  Au1       1.0  0.76900  0.25000  0.11900  1.0000
  Au  Au2       1.0  0.26900  0.25000  0.38100  1.0000
  Au  Au3       1.0  0.73100  0.75000  0.61900  1.0000
  Au  Au4       1.0  0.23100  0.75000  0.88100  1.0000
  Eu  Eu1       1.0  0.47000  0.75000  0.18500  1.0000
  Eu  Eu2       1.0  0.97000  0.75000  0.31500  1.0000
  Eu  Eu3       1.0  0.02960  0.25000  0.68500  1.0000
  Eu  Eu4       1.0  0.53000  0.25000  0.81500  1.0000
  In  In1       1.0  0.15600  0.25000  0.06310  1.0000
  In  In2       1.0  0.65600  0.25000  0.43700  1.0000
  In  In3       1.0  0.34400  0.75000  0.56300  1.0000
  In  In4       1.0  0.84400  0.75000  0.93700  1.0000
