data_image0
_chemical_formula_structural       Gd3In3Ni3
_chemical_formula_sum              "Gd3 In3 Ni3"
_cell_length_a       7.46594
_cell_length_b       7.46594
_cell_length_c       3.84289
_cell_angle_alpha    90
_cell_angle_beta     90
_cell_angle_gamma    119.984

_space_group_name_H-M_alt    "P 1"
_space_group_IT_number       1

loop_
  _space_group_symop_operation_xyz
  'x, y, z'

loop_
  _atom_site_type_symbol
  _atom_site_label
  _atom_site_symmetry_multiplicity
  _atom_site_fract_x
  _atom_site_fract_y
  _atom_site_fract_z
  _atom_site_occupancy
  Gd  Gd1       1.0  0.58800  0.00007  0.50000  1.0000
  Gd  Gd2       1.0  0.41200  0.41200  0.50000  1.0000
  Gd  Gd3       1.0  0.00007  0.58800  0.50000  1.0000
  In  In1       1.0  0.25200  0.00000  0.00000  1.0000
  In  In2       1.0  0.00000  0.25200  0.00000  1.0000
  In  In3       1.0  0.74800  0.74800  0.00000  1.0000
  Ni  Ni1       1.0  0.66700  0.33300  0.00000  1.0000
  Ni  Ni2       1.0  0.33300  0.66700  0.00000  1.0000
  Ni  Ni3       1.0  0.00000  1.00000  0.50000  1.0000
