data_image0
_chemical_formula_structural       In3Nd3Pt3
_chemical_formula_sum              "In3 Nd3 Pt3"
_cell_length_a       7.71313
_cell_length_b       7.71313
_cell_length_c       4.05776
_cell_angle_alpha    90
_cell_angle_beta     90
_cell_angle_gamma    120

_space_group_name_H-M_alt    "P 1"
_space_group_IT_number       1

loop_
  _space_group_symop_operation_xyz
  'x, y, z'

loop_
  _atom_site_type_symbol
  _atom_site_label
  _atom_site_symmetry_multiplicity
  _atom_site_fract_x
  _atom_site_fract_y
  _atom_site_fract_z
  _atom_site_occupancy
  In  In1       1.0  0.25300  0.00001  0.00000  1.0000
  In  In2       1.0  0.00001  0.25300  0.00000  1.0000
  In  In3       1.0  0.74700  0.74700  0.00000  1.0000
  Nd  Nd1       1.0  0.59000  0.00002  0.50000  1.0000
  Nd  Nd2       1.0  0.41000  0.41000  0.50000  1.0000
  Nd  Nd3       1.0  0.00002  0.59000  0.50000  1.0000
  Pt  Pt1       1.0  0.66700  0.33300  0.00000  1.0000
  Pt  Pt2       1.0  0.33300  0.66700  0.00000  1.0000
  Pt  Pt3       1.0  0.00001  0.00001  0.50000  1.0000
