data_image0
_chemical_formula_structural       In3Ir3Tb3
_chemical_formula_sum              "In3 Ir3 Tb3"
_cell_length_a       7.52834
_cell_length_b       7.52834
_cell_length_c       3.96632
_cell_angle_alpha    90
_cell_angle_beta     90
_cell_angle_gamma    120.001

_space_group_name_H-M_alt    "P 1"
_space_group_IT_number       1

loop_
  _space_group_symop_operation_xyz
  'x, y, z'

loop_
  _atom_site_type_symbol
  _atom_site_label
  _atom_site_symmetry_multiplicity
  _atom_site_fract_x
  _atom_site_fract_y
  _atom_site_fract_z
  _atom_site_occupancy
  In  In1       1.0  0.25700  0.00000  0.50000  1.0000
  In  In2       1.0  0.00000  0.25700  0.50000  1.0000
  In  In3       1.0  0.74300  0.74300  0.50000  1.0000
  Ir  Ir1       1.0  0.00001  0.00001  0.00000  1.0000
  Ir  Ir2       1.0  0.66700  0.33300  0.50000  1.0000
  Ir  Ir3       1.0  0.33300  0.66700  0.50000  1.0000
  Tb  Tb1       1.0  0.59400  0.00001  0.00000  1.0000
  Tb  Tb2       1.0  0.40600  0.40600  0.00000  1.0000
  Tb  Tb3       1.0  0.00001  0.59400  0.00000  1.0000
