data_image0
_chemical_formula_structural       Cl4Li2Rb2
_chemical_formula_sum              "Cl4 Li2 Rb2"
_cell_length_a       4.12765
_cell_length_b       7.05977
_cell_length_c       7.56271
_cell_angle_alpha    90
_cell_angle_beta     74.1634
_cell_angle_gamma    90

_space_group_name_H-M_alt    "P 1"
_space_group_IT_number       1

loop_
  _space_group_symop_operation_xyz
  'x, y, z'

loop_
  _atom_site_type_symbol
  _atom_site_label
  _atom_site_symmetry_multiplicity
  _atom_site_fract_x
  _atom_site_fract_y
  _atom_site_fract_z
  _atom_site_occupancy
  Cl  Cl1       1.0  0.00000  0.00000  0.00000  1.0000
  Cl  Cl2       1.0  0.00000  0.50000  0.00000  1.0000
  Cl  Cl3       1.0  0.30900  0.25000  0.38100  1.0000
  Cl  Cl4       1.0  0.69100  0.75000  0.61900  1.0000
  Li  Li1       1.0  0.89300  0.25000  0.21300  1.0000
  Li  Li2       1.0  0.10700  0.75000  0.78700  1.0000
  Rb  Rb1       1.0  0.36900  0.75000  0.26200  1.0000
  Rb  Rb2       1.0  0.63100  0.25000  0.73800  1.0000
