data_image0
_chemical_formula_structural       Pr4Si4
_chemical_formula_sum              "Pr4 Si4"
_cell_length_a       8.33568
_cell_length_b       3.96822
_cell_length_c       5.97444
_cell_angle_alpha    90
_cell_angle_beta     90
_cell_angle_gamma    90

_space_group_name_H-M_alt    "P 1"
_space_group_IT_number       1

loop_
  _space_group_symop_operation_xyz
  'x, y, z'

loop_
  _atom_site_type_symbol
  _atom_site_label
  _atom_site_symmetry_multiplicity
  _atom_site_fract_x
  _atom_site_fract_y
  _atom_site_fract_z
  _atom_site_occupancy
  Pr  Pr1       1.0  0.18000  0.25000  0.11400  1.0000
  Pr  Pr2       1.0  0.68000  0.25000  0.38600  1.0000
  Pr  Pr3       1.0  0.32000  0.75000  0.61400  1.0000
  Pr  Pr4       1.0  0.82000  0.75000  0.88600  1.0000
  Si  Si1       1.0  0.46500  0.75000  0.12100  1.0000
  Si  Si2       1.0  0.96500  0.75000  0.37900  1.0000
  Si  Si3       1.0  0.03480  0.25000  0.62100  1.0000
  Si  Si4       1.0  0.53500  0.25000  0.87900  1.0000
