data_image0
_chemical_formula_structural       FeLi4N2
_chemical_formula_sum              "Fe1 Li4 N2"
_cell_length_a       3.6333
_cell_length_b       5.5193
_cell_length_c       5.5193
_cell_angle_alpha    102.679
_cell_angle_beta     109.217
_cell_angle_gamma    109.217

_space_group_name_H-M_alt    "P 1"
_space_group_IT_number       1

loop_
  _space_group_symop_operation_xyz
  'x, y, z'

loop_
  _atom_site_type_symbol
  _atom_site_label
  _atom_site_symmetry_multiplicity
  _atom_site_fract_x
  _atom_site_fract_y
  _atom_site_fract_z
  _atom_site_occupancy
  Fe  Fe1       1.0  0.00000  0.00000  0.00000  1.0000
  Li  Li1       1.0  0.68400  0.36900  0.99800  1.0000
  Li  Li2       1.0  0.31600  0.63100  0.00150  1.0000
  Li  Li3       1.0  0.68400  0.99800  0.36900  1.0000
  Li  Li4       1.0  0.31600  0.00150  0.63100  1.0000
  N   N1        1.0  0.00000  0.78400  0.21600  1.0000
  N   N2        1.0  0.00000  0.21600  0.78400  1.0000
