data_image0
_chemical_formula_structural       As2Cu2K4
_chemical_formula_sum              "As2 Cu2 K4"
_cell_length_a       5.89867
_cell_length_b       6.28691
_cell_length_c       6.28691
_cell_angle_alpha    74.2638
_cell_angle_beta     90
_cell_angle_gamma    90

_space_group_name_H-M_alt    "P 1"
_space_group_IT_number       1

loop_
  _space_group_symop_operation_xyz
  'x, y, z'

loop_
  _atom_site_type_symbol
  _atom_site_label
  _atom_site_symmetry_multiplicity
  _atom_site_fract_x
  _atom_site_fract_y
  _atom_site_fract_z
  _atom_site_occupancy
  As  As1       1.0  0.25000  0.74100  0.25900  1.0000
  As  As2       1.0  0.75000  0.25900  0.74100  1.0000
  Cu  Cu1       1.0  0.00000  0.50000  0.50000  1.0000
  Cu  Cu2       1.0  0.50000  0.50000  0.50000  1.0000
  K   K1        1.0  0.25000  0.31500  0.02290  1.0000
  K   K2        1.0  0.75000  0.02290  0.31500  1.0000
  K   K3        1.0  0.25000  0.97700  0.68500  1.0000
  K   K4        1.0  0.75000  0.68500  0.97700  1.0000
