data_image0
_chemical_formula_structural       Cu2Ge2Ho2
_chemical_formula_sum              "Cu2 Ge2 Ho2"
_cell_length_a       4.23804
_cell_length_b       4.23799
_cell_length_c       7.21519
_cell_angle_alpha    90
_cell_angle_beta     90
_cell_angle_gamma    120

_space_group_name_H-M_alt    "P 1"
_space_group_IT_number       1

loop_
  _space_group_symop_operation_xyz
  'x, y, z'

loop_
  _atom_site_type_symbol
  _atom_site_label
  _atom_site_symmetry_multiplicity
  _atom_site_fract_x
  _atom_site_fract_y
  _atom_site_fract_z
  _atom_site_occupancy
  Cu  Cu1       1.0  0.33300  0.66700  0.03170  1.0000
  Cu  Cu2       1.0  0.66700  0.33300  0.53200  1.0000
  Ge  Ge1       1.0  0.33300  0.66700  0.47800  1.0000
  Ge  Ge2       1.0  0.66700  0.33300  0.97800  1.0000
  Ho  Ho1       1.0  0.00000  0.00000  0.25100  1.0000
  Ho  Ho2       1.0  0.00001  0.00001  0.75100  1.0000
