data_image0
_chemical_formula_structural       C4FeSc3
_chemical_formula_sum              "C4 Fe1 Sc3"
_cell_length_a       3.38701
_cell_length_b       4.3467
_cell_length_c       6.64722
_cell_angle_alpha    109.084
_cell_angle_beta     104.76
_cell_angle_gamma    90

_space_group_name_H-M_alt    "P 1"
_space_group_IT_number       1

loop_
  _space_group_symop_operation_xyz
  'x, y, z'

loop_
  _atom_site_type_symbol
  _atom_site_label
  _atom_site_symmetry_multiplicity
  _atom_site_fract_x
  _atom_site_fract_y
  _atom_site_fract_z
  _atom_site_occupancy
  C   C1        1.0  0.62400  0.45800  0.24800  1.0000
  C   C2        1.0  0.62400  0.79000  0.24800  1.0000
  C   C3        1.0  0.37600  0.21000  0.75200  1.0000
  C   C4        1.0  0.37600  0.54200  0.75200  1.0000
  Fe  Fe1       1.0  0.50000  0.00000  0.00000  1.0000
  Sc  Sc1       1.0  0.00000  0.50000  0.00000  1.0000
  Sc  Sc2       1.0  0.18800  0.18800  0.37700  1.0000
  Sc  Sc3       1.0  0.81200  0.81200  0.62300  1.0000
