data_image0
_chemical_formula_structural       Co4Ho4Sn4
_chemical_formula_sum              "Co4 Ho4 Sn4"
_cell_length_a       7.23884
_cell_length_b       4.55547
_cell_length_c       7.2892
_cell_angle_alpha    90
_cell_angle_beta     90
_cell_angle_gamma    90

_space_group_name_H-M_alt    "P 1"
_space_group_IT_number       1

loop_
  _space_group_symop_operation_xyz
  'x, y, z'

loop_
  _atom_site_type_symbol
  _atom_site_label
  _atom_site_symmetry_multiplicity
  _atom_site_fract_x
  _atom_site_fract_y
  _atom_site_fract_z
  _atom_site_occupancy
  Co  Co1       1.0  0.34700  0.75000  0.05890  1.0000
  Co  Co2       1.0  0.84700  0.75000  0.44100  1.0000
  Co  Co3       1.0  0.15300  0.25000  0.55900  1.0000
  Co  Co4       1.0  0.65300  0.25000  0.94100  1.0000
  Ho  Ho1       1.0  0.97800  0.25000  0.20100  1.0000
  Ho  Ho2       1.0  0.47800  0.25000  0.29900  1.0000
  Ho  Ho3       1.0  0.52200  0.75000  0.70100  1.0000
  Ho  Ho4       1.0  0.02220  0.75000  0.79900  1.0000
  Sn  Sn1       1.0  0.70500  0.75000  0.10900  1.0000
  Sn  Sn2       1.0  0.20500  0.75000  0.39100  1.0000
  Sn  Sn3       1.0  0.79500  0.25000  0.60900  1.0000
  Sn  Sn4       1.0  0.29500  0.25000  0.89100  1.0000
