data_image0
_chemical_formula_structural       B4Mg6Mn6O20
_chemical_formula_sum              "B4 Mg6 Mn6 O20"
_cell_length_a       5.42497
_cell_length_b       5.9788
_cell_length_c       12.6128
_cell_angle_alpha    90
_cell_angle_beta     121.358
_cell_angle_gamma    90

_space_group_name_H-M_alt    "P 1"
_space_group_IT_number       1

loop_
  _space_group_symop_operation_xyz
  'x, y, z'

loop_
  _atom_site_type_symbol
  _atom_site_label
  _atom_site_symmetry_multiplicity
  _atom_site_fract_x
  _atom_site_fract_y
  _atom_site_fract_z
  _atom_site_occupancy
  B   B1        1.0  0.56500  0.00386  0.26400  1.0000
  B   B2        1.0  0.56500  0.49600  0.26400  1.0000
  B   B3        1.0  0.43500  0.99600  0.73600  1.0000
  B   B4        1.0  0.43500  0.50400  0.73600  1.0000
  Mg  Mg1       1.0  0.00000  0.00000  0.00000  1.0000
  Mg  Mg2       1.0  0.00000  0.50000  0.00000  1.0000
  Mg  Mg3       1.0  0.01970  0.25000  0.22500  1.0000
  Mg  Mg4       1.0  0.00256  0.25000  0.49900  1.0000
  Mg  Mg5       1.0  0.99700  0.75000  0.50100  1.0000
  Mg  Mg6       1.0  0.98000  0.75000  0.77500  1.0000
  Mn  Mn1       1.0  0.50000  0.00000  0.00000  1.0000
  Mn  Mn2       1.0  0.50000  0.50000  0.00000  1.0000
  Mn  Mn3       1.0  0.02430  0.75000  0.22900  1.0000
  Mn  Mn4       1.0  0.50000  0.00000  0.50000  1.0000
  Mn  Mn5       1.0  0.50000  0.50000  0.50000  1.0000
  Mn  Mn6       1.0  0.97600  0.25000  0.77100  1.0000
  O   O1        1.0  0.77900  0.25000  0.02720  1.0000
  O   O2        1.0  0.77900  0.75000  0.03110  1.0000
  O   O3        1.0  0.26400  0.00632  0.19700  1.0000
  O   O4        1.0  0.26400  0.49400  0.19700  1.0000
  O   O5        1.0  0.71400  0.00748  0.20200  1.0000
  O   O6        1.0  0.71400  0.49300  0.20200  1.0000
  O   O7        1.0  0.71800  0.00000  0.39100  1.0000
  O   O8        1.0  0.71800  0.50000  0.39100  1.0000
  O   O9        1.0  0.23600  0.25000  0.41000  1.0000
  O   O10       1.0  0.23100  0.75000  0.41200  1.0000
  O   O11       1.0  0.76900  0.25000  0.58800  1.0000
  O   O12       1.0  0.76400  0.75000  0.59000  1.0000
  O   O13       1.0  0.28200  0.00039  0.60900  1.0000
  O   O14       1.0  0.28200  0.50000  0.60900  1.0000
  O   O15       1.0  0.28600  0.99300  0.79800  1.0000
  O   O16       1.0  0.28600  0.50700  0.79800  1.0000
  O   O17       1.0  0.73600  0.99400  0.80300  1.0000
  O   O18       1.0  0.73600  0.50600  0.80300  1.0000
  O   O19       1.0  0.22100  0.25000  0.96900  1.0000
  O   O20       1.0  0.22100  0.75000  0.97300  1.0000
