data_image0
_chemical_formula_structural       Cu3TaTe4
_chemical_formula_sum              "Cu3 Ta1 Te4"
_cell_length_a       5.96695
_cell_length_b       5.96695
_cell_length_c       5.96695
_cell_angle_alpha    90
_cell_angle_beta     90
_cell_angle_gamma    90

_space_group_name_H-M_alt    "P 1"
_space_group_IT_number       1

loop_
  _space_group_symop_operation_xyz
  'x, y, z'

loop_
  _atom_site_type_symbol
  _atom_site_label
  _atom_site_symmetry_multiplicity
  _atom_site_fract_x
  _atom_site_fract_y
  _atom_site_fract_z
  _atom_site_occupancy
  Cu  Cu1       1.0  0.50000  0.00000  0.00000  1.0000
  Cu  Cu2       1.0  0.00000  0.50000  0.00000  1.0000
  Cu  Cu3       1.0  0.00000  0.00000  0.50000  1.0000
  Ta  Ta1       1.0  0.00000  0.00000  0.00000  1.0000
  Te  Te1       1.0  0.25900  0.25900  0.25900  1.0000
  Te  Te2       1.0  0.74100  0.74100  0.25900  1.0000
  Te  Te3       1.0  0.74100  0.25900  0.74100  1.0000
  Te  Te4       1.0  0.25900  0.74100  0.74100  1.0000
