data_image0
_chemical_formula_structural       Ce4Ir4Si4
_chemical_formula_sum              "Ce4 Ir4 Si4"
_cell_length_a       6.4175
_cell_length_b       6.4175
_cell_length_c       6.4175
_cell_angle_alpha    90
_cell_angle_beta     90
_cell_angle_gamma    90

_space_group_name_H-M_alt    "P 1"
_space_group_IT_number       1

loop_
  _space_group_symop_operation_xyz
  'x, y, z'

loop_
  _atom_site_type_symbol
  _atom_site_label
  _atom_site_symmetry_multiplicity
  _atom_site_fract_x
  _atom_site_fract_y
  _atom_site_fract_z
  _atom_site_occupancy
  Ce  Ce1       1.0  0.87600  0.37600  0.12400  1.0000
  Ce  Ce2       1.0  0.12400  0.87600  0.37600  1.0000
  Ce  Ce3       1.0  0.62400  0.62400  0.62400  1.0000
  Ce  Ce4       1.0  0.37600  0.12400  0.87600  1.0000
  Ir  Ir1       1.0  0.67700  0.82300  0.17700  1.0000
  Ir  Ir2       1.0  0.32300  0.32300  0.32300  1.0000
  Ir  Ir3       1.0  0.82300  0.17700  0.67700  1.0000
  Ir  Ir4       1.0  0.17700  0.67700  0.82300  1.0000
  Si  Si1       1.0  0.41100  0.58900  0.08860  1.0000
  Si  Si2       1.0  0.58900  0.08860  0.41100  1.0000
  Si  Si3       1.0  0.08860  0.41100  0.58900  1.0000
  Si  Si4       1.0  0.91100  0.91100  0.91100  1.0000
