data_image0
_chemical_formula_structural       As4N4O4
_chemical_formula_sum              "As4 N4 O4"
_cell_length_a       4.86033
_cell_length_b       4.86033
_cell_length_c       7.13814
_cell_angle_alpha    90
_cell_angle_beta     90
_cell_angle_gamma    90

_space_group_name_H-M_alt    "P 1"
_space_group_IT_number       1

loop_
  _space_group_symop_operation_xyz
  'x, y, z'

loop_
  _atom_site_type_symbol
  _atom_site_label
  _atom_site_symmetry_multiplicity
  _atom_site_fract_x
  _atom_site_fract_y
  _atom_site_fract_z
  _atom_site_occupancy
  As  As1       1.0  0.00000  0.00000  0.00000  1.0000
  As  As2       1.0  0.00000  0.50000  0.27900  1.0000
  As  As3       1.0  0.50000  0.50000  0.50000  1.0000
  As  As4       1.0  0.50000  0.00000  0.72100  1.0000
  N   N1        1.0  0.73500  0.29500  0.36300  1.0000
  N   N2        1.0  0.26500  0.70500  0.36300  1.0000
  N   N3        1.0  0.29500  0.26500  0.63700  1.0000
  N   N4        1.0  0.70500  0.73500  0.63700  1.0000
  O   O1        1.0  0.17300  0.25900  0.11800  1.0000
  O   O2        1.0  0.82700  0.74100  0.11800  1.0000
  O   O3        1.0  0.74100  0.17300  0.88200  1.0000
  O   O4        1.0  0.25900  0.82700  0.88200  1.0000
