data_image0
_chemical_formula_structural       O12Ru2Sr4Y2
_chemical_formula_sum              "O12 Ru2 Sr4 Y2"
_cell_length_a       5.76809
_cell_length_b       5.80877
_cell_length_c       8.17276
_cell_angle_alpha    90
_cell_angle_beta     90.4077
_cell_angle_gamma    90

_space_group_name_H-M_alt    "P 1"
_space_group_IT_number       1

loop_
  _space_group_symop_operation_xyz
  'x, y, z'

loop_
  _atom_site_type_symbol
  _atom_site_label
  _atom_site_symmetry_multiplicity
  _atom_site_fract_x
  _atom_site_fract_y
  _atom_site_fract_z
  _atom_site_occupancy
  O   O1        1.0  0.77300  0.80300  0.04100  1.0000
  O   O2        1.0  0.69400  0.27500  0.04200  1.0000
  O   O3        1.0  0.42100  0.98000  0.23400  1.0000
  O   O4        1.0  0.07880  0.48000  0.26600  1.0000
  O   O5        1.0  0.80600  0.77500  0.45800  1.0000
  O   O6        1.0  0.72700  0.30300  0.45900  1.0000
  O   O7        1.0  0.27300  0.69700  0.54100  1.0000
  O   O8        1.0  0.19400  0.22500  0.54200  1.0000
  O   O9        1.0  0.92100  0.52000  0.73400  1.0000
  O   O10       1.0  0.57900  0.01990  0.76600  1.0000
  O   O11       1.0  0.30600  0.72500  0.95800  1.0000
  O   O12       1.0  0.22700  0.19700  0.95900  1.0000
  Ru  Ru1       1.0  0.50000  0.00000  0.00000  1.0000
  Ru  Ru2       1.0  1.00000  0.50000  0.50000  1.0000
  Sr  Sr1       1.0  0.50800  0.53800  0.24900  1.0000
  Sr  Sr2       1.0  0.99200  0.03810  0.25100  1.0000
  Sr  Sr3       1.0  0.00834  0.96200  0.74900  1.0000
  Sr  Sr4       1.0  0.49200  0.46200  0.75100  1.0000
  Y   Y1        1.0  0.00000  0.50000  0.00000  1.0000
  Y   Y2        1.0  0.50000  0.00000  0.50000  1.0000
