data_image0
_chemical_formula_structural       Cs4Cu20Te12
_chemical_formula_sum              "Cs4 Cu20 Te12"
_cell_length_a       4.22908
_cell_length_b       13.8295
_cell_length_c       13.8295
_cell_angle_alpha    90
_cell_angle_beta     90
_cell_angle_gamma    90

_space_group_name_H-M_alt    "P 1"
_space_group_IT_number       1

loop_
  _space_group_symop_operation_xyz
  'x, y, z'

loop_
  _atom_site_type_symbol
  _atom_site_label
  _atom_site_symmetry_multiplicity
  _atom_site_fract_x
  _atom_site_fract_y
  _atom_site_fract_z
  _atom_site_occupancy
  Cs  Cs1       1.0  0.00000  0.10900  0.10900  1.0000
  Cs  Cs2       1.0  0.50000  0.60900  0.39100  1.0000
  Cs  Cs3       1.0  0.50000  0.39100  0.60900  1.0000
  Cs  Cs4       1.0  0.00000  0.89100  0.89100  1.0000
  Cu  Cu1       1.0  0.00000  0.40700  0.01810  1.0000
  Cu  Cu2       1.0  0.50000  0.70200  0.08030  1.0000
  Cu  Cu3       1.0  0.50000  0.51800  0.09270  1.0000
  Cu  Cu4       1.0  0.00000  0.81000  0.19000  1.0000
  Cu  Cu5       1.0  0.00000  0.42000  0.20200  1.0000
  Cu  Cu6       1.0  0.50000  0.92000  0.29800  1.0000
  Cu  Cu7       1.0  0.50000  0.31000  0.31000  1.0000
  Cu  Cu8       1.0  0.00000  0.01810  0.40700  1.0000
  Cu  Cu9       1.0  0.00000  0.20200  0.42000  1.0000
  Cu  Cu10      1.0  0.50000  0.90700  0.48200  1.0000
  Cu  Cu11      1.0  0.50000  0.09270  0.51800  1.0000
  Cu  Cu12      1.0  0.00000  0.79800  0.58000  1.0000
  Cu  Cu13      1.0  0.00000  0.98200  0.59300  1.0000
  Cu  Cu14      1.0  0.50000  0.69000  0.69000  1.0000
  Cu  Cu15      1.0  0.50000  0.08030  0.70200  1.0000
  Cu  Cu16      1.0  0.00000  0.58000  0.79800  1.0000
  Cu  Cu17      1.0  0.00000  0.19000  0.81000  1.0000
  Cu  Cu18      1.0  0.50000  0.48200  0.90700  1.0000
  Cu  Cu19      1.0  0.50000  0.29800  0.92000  1.0000
  Cu  Cu20      1.0  0.00000  0.59300  0.98200  1.0000
  Te  Te1       1.0  0.50000  0.33000  0.11300  1.0000
  Te  Te2       1.0  0.50000  0.88600  0.11400  1.0000
  Te  Te3       1.0  0.00000  0.61300  0.17000  1.0000
  Te  Te4       1.0  0.50000  0.11300  0.33000  1.0000
  Te  Te5       1.0  0.00000  0.38600  0.38600  1.0000
  Te  Te6       1.0  0.00000  0.83000  0.38700  1.0000
  Te  Te7       1.0  0.00000  0.17000  0.61300  1.0000
  Te  Te8       1.0  0.00000  0.61400  0.61400  1.0000
  Te  Te9       1.0  0.50000  0.88700  0.67000  1.0000
  Te  Te10      1.0  0.00000  0.38700  0.83000  1.0000
  Te  Te11      1.0  0.50000  0.11400  0.88600  1.0000
  Te  Te12      1.0  0.50000  0.67000  0.88700  1.0000
