data_image0
_chemical_formula_structural       Cu10S13Te4
_chemical_formula_sum              "Cu10 S13 Te4"
_cell_length_a       8.95195
_cell_length_b       8.95311
_cell_length_c       8.98514
_cell_angle_alpha    108.773
_cell_angle_beta     108.77
_cell_angle_gamma    110.694

_space_group_name_H-M_alt    "P 1"
_space_group_IT_number       1

loop_
  _space_group_symop_operation_xyz
  'x, y, z'

loop_
  _atom_site_type_symbol
  _atom_site_label
  _atom_site_symmetry_multiplicity
  _atom_site_fract_x
  _atom_site_fract_y
  _atom_site_fract_z
  _atom_site_occupancy
  Cu  Cu1       1.0  0.78600  0.78600  0.00695  1.0000
  Cu  Cu2       1.0  0.00724  0.22600  0.23300  1.0000
  Cu  Cu3       1.0  0.22600  0.00723  0.23300  1.0000
  Cu  Cu4       1.0  0.49400  0.74500  0.25000  1.0000
  Cu  Cu5       1.0  0.74500  0.49400  0.25000  1.0000
  Cu  Cu6       1.0  0.74400  0.25500  0.50300  1.0000
  Cu  Cu7       1.0  0.25500  0.74400  0.50300  1.0000
  Cu  Cu8       1.0  0.25600  0.50700  0.75100  1.0000
  Cu  Cu9       1.0  0.50700  0.25600  0.75100  1.0000
  Cu  Cu10      1.0  0.21800  0.21800  0.99800  1.0000
  S   S1        1.0  0.01540  0.01540  0.02820  1.0000
  S   S2        1.0  0.74700  0.74700  0.22800  1.0000
  S   S3        1.0  0.99700  0.47800  0.25000  1.0000
  S   S4        1.0  0.47800  0.99700  0.25000  1.0000
  S   S5        1.0  0.00032  0.25400  0.48600  1.0000
  S   S6        1.0  0.25400  0.00028  0.48600  1.0000
  S   S7        1.0  0.78100  0.53000  0.52500  1.0000
  S   S8        1.0  0.53000  0.78100  0.52500  1.0000
  S   S9        1.0  0.74600  0.21900  0.74600  1.0000
  S   S10       1.0  0.21900  0.74600  0.74700  1.0000
  S   S11       1.0  0.52800  0.52800  0.77700  1.0000
  S   S12       1.0  0.24900  0.47600  0.99600  1.0000
  S   S13       1.0  0.47600  0.25000  0.99600  1.0000
  Te  Te1       1.0  0.48500  0.48500  0.47500  1.0000
  Te  Te2       1.0  0.99600  0.99600  0.53100  1.0000
  Te  Te3       1.0  0.98900  0.51700  0.98700  1.0000
  Te  Te4       1.0  0.51700  0.98900  0.98800  1.0000
