data_image0
_chemical_formula_structural       Ag6Bi16Cs4Se30
_chemical_formula_sum              "Ag6 Bi16 Cs4 Se30"
_cell_length_a       4.18
_cell_length_b       32.4135
_cell_length_c       12.5287
_cell_angle_alpha    90
_cell_angle_beta     90
_cell_angle_gamma    90

_space_group_name_H-M_alt    "P 1"
_space_group_IT_number       1

loop_
  _space_group_symop_operation_xyz
  'x, y, z'

loop_
  _atom_site_type_symbol
  _atom_site_label
  _atom_site_symmetry_multiplicity
  _atom_site_fract_x
  _atom_site_fract_y
  _atom_site_fract_z
  _atom_site_occupancy
  Ag  Ag1       1.0  0.00000  0.75000  0.00000  1.0000
  Ag  Ag2       1.0  0.00000  0.21600  0.21300  1.0000
  Ag  Ag3       1.0  0.50000  0.71600  0.28700  1.0000
  Ag  Ag4       1.0  0.50000  0.25000  0.50000  1.0000
  Ag  Ag5       1.0  0.50000  0.78400  0.71300  1.0000
  Ag  Ag6       1.0  0.00000  0.28400  0.78700  1.0000
  Bi  Bi1       1.0  0.50000  0.31200  0.06520  1.0000
  Bi  Bi2       1.0  0.00000  0.09120  0.10900  1.0000
  Bi  Bi3       1.0  0.00000  0.62800  0.11200  1.0000
  Bi  Bi4       1.0  0.50000  0.83700  0.15500  1.0000
  Bi  Bi5       1.0  0.00000  0.33700  0.34500  1.0000
  Bi  Bi6       1.0  0.50000  0.12800  0.38800  1.0000
  Bi  Bi7       1.0  0.50000  0.59100  0.39100  1.0000
  Bi  Bi8       1.0  0.00000  0.81200  0.43500  1.0000
  Bi  Bi9       1.0  0.00000  0.68800  0.56500  1.0000
  Bi  Bi10      1.0  0.50000  0.90900  0.60900  1.0000
  Bi  Bi11      1.0  0.50000  0.37200  0.61200  1.0000
  Bi  Bi12      1.0  0.00000  0.16300  0.65500  1.0000
  Bi  Bi13      1.0  0.50000  0.66300  0.84500  1.0000
  Bi  Bi14      1.0  0.00000  0.87200  0.88800  1.0000
  Bi  Bi15      1.0  0.00000  0.40900  0.89100  1.0000
  Bi  Bi16      1.0  0.50000  0.18800  0.93500  1.0000
  Cs  Cs1       1.0  0.00000  0.47500  0.20800  1.0000
  Cs  Cs2       1.0  0.50000  0.97500  0.29200  1.0000
  Cs  Cs3       1.0  0.50000  0.52500  0.70800  1.0000
  Cs  Cs4       1.0  0.00000  0.02460  0.79200  1.0000
  Se  Se1       1.0  0.00000  0.25000  0.00000  1.0000
  Se  Se2       1.0  0.50000  0.03710  0.04920  1.0000
  Se  Se3       1.0  0.50000  0.69400  0.06230  1.0000
  Se  Se4       1.0  0.00000  0.89700  0.10900  1.0000
  Se  Se5       1.0  0.00000  0.36900  0.12000  1.0000
  Se  Se6       1.0  0.50000  0.16100  0.16300  1.0000
  Se  Se7       1.0  0.50000  0.56900  0.16900  1.0000
  Se  Se8       1.0  0.00000  0.77400  0.22200  1.0000
  Se  Se9       1.0  0.50000  0.27400  0.27800  1.0000
  Se  Se10      1.0  0.00000  0.06920  0.33100  1.0000
  Se  Se11      1.0  0.00000  0.66100  0.33700  1.0000
  Se  Se12      1.0  0.50000  0.86900  0.38000  1.0000
  Se  Se13      1.0  0.50000  0.39700  0.39100  1.0000
  Se  Se14      1.0  0.00000  0.19400  0.43800  1.0000
  Se  Se15      1.0  0.00000  0.53700  0.45100  1.0000
  Se  Se16      1.0  0.50000  0.75000  0.50000  1.0000
  Se  Se17      1.0  0.00000  0.96300  0.54900  1.0000
  Se  Se18      1.0  0.00000  0.30600  0.56200  1.0000
  Se  Se19      1.0  0.50000  0.10300  0.60900  1.0000
  Se  Se20      1.0  0.50000  0.63100  0.62000  1.0000
  Se  Se21      1.0  0.00000  0.83900  0.66300  1.0000
  Se  Se22      1.0  0.00000  0.43100  0.66900  1.0000
  Se  Se23      1.0  0.50000  0.22600  0.72200  1.0000
  Se  Se24      1.0  0.00000  0.72600  0.77800  1.0000
  Se  Se25      1.0  0.50000  0.93100  0.83100  1.0000
  Se  Se26      1.0  0.50000  0.33900  0.83700  1.0000
  Se  Se27      1.0  0.00000  0.13100  0.88000  1.0000
  Se  Se28      1.0  0.00000  0.60300  0.89100  1.0000
  Se  Se29      1.0  0.50000  0.80600  0.93800  1.0000
  Se  Se30      1.0  0.50000  0.46300  0.95100  1.0000
