data_image0
_chemical_formula_structural       K4O16V6
_chemical_formula_sum              "K4 O16 V6"
_cell_length_a       8.86253
_cell_length_b       8.86253
_cell_length_c       4.75002
_cell_angle_alpha    90
_cell_angle_beta     90
_cell_angle_gamma    90

_space_group_name_H-M_alt    "P 1"
_space_group_IT_number       1

loop_
  _space_group_symop_operation_xyz
  'x, y, z'

loop_
  _atom_site_type_symbol
  _atom_site_label
  _atom_site_symmetry_multiplicity
  _atom_site_fract_x
  _atom_site_fract_y
  _atom_site_fract_z
  _atom_site_occupancy
  K   K1        1.0  0.33000  0.83000  0.98700  1.0000
  K   K2        1.0  0.67000  0.17000  0.98700  1.0000
  K   K3        1.0  0.17000  0.33000  0.98700  1.0000
  K   K4        1.0  0.83000  0.67000  0.98700  1.0000
  O   O1        1.0  0.00000  0.00000  0.14000  1.0000
  O   O2        1.0  0.50000  0.50000  0.14000  1.0000
  O   O3        1.0  0.00000  0.50000  0.63100  1.0000
  O   O4        1.0  0.50000  0.00000  0.63100  1.0000
  O   O5        1.0  0.12700  0.62700  0.14700  1.0000
  O   O6        1.0  0.87300  0.37300  0.14700  1.0000
  O   O7        1.0  0.37300  0.12700  0.14700  1.0000
  O   O8        1.0  0.62700  0.87300  0.14700  1.0000
  O   O9        1.0  0.09510  0.81400  0.60900  1.0000
  O   O10       1.0  0.90500  0.18600  0.60900  1.0000
  O   O11       1.0  0.18600  0.09510  0.60900  1.0000
  O   O12       1.0  0.81400  0.90500  0.60900  1.0000
  O   O13       1.0  0.40500  0.31400  0.60900  1.0000
  O   O14       1.0  0.59500  0.68600  0.60900  1.0000
  O   O15       1.0  0.31400  0.59500  0.60900  1.0000
  O   O16       1.0  0.68600  0.40500  0.60900  1.0000
  V   V1        1.0  0.13500  0.63500  0.49400  1.0000
  V   V2        1.0  0.86500  0.36500  0.49400  1.0000
  V   V3        1.0  0.36500  0.13500  0.49400  1.0000
  V   V4        1.0  0.63500  0.86500  0.49400  1.0000
  V   V5        1.0  0.00000  0.00000  0.48700  1.0000
  V   V6        1.0  0.50000  0.50000  0.48700  1.0000
