data_image0
_chemical_formula_structural       La2N2O2Sr2
_chemical_formula_sum              "La2 N2 O2 Sr2"
_cell_length_a       4.4025
_cell_length_b       5.31855
_cell_length_c       7.10841
_cell_angle_alpha    90
_cell_angle_beta     90
_cell_angle_gamma    90

_space_group_name_H-M_alt    "P 1"
_space_group_IT_number       1

loop_
  _space_group_symop_operation_xyz
  'x, y, z'

loop_
  _atom_site_type_symbol
  _atom_site_label
  _atom_site_symmetry_multiplicity
  _atom_site_fract_x
  _atom_site_fract_y
  _atom_site_fract_z
  _atom_site_occupancy
  La  La1       1.0  0.00000  0.45200  0.32600  1.0000
  La  La2       1.0  0.00000  0.95200  0.67400  1.0000
  N   N1        1.0  0.00000  0.91800  0.34900  1.0000
  N   N2        1.0  1.00000  0.41800  0.65100  1.0000
  O   O1        1.0  0.50000  0.43500  0.17700  1.0000
  O   O2        1.0  0.50000  0.93500  0.82300  1.0000
  Sr  Sr1       1.0  0.50000  0.94900  0.17500  1.0000
  Sr  Sr2       1.0  0.50000  0.44900  0.82500  1.0000
