data_image0
_chemical_formula_structural       Co2Fe2N2O2
_chemical_formula_sum              "Co2 Fe2 N2 O2"
_cell_length_a       3.20666
_cell_length_b       5.21199
_cell_length_c       5.49068
_cell_angle_alpha    90
_cell_angle_beta     90
_cell_angle_gamma    90

_space_group_name_H-M_alt    "P 1"
_space_group_IT_number       1

loop_
  _space_group_symop_operation_xyz
  'x, y, z'

loop_
  _atom_site_type_symbol
  _atom_site_label
  _atom_site_symmetry_multiplicity
  _atom_site_fract_x
  _atom_site_fract_y
  _atom_site_fract_z
  _atom_site_occupancy
  Co  Co1       1.0  0.50000  0.99600  0.17500  1.0000
  Co  Co2       1.0  0.50000  0.49600  0.82500  1.0000
  Fe  Fe1       1.0  1.00000  0.50300  0.34000  1.0000
  Fe  Fe2       1.0  1.00000  0.00328  0.66000  1.0000
  N   N1        1.0  0.00000  0.87300  0.33500  1.0000
  N   N2        1.0  0.00000  0.37300  0.66500  1.0000
  O   O1        1.0  0.50000  0.38100  0.17000  1.0000
  O   O2        1.0  0.50000  0.88100  0.83000  1.0000
