data_image0
_chemical_formula_structural       Cs2N2O2Sc2
_chemical_formula_sum              "Cs2 N2 O2 Sc2"
_cell_length_a       5.46401
_cell_length_b       5.46401
_cell_length_c       4.59615
_cell_angle_alpha    90
_cell_angle_beta     90
_cell_angle_gamma    90.042

_space_group_name_H-M_alt    "P 1"
_space_group_IT_number       1

loop_
  _space_group_symop_operation_xyz
  'x, y, z'

loop_
  _atom_site_type_symbol
  _atom_site_label
  _atom_site_symmetry_multiplicity
  _atom_site_fract_x
  _atom_site_fract_y
  _atom_site_fract_z
  _atom_site_occupancy
  Cs  Cs1       1.0  0.25000  0.25000  0.00491  1.0000
  Cs  Cs2       1.0  0.75000  0.75000  0.99500  1.0000
  N   N1        1.0  0.75000  0.75000  0.49500  1.0000
  N   N2        1.0  0.25000  0.25000  0.50500  1.0000
  O   O1        1.0  0.75000  0.25000  0.00000  1.0000
  O   O2        1.0  0.25000  0.75000  0.00000  1.0000
  Sc  Sc1       1.0  0.75000  0.25000  0.50000  1.0000
  Sc  Sc2       1.0  0.25000  0.75000  0.50000  1.0000
