data_image0
_chemical_formula_structural       CoO6OsSr2
_chemical_formula_sum              "Co1 O6 Os1 Sr2"
_cell_length_a       5.60635
_cell_length_b       5.60635
_cell_length_c       5.60635
_cell_angle_alpha    121.354
_cell_angle_beta     121.354
_cell_angle_gamma    87.6699

_space_group_name_H-M_alt    "P 1"
_space_group_IT_number       1

loop_
  _space_group_symop_operation_xyz
  'x, y, z'

loop_
  _atom_site_type_symbol
  _atom_site_label
  _atom_site_symmetry_multiplicity
  _atom_site_fract_x
  _atom_site_fract_y
  _atom_site_fract_z
  _atom_site_occupancy
  Co  Co1       1.0  0.00000  0.00000  0.00000  1.0000
  O   O1        1.0  0.26000  0.26000  0.00000  1.0000
  O   O2        1.0  0.74000  0.74000  0.00000  1.0000
  O   O3        1.0  0.29800  0.78800  0.08530  1.0000
  O   O4        1.0  0.78800  0.70200  0.49000  1.0000
  O   O5        1.0  0.21200  0.29800  0.51000  1.0000
  O   O6        1.0  0.70200  0.21200  0.91500  1.0000
  Os  Os1       1.0  0.50000  0.50000  0.00000  1.0000
  Sr  Sr1       1.0  0.75000  0.25000  0.50000  1.0000
  Sr  Sr2       1.0  0.25000  0.75000  0.50000  1.0000
