# generated using pymatgen
data_Cu10Sn3
_symmetry_space_group_name_H-M   'P 1'
_cell_length_a   7.34045568
_cell_length_b   7.34045568
_cell_length_c   7.87274000
_cell_angle_alpha   90.00000000
_cell_angle_beta   90.00000000
_cell_angle_gamma   119.99999710
_symmetry_Int_Tables_number   1
_chemical_formula_structural   Cu10Sn3
_chemical_formula_sum   'Cu20 Sn6'
_cell_volume   367.36907506
_cell_formula_units_Z   2
loop_
 _symmetry_equiv_pos_site_id
 _symmetry_equiv_pos_as_xyz
  1  'x, y, z'
loop_
 _atom_site_type_symbol
 _atom_site_label
 _atom_site_symmetry_multiplicity
 _atom_site_fract_x
 _atom_site_fract_y
 _atom_site_fract_z
 _atom_site_occupancy
  Cu  Cu0  1  0.00000000  0.00000000  0.50000000  1
  Cu  Cu1  1  0.00000000  0.00000000  0.00000000  1
  Cu  Cu2  1  0.33333300  0.66666700  0.08042100  1
  Cu  Cu3  1  0.66666700  0.33333300  0.58042100  1
  Cu  Cu4  1  0.33333300  0.66666700  0.41957900  1
  Cu  Cu5  1  0.66666700  0.33333300  0.91957900  1
  Cu  Cu6  1  0.33333300  0.66666700  0.75000000  1
  Cu  Cu7  1  0.66666700  0.33333300  0.25000000  1
  Cu  Cu8  1  0.32993000  0.97087100  0.58606700  1
  Cu  Cu9  1  0.02912900  0.35905900  0.58606700  1
  Cu  Cu10  1  0.64094100  0.67007000  0.58606700  1
  Cu  Cu11  1  0.67007000  0.02912900  0.08606700  1
  Cu  Cu12  1  0.97087100  0.64094100  0.08606700  1
  Cu  Cu13  1  0.35905900  0.32993000  0.08606700  1
  Cu  Cu14  1  0.67007000  0.02912900  0.41393300  1
  Cu  Cu15  1  0.97087100  0.64094100  0.41393300  1
  Cu  Cu16  1  0.35905900  0.32993000  0.41393300  1
  Cu  Cu17  1  0.32993000  0.97087100  0.91393300  1
  Cu  Cu18  1  0.02912900  0.35905900  0.91393300  1
  Cu  Cu19  1  0.64094100  0.67007000  0.91393300  1
  Sn  Sn20  1  0.29135700  0.97639300  0.25000000  1
  Sn  Sn21  1  0.02360700  0.31496300  0.25000000  1
  Sn  Sn22  1  0.68503700  0.70864300  0.25000000  1
  Sn  Sn23  1  0.70864300  0.02360700  0.75000000  1
  Sn  Sn24  1  0.97639300  0.68503700  0.75000000  1
  Sn  Sn25  1  0.31496300  0.29135700  0.75000000  1
