data_image0
_chemical_formula_structural       Ba8Bi4O24Ru4
_chemical_formula_sum              "Ba8 Bi4 O24 Ru4"
_cell_length_a       6.03996
_cell_length_b       6.03996
_cell_length_c       19.9273
_cell_angle_alpha    90
_cell_angle_beta     90
_cell_angle_gamma    119.943

_space_group_name_H-M_alt    "P 1"
_space_group_IT_number       1

loop_
  _space_group_symop_operation_xyz
  'x, y, z'

loop_
  _atom_site_type_symbol
  _atom_site_label
  _atom_site_symmetry_multiplicity
  _atom_site_fract_x
  _atom_site_fract_y
  _atom_site_fract_z
  _atom_site_occupancy
  Ba  Ba1       1.0  0.00000  0.00000  0.00000  1.0000
  Ba  Ba2       1.0  0.33200  0.66800  0.14000  1.0000
  Ba  Ba3       1.0  0.66400  0.33600  0.25000  1.0000
  Ba  Ba4       1.0  0.33200  0.66800  0.36000  1.0000
  Ba  Ba5       1.0  0.00000  0.00000  0.50000  1.0000
  Ba  Ba6       1.0  0.66800  0.33200  0.64000  1.0000
  Ba  Ba7       1.0  0.33600  0.66400  0.75000  1.0000
  Ba  Ba8       1.0  0.66800  0.33200  0.86000  1.0000
  Bi  Bi1       1.0  0.66600  0.33400  0.06340  1.0000
  Bi  Bi2       1.0  0.66600  0.33400  0.43700  1.0000
  Bi  Bi3       1.0  0.33400  0.66600  0.56300  1.0000
  Bi  Bi4       1.0  0.33400  0.66600  0.93700  1.0000
  O   O1        1.0  0.50000  0.00000  0.00000  1.0000
  O   O2        1.0  0.00000  0.50000  0.00000  1.0000
  O   O3        1.0  0.50000  0.50000  0.00000  1.0000
  O   O4        1.0  0.30100  0.15600  0.13400  1.0000
  O   O5        1.0  0.84400  0.69900  0.13400  1.0000
  O   O6        1.0  0.84300  0.15700  0.13600  1.0000
  O   O7        1.0  0.16000  0.32100  0.25000  1.0000
  O   O8        1.0  0.67900  0.84000  0.25000  1.0000
  O   O9        1.0  0.15900  0.84100  0.25000  1.0000
  O   O10       1.0  0.84300  0.15700  0.36400  1.0000
  O   O11       1.0  0.30100  0.15600  0.36600  1.0000
  O   O12       1.0  0.84400  0.69900  0.36600  1.0000
  O   O13       1.0  0.50000  0.00000  0.50000  1.0000
  O   O14       1.0  0.00000  0.50000  0.50000  1.0000
  O   O15       1.0  0.50000  0.50000  0.50000  1.0000
  O   O16       1.0  0.15600  0.30100  0.63400  1.0000
  O   O17       1.0  0.69900  0.84400  0.63400  1.0000
  O   O18       1.0  0.15700  0.84300  0.63600  1.0000
  O   O19       1.0  0.84100  0.15900  0.75000  1.0000
  O   O20       1.0  0.32100  0.16000  0.75000  1.0000
  O   O21       1.0  0.84000  0.67900  0.75000  1.0000
  O   O22       1.0  0.15700  0.84300  0.86400  1.0000
  O   O23       1.0  0.15600  0.30100  0.86600  1.0000
  O   O24       1.0  0.69900  0.84400  0.86600  1.0000
  Ru  Ru1       1.0  0.99800  0.00197  0.18900  1.0000
  Ru  Ru2       1.0  0.99800  0.00197  0.31100  1.0000
  Ru  Ru3       1.0  0.00197  0.99800  0.68900  1.0000
  Ru  Ru4       1.0  0.00197  0.99800  0.81100  1.0000
