# generated using pymatgen
data_DyMg2
_symmetry_space_group_name_H-M   'P 1'
_cell_length_a   6.05599344
_cell_length_b   6.05599344
_cell_length_c   9.78539400
_cell_angle_alpha   90.00000000
_cell_angle_beta   90.00000000
_cell_angle_gamma   119.99999386
_symmetry_Int_Tables_number   1
_chemical_formula_structural   DyMg2
_chemical_formula_sum   'Dy4 Mg8'
_cell_volume   310.79911050
_cell_formula_units_Z   4
loop_
 _symmetry_equiv_pos_site_id
 _symmetry_equiv_pos_as_xyz
  1  'x, y, z'
loop_
 _atom_site_type_symbol
 _atom_site_label
 _atom_site_symmetry_multiplicity
 _atom_site_fract_x
 _atom_site_fract_y
 _atom_site_fract_z
 _atom_site_occupancy
  Dy  Dy0  1  0.33333300  0.66666700  0.43600300  1
  Dy  Dy1  1  0.66666700  0.33333300  0.93600300  1
  Dy  Dy2  1  0.66666700  0.33333300  0.56399700  1
  Dy  Dy3  1  0.33333300  0.66666700  0.06399700  1
  Mg  Mg4  1  0.17107000  0.34213900  0.75000000  1
  Mg  Mg5  1  0.82893000  0.17107000  0.25000000  1
  Mg  Mg6  1  0.34213900  0.17107000  0.25000000  1
  Mg  Mg7  1  0.65786100  0.82893000  0.75000000  1
  Mg  Mg8  1  0.00000000  0.00000000  0.00000000  1
  Mg  Mg9  1  0.00000000  0.00000000  0.50000000  1
  Mg  Mg10  1  0.82893000  0.65786100  0.25000000  1
  Mg  Mg11  1  0.17107000  0.82893000  0.75000000  1
