data_image0
_chemical_formula_structural       B4C2Ca4H6MgO18
_chemical_formula_sum              "B4 C2 Ca4 H6 Mg1 O18"
_cell_length_a       4.43564
_cell_length_b       8.45186
_cell_length_c       9.65839
_cell_angle_alpha    115.947
_cell_angle_beta     100.6
_cell_angle_gamma    90

_space_group_name_H-M_alt    "P 1"
_space_group_IT_number       1

loop_
  _space_group_symop_operation_xyz
  'x, y, z'

loop_
  _atom_site_type_symbol
  _atom_site_label
  _atom_site_symmetry_multiplicity
  _atom_site_fract_x
  _atom_site_fract_y
  _atom_site_fract_z
  _atom_site_occupancy
  B   B1        1.0  0.50000  0.23100  0.00000  1.0000
  B   B2        1.0  0.50000  0.76900  0.00000  1.0000
  B   B3        1.0  0.61700  0.09910  0.19800  1.0000
  B   B4        1.0  0.38300  0.90100  0.80200  1.0000
  C   C1        1.0  0.74300  0.69000  0.38000  1.0000
  C   C2        1.0  0.25700  0.31000  0.62000  1.0000
  Ca  Ca1       1.0  0.14800  0.39000  0.31300  1.0000
  Ca  Ca2       1.0  0.14800  0.92400  0.31300  1.0000
  Ca  Ca3       1.0  0.85200  0.07620  0.68700  1.0000
  Ca  Ca4       1.0  0.85200  0.61000  0.68700  1.0000
  H   H1        1.0  0.20600  0.40700  0.01430  1.0000
  H   H2        1.0  0.20600  0.60800  0.01430  1.0000
  H   H3        1.0  0.68500  0.21800  0.43700  1.0000
  H   H4        1.0  0.31500  0.78200  0.56300  1.0000
  H   H5        1.0  0.79400  0.39200  0.98600  1.0000
  H   H6        1.0  0.79400  0.59300  0.98600  1.0000
  Mg  Mg1       1.0  0.00000  0.00000  0.00000  1.0000
  O   O1        1.0  0.32600  0.37600  0.09180  1.0000
  O   O2        1.0  0.32600  0.71600  0.09180  1.0000
  O   O3        1.0  0.72200  0.19700  0.11400  1.0000
  O   O4        1.0  0.72200  0.91800  0.11400  1.0000
  O   O5        1.0  0.30500  0.10300  0.20600  1.0000
  O   O6        1.0  0.95000  0.64800  0.29500  1.0000
  O   O7        1.0  0.82000  0.18100  0.36100  1.0000
  O   O8        1.0  0.64500  0.57900  0.42600  1.0000
  O   O9        1.0  0.64500  0.84700  0.42600  1.0000
  O   O10       1.0  0.35500  0.15300  0.57400  1.0000
  O   O11       1.0  0.35500  0.42100  0.57400  1.0000
  O   O12       1.0  0.18000  0.81900  0.63900  1.0000
  O   O13       1.0  0.04960  0.35200  0.70500  1.0000
  O   O14       1.0  0.69500  0.89700  0.79400  1.0000
  O   O15       1.0  0.27800  0.08240  0.88600  1.0000
  O   O16       1.0  0.27800  0.80300  0.88600  1.0000
  O   O17       1.0  0.67400  0.28400  0.90800  1.0000
  O   O18       1.0  0.67400  0.62400  0.90800  1.0000
