# generated using pymatgen
data_Ga4Ni3
_symmetry_space_group_name_H-M   'P 1'
_cell_length_a   9.94166679
_cell_length_b   9.94166679
_cell_length_c   9.94166679
_cell_angle_alpha   109.47122063
_cell_angle_beta   109.47122063
_cell_angle_gamma   109.47122063
_symmetry_Int_Tables_number   1
_chemical_formula_structural   Ga4Ni3
_chemical_formula_sum   'Ga32 Ni24'
_cell_volume   756.40731280
_cell_formula_units_Z   8
loop_
 _symmetry_equiv_pos_site_id
 _symmetry_equiv_pos_as_xyz
  1  'x, y, z'
loop_
 _atom_site_type_symbol
 _atom_site_label
 _atom_site_symmetry_multiplicity
 _atom_site_fract_x
 _atom_site_fract_y
 _atom_site_fract_z
 _atom_site_occupancy
  Ga  Ga0  1  0.50000000  0.00000000  0.00000000  1
  Ga  Ga1  1  0.50000000  0.50000000  0.00000000  1
  Ga  Ga2  1  0.00000000  0.50000000  0.50000000  1
  Ga  Ga3  1  0.00000000  0.00000000  0.00000000  1
  Ga  Ga4  1  0.00000000  0.00000000  0.50000000  1
  Ga  Ga5  1  0.50000000  0.50000000  0.50000000  1
  Ga  Ga6  1  0.00000000  0.50000000  0.00000000  1
  Ga  Ga7  1  0.50000000  0.00000000  0.50000000  1
  Ga  Ga8  1  0.26230400  0.75000000  0.01230400  1
  Ga  Ga9  1  0.25000000  0.26230400  0.01230400  1
  Ga  Ga10  1  0.75000000  0.23769600  0.48769600  1
  Ga  Ga11  1  0.26230400  0.01230400  0.25000000  1
  Ga  Ga12  1  0.23769600  0.48769600  0.75000000  1
  Ga  Ga13  1  0.01230400  0.25000000  0.26230400  1
  Ga  Ga14  1  0.01230400  0.26230400  0.75000000  1
  Ga  Ga15  1  0.25000000  0.48769600  0.23769600  1
  Ga  Ga16  1  0.48769600  0.23769600  0.25000000  1
  Ga  Ga17  1  0.75000000  0.01230400  0.26230400  1
  Ga  Ga18  1  0.23769600  0.25000000  0.48769600  1
  Ga  Ga19  1  0.48769600  0.75000000  0.23769600  1
  Ga  Ga20  1  0.73769600  0.25000000  0.98769600  1
  Ga  Ga21  1  0.75000000  0.73769600  0.98769600  1
  Ga  Ga22  1  0.25000000  0.76230400  0.51230400  1
  Ga  Ga23  1  0.73769600  0.98769600  0.75000000  1
  Ga  Ga24  1  0.76230400  0.51230400  0.25000000  1
  Ga  Ga25  1  0.98769600  0.75000000  0.73769600  1
  Ga  Ga26  1  0.98769600  0.73769600  0.25000000  1
  Ga  Ga27  1  0.75000000  0.51230400  0.76230400  1
  Ga  Ga28  1  0.51230400  0.76230400  0.75000000  1
  Ga  Ga29  1  0.25000000  0.98769600  0.73769600  1
  Ga  Ga30  1  0.76230400  0.75000000  0.51230400  1
  Ga  Ga31  1  0.51230400  0.25000000  0.76230400  1
  Ni  Ni32  1  0.74190500  0.48380900  0.49190500  1
  Ni  Ni33  1  0.25000000  0.74190500  0.75809500  1
  Ni  Ni34  1  0.48380900  0.49190500  0.74190500  1
  Ni  Ni35  1  0.00809500  0.49190500  0.25000000  1
  Ni  Ni36  1  0.49190500  0.74190500  0.48380900  1
  Ni  Ni37  1  0.75809500  0.25000000  0.74190500  1
  Ni  Ni38  1  0.49190500  0.25000000  0.00809500  1
  Ni  Ni39  1  0.75809500  0.00809500  0.01619100  1
  Ni  Ni40  1  0.25000000  0.00809500  0.49190500  1
  Ni  Ni41  1  0.01619100  0.75809500  0.00809500  1
  Ni  Ni42  1  0.74190500  0.75809500  0.25000000  1
  Ni  Ni43  1  0.00809500  0.01619100  0.75809500  1
  Ni  Ni44  1  0.25809500  0.51619100  0.50809500  1
  Ni  Ni45  1  0.75000000  0.25809500  0.24190500  1
  Ni  Ni46  1  0.51619100  0.50809500  0.25809500  1
  Ni  Ni47  1  0.99190500  0.50809500  0.75000000  1
  Ni  Ni48  1  0.50809500  0.25809500  0.51619100  1
  Ni  Ni49  1  0.24190500  0.75000000  0.25809500  1
  Ni  Ni50  1  0.50809500  0.75000000  0.99190500  1
  Ni  Ni51  1  0.24190500  0.99190500  0.98380900  1
  Ni  Ni52  1  0.75000000  0.99190500  0.50809500  1
  Ni  Ni53  1  0.98380900  0.24190500  0.99190500  1
  Ni  Ni54  1  0.25809500  0.24190500  0.75000000  1
  Ni  Ni55  1  0.99190500  0.98380900  0.24190500  1
