data_image0
_chemical_formula_structural       Co4Mn4O4Se4
_chemical_formula_sum              "Co4 Mn4 O4 Se4"
_cell_length_a       5.66061
_cell_length_b       3.66195
_cell_length_c       13.0141
_cell_angle_alpha    90
_cell_angle_beta     90
_cell_angle_gamma    90

_space_group_name_H-M_alt    "P 1"
_space_group_IT_number       1

loop_
  _space_group_symop_operation_xyz
  'x, y, z'

loop_
  _atom_site_type_symbol
  _atom_site_label
  _atom_site_symmetry_multiplicity
  _atom_site_fract_x
  _atom_site_fract_y
  _atom_site_fract_z
  _atom_site_occupancy
  Co  Co1       1.0  0.62900  0.25000  0.19400  1.0000
  Co  Co2       1.0  0.12900  0.25000  0.30600  1.0000
  Co  Co3       1.0  0.87100  0.75000  0.69400  1.0000
  Co  Co4       1.0  0.37100  0.75000  0.80600  1.0000
  Mn  Mn1       1.0  0.24100  0.75000  0.08880  1.0000
  Mn  Mn2       1.0  0.74100  0.75000  0.41100  1.0000
  Mn  Mn3       1.0  0.25900  0.25000  0.58900  1.0000
  Mn  Mn4       1.0  0.75900  0.25000  0.91100  1.0000
  O   O1        1.0  0.28100  0.25000  0.17300  1.0000
  O   O2        1.0  0.78100  0.25000  0.32700  1.0000
  O   O3        1.0  0.21900  0.75000  0.67300  1.0000
  O   O4        1.0  0.71900  0.75000  0.82700  1.0000
  Se  Se1       1.0  0.76300  0.75000  0.08180  1.0000
  Se  Se2       1.0  0.26300  0.75000  0.41800  1.0000
  Se  Se3       1.0  0.73700  0.25000  0.58200  1.0000
  Se  Se4       1.0  0.23700  0.25000  0.91800  1.0000
