data_image0
_chemical_formula_structural       Ba12O24Te4
_chemical_formula_sum              "Ba12 O24 Te4"
_cell_length_a       9.86926
_cell_length_b       9.86926
_cell_length_c       9.86926
_cell_angle_alpha    109.471
_cell_angle_beta     109.471
_cell_angle_gamma    109.471

_space_group_name_H-M_alt    "P 1"
_space_group_IT_number       1

loop_
  _space_group_symop_operation_xyz
  'x, y, z'

loop_
  _atom_site_type_symbol
  _atom_site_label
  _atom_site_symmetry_multiplicity
  _atom_site_fract_x
  _atom_site_fract_y
  _atom_site_fract_z
  _atom_site_occupancy
  Ba  Ba1       1.0  0.75000  0.78400  0.03430  1.0000
  Ba  Ba2       1.0  0.96600  0.25000  0.21600  1.0000
  Ba  Ba3       1.0  0.71600  0.46600  0.25000  1.0000
  Ba  Ba4       1.0  0.21600  0.96600  0.25000  1.0000
  Ba  Ba5       1.0  0.53400  0.75000  0.28400  1.0000
  Ba  Ba6       1.0  0.25000  0.71600  0.46600  1.0000
  Ba  Ba7       1.0  0.75000  0.28400  0.53400  1.0000
  Ba  Ba8       1.0  0.46600  0.25000  0.71600  1.0000
  Ba  Ba9       1.0  0.78400  0.03430  0.75000  1.0000
  Ba  Ba10      1.0  0.28400  0.53400  0.75000  1.0000
  Ba  Ba11      1.0  0.03430  0.75000  0.78400  1.0000
  Ba  Ba12      1.0  0.25000  0.21600  0.96600  1.0000
  O   O1        1.0  0.05260  0.32400  0.00400  1.0000
  O   O2        1.0  0.49600  0.82000  0.04860  1.0000
  O   O3        1.0  0.32400  0.00400  0.05260  1.0000
  O   O4        1.0  0.22800  0.68000  0.17600  1.0000
  O   O5        1.0  0.95100  0.50400  0.18000  1.0000
  O   O6        1.0  0.68000  0.17600  0.22800  1.0000
  O   O7        1.0  0.44700  0.45100  0.27200  1.0000
  O   O8        1.0  0.82400  0.77200  0.32000  1.0000
  O   O9        1.0  0.00400  0.05260  0.32400  1.0000
  O   O10       1.0  0.45100  0.27200  0.44700  1.0000
  O   O11       1.0  0.27200  0.44700  0.45100  1.0000
  O   O12       1.0  0.82000  0.04860  0.49600  1.0000
  O   O13       1.0  0.18000  0.95100  0.50400  1.0000
  O   O14       1.0  0.72800  0.55300  0.54900  1.0000
  O   O15       1.0  0.54900  0.72800  0.55300  1.0000
  O   O16       1.0  0.99600  0.94700  0.67600  1.0000
  O   O17       1.0  0.17600  0.22800  0.68000  1.0000
  O   O18       1.0  0.55300  0.54900  0.72800  1.0000
  O   O19       1.0  0.32000  0.82400  0.77200  1.0000
  O   O20       1.0  0.04860  0.49600  0.82000  1.0000
  O   O21       1.0  0.77200  0.32000  0.82400  1.0000
  O   O22       1.0  0.67600  0.99600  0.94700  1.0000
  O   O23       1.0  0.50400  0.18000  0.95100  1.0000
  O   O24       1.0  0.94700  0.67600  0.99600  1.0000
  Te  Te1       1.0  0.50000  0.00000  0.00000  1.0000
  Te  Te2       1.0  0.00000  0.50000  0.00000  1.0000
  Te  Te3       1.0  0.00000  0.00000  0.50000  1.0000
  Te  Te4       1.0  0.50000  0.50000  0.50000  1.0000
