data_image0
_chemical_formula_structural       Ba2FeO6Ta
_chemical_formula_sum              "Ba2 Fe1 O6 Ta1"
_cell_length_a       5.734
_cell_length_b       5.734
_cell_length_c       5.734
_cell_angle_alpha    120.065
_cell_angle_beta     120.065
_cell_angle_gamma    89.8879

_space_group_name_H-M_alt    "P 1"
_space_group_IT_number       1

loop_
  _space_group_symop_operation_xyz
  'x, y, z'

loop_
  _atom_site_type_symbol
  _atom_site_label
  _atom_site_symmetry_multiplicity
  _atom_site_fract_x
  _atom_site_fract_y
  _atom_site_fract_z
  _atom_site_occupancy
  Ba  Ba1       1.0  0.75000  0.25000  0.50000  1.0000
  Ba  Ba2       1.0  0.25000  0.75000  0.50000  1.0000
  Fe  Fe1       1.0  0.00000  0.00000  0.00000  1.0000
  O   O1        1.0  0.25300  0.25300  0.00000  1.0000
  O   O2        1.0  0.74700  0.74700  0.00000  1.0000
  O   O3        1.0  0.74800  0.25300  0.00058  1.0000
  O   O4        1.0  0.74700  0.74800  0.49500  1.0000
  O   O5        1.0  0.25300  0.25200  0.50500  1.0000
  O   O6        1.0  0.25200  0.74700  0.99900  1.0000
  Ta  Ta1       1.0  0.50000  0.50000  0.00000  1.0000
