# generated using pymatgen
data_Ba3CrS5
_symmetry_space_group_name_H-M   'P 1'
_cell_length_a   9.29419477
_cell_length_b   9.29419477
_cell_length_c   6.16636800
_cell_angle_alpha   90.00000000
_cell_angle_beta   90.00000000
_cell_angle_gamma   120.00000548
_symmetry_Int_Tables_number   1
_chemical_formula_structural   Ba3CrS5
_chemical_formula_sum   'Ba6 Cr2 S10'
_cell_volume   461.30013914
_cell_formula_units_Z   2
loop_
 _symmetry_equiv_pos_site_id
 _symmetry_equiv_pos_as_xyz
  1  'x, y, z'
loop_
 _atom_site_type_symbol
 _atom_site_label
 _atom_site_symmetry_multiplicity
 _atom_site_fract_x
 _atom_site_fract_y
 _atom_site_fract_z
 _atom_site_occupancy
  Ba  Ba0  1  0.62105300  0.00000000  0.33005600  1
  Ba  Ba1  1  0.62105300  0.62105300  0.83005600  1
  Ba  Ba2  1  0.00000000  0.37894700  0.83005600  1
  Ba  Ba3  1  0.00000000  0.62105300  0.33005600  1
  Ba  Ba4  1  0.37894700  0.37894700  0.33005600  1
  Ba  Ba5  1  0.37894700  0.00000000  0.83005600  1
  Cr  Cr6  1  0.00000000  0.00000000  0.59529900  1
  Cr  Cr7  1  0.00000000  0.00000000  0.09529900  1
  S  S8  1  0.00000000  0.20787500  0.34507000  1
  S  S9  1  0.79212500  0.00000000  0.84507000  1
  S  S10  1  0.20787500  0.20787500  0.84507000  1
  S  S11  1  0.79212500  0.79212500  0.34507000  1
  S  S12  1  0.20787500  0.00000000  0.34507000  1
  S  S13  1  0.00000000  0.79212500  0.84507000  1
  S  S14  1  0.33333300  0.66666700  0.08016100  1
  S  S15  1  0.66666700  0.33333300  0.58016100  1
  S  S16  1  0.66666700  0.33333300  0.08016100  1
  S  S17  1  0.33333300  0.66666700  0.58016100  1
