data_image0
_chemical_formula_structural       Na2S4Sb2
_chemical_formula_sum              "Na2 S4 Sb2"
_cell_length_a       5.87553
_cell_length_b       5.87553
_cell_length_c       6.87334
_cell_angle_alpha    113.577
_cell_angle_beta     113.577
_cell_angle_gamma    89.9683

_space_group_name_H-M_alt    "P 1"
_space_group_IT_number       1

loop_
  _space_group_symop_operation_xyz
  'x, y, z'

loop_
  _atom_site_type_symbol
  _atom_site_label
  _atom_site_symmetry_multiplicity
  _atom_site_fract_x
  _atom_site_fract_y
  _atom_site_fract_z
  _atom_site_occupancy
  Na  Na1       1.0  0.36700  0.63300  0.25000  1.0000
  Na  Na2       1.0  0.63300  0.36700  0.75000  1.0000
  S   S1        1.0  0.31100  0.13200  0.24000  1.0000
  S   S2        1.0  0.86800  0.68900  0.26000  1.0000
  S   S3        1.0  0.13200  0.31100  0.74000  1.0000
  S   S4        1.0  0.68900  0.86800  0.76000  1.0000
  Sb  Sb1       1.0  0.89600  0.10400  0.25000  1.0000
  Sb  Sb2       1.0  0.10400  0.89600  0.75000  1.0000
