data_image0
_chemical_formula_structural       Ba2Pd2Se4
_chemical_formula_sum              "Ba2 Pd2 Se4"
_cell_length_a       6.62099
_cell_length_b       6.62099
_cell_length_c       5.84946
_cell_angle_alpha    90
_cell_angle_beta     90
_cell_angle_gamma    65.054

_space_group_name_H-M_alt    "P 1"
_space_group_IT_number       1

loop_
  _space_group_symop_operation_xyz
  'x, y, z'

loop_
  _atom_site_type_symbol
  _atom_site_label
  _atom_site_symmetry_multiplicity
  _atom_site_fract_x
  _atom_site_fract_y
  _atom_site_fract_z
  _atom_site_occupancy
  Ba  Ba1       1.0  0.15000  0.15000  0.25000  1.0000
  Ba  Ba2       1.0  0.85000  0.85000  0.75000  1.0000
  Pd  Pd1       1.0  0.50000  0.50000  0.00000  1.0000
  Pd  Pd2       1.0  0.50000  0.50000  0.50000  1.0000
  Se  Se1       1.0  0.64200  0.16100  0.25000  1.0000
  Se  Se2       1.0  0.16100  0.64200  0.25000  1.0000
  Se  Se3       1.0  0.83900  0.35800  0.75000  1.0000
  Se  Se4       1.0  0.35800  0.83900  0.75000  1.0000
