# generated using pymatgen
data_Ce4B2N5
_symmetry_space_group_name_H-M   'P 1'
_cell_length_a   6.32165616
_cell_length_b   6.32165616
_cell_length_c   8.91975088
_cell_angle_alpha   52.41762118
_cell_angle_beta   52.41762118
_cell_angle_gamma   32.58087978
_symmetry_Int_Tables_number   1
_chemical_formula_structural   Ce4B2N5
_chemical_formula_sum   'Ce4 B2 N5'
_cell_volume   148.21993415
_cell_formula_units_Z   1
loop_
 _symmetry_equiv_pos_site_id
 _symmetry_equiv_pos_as_xyz
  1  'x, y, z'
loop_
 _atom_site_type_symbol
 _atom_site_label
 _atom_site_symmetry_multiplicity
 _atom_site_fract_x
 _atom_site_fract_y
 _atom_site_fract_z
 _atom_site_occupancy
  Ce  Ce0  1  0.07466400  0.07466400  0.65215600  1
  Ce  Ce1  1  0.92533600  0.92533600  0.34784400  1
  Ce  Ce2  1  0.68739500  0.68739500  0.88724100  1
  Ce  Ce3  1  0.31260500  0.31260500  0.11275900  1
  B  B4  1  0.41113900  0.41113900  0.60954900  1
  B  B5  1  0.58886100  0.58886100  0.39045100  1
  N  N6  1  0.29159600  0.29159600  0.60331600  1
  N  N7  1  0.70840400  0.70840400  0.39668400  1
  N  N8  1  0.00000000  0.00000000  0.00000000  1
  N  N9  1  0.37964600  0.37964600  0.80118300  1
  N  N10  1  0.62035400  0.62035400  0.19881700  1
