data_image0
_chemical_formula_structural       Co5Nb5Sb4
_chemical_formula_sum              "Co5 Nb5 Sb4"
_cell_length_a       5.94937
_cell_length_b       7.17649
_cell_length_c       7.17649
_cell_angle_alpha    80.1067
_cell_angle_beta     65.5119
_cell_angle_gamma    65.5119

_space_group_name_H-M_alt    "P 1"
_space_group_IT_number       1

loop_
  _space_group_symop_operation_xyz
  'x, y, z'

loop_
  _atom_site_type_symbol
  _atom_site_label
  _atom_site_symmetry_multiplicity
  _atom_site_fract_x
  _atom_site_fract_y
  _atom_site_fract_z
  _atom_site_occupancy
  Co  Co1       1.0  0.50000  0.00000  0.00000  1.0000
  Co  Co2       1.0  0.71200  0.40300  0.19000  1.0000
  Co  Co3       1.0  0.88500  0.81000  0.40300  1.0000
  Co  Co4       1.0  0.09820  0.19000  0.59700  1.0000
  Co  Co5       1.0  0.30500  0.59700  0.81000  1.0000
  Nb  Nb1       1.0  0.34400  0.68500  0.13100  1.0000
  Nb  Nb2       1.0  0.52600  0.13100  0.31500  1.0000
  Nb  Nb3       1.0  0.75000  0.50000  0.50000  1.0000
  Nb  Nb4       1.0  0.97200  0.86900  0.68500  1.0000
  Nb  Nb5       1.0  0.15900  0.31500  0.86900  1.0000
  Sb  Sb1       1.0  0.84400  0.71100  0.10400  1.0000
  Sb  Sb2       1.0  0.05180  0.10400  0.28900  1.0000
  Sb  Sb3       1.0  0.44500  0.89600  0.71100  1.0000
  Sb  Sb4       1.0  0.65900  0.28900  0.89600  1.0000
