# generated using pymatgen
data_Ga3PO7
_symmetry_space_group_name_H-M   'P 1'
_cell_length_a   5.15268493
_cell_length_b   5.15268493
_cell_length_c   5.15268520
_cell_angle_alpha   102.03470130
_cell_angle_beta   102.03470130
_cell_angle_gamma   102.03469881
_symmetry_Int_Tables_number   1
_chemical_formula_structural   Ga3PO7
_chemical_formula_sum   'Ga3 P1 O7'
_cell_volume   126.23510727
_cell_formula_units_Z   1
loop_
 _symmetry_equiv_pos_site_id
 _symmetry_equiv_pos_as_xyz
  1  'x, y, z'
loop_
 _atom_site_type_symbol
 _atom_site_label
 _atom_site_symmetry_multiplicity
 _atom_site_fract_x
 _atom_site_fract_y
 _atom_site_fract_z
 _atom_site_occupancy
  Ga  Ga0  1  0.97327900  0.58291200  0.58291200  1
  Ga  Ga1  1  0.58291200  0.58291200  0.97327900  1
  Ga  Ga2  1  0.58291200  0.97327900  0.58291200  1
  P  P3  1  0.12506000  0.12506000  0.12506000  1
  O  O4  1  0.97131900  0.29017500  0.29017500  1
  O  O5  1  0.73438400  0.73438400  0.35605400  1
  O  O6  1  0.35605400  0.73438400  0.73438400  1
  O  O7  1  0.29017500  0.29017500  0.97131900  1
  O  O8  1  0.29017500  0.97131900  0.29017500  1
  O  O9  1  0.89087900  0.89087900  0.89087900  1
  O  O10  1  0.73438400  0.35605400  0.73438400  1
