data_image0
_chemical_formula_structural       Bi8Pt6Zr6
_chemical_formula_sum              "Bi8 Pt6 Zr6"
_cell_length_a       8.36884
_cell_length_b       8.36884
_cell_length_c       8.36884
_cell_angle_alpha    109.471
_cell_angle_beta     109.471
_cell_angle_gamma    109.471

_space_group_name_H-M_alt    "P 1"
_space_group_IT_number       1

loop_
  _space_group_symop_operation_xyz
  'x, y, z'

loop_
  _atom_site_type_symbol
  _atom_site_label
  _atom_site_symmetry_multiplicity
  _atom_site_fract_x
  _atom_site_fract_y
  _atom_site_fract_z
  _atom_site_occupancy
  Bi  Bi1       1.0  0.80600  0.50000  0.00000  1.0000
  Bi  Bi2       1.0  0.30600  0.50000  0.00000  1.0000
  Bi  Bi3       1.0  0.19400  0.19400  0.19400  1.0000
  Bi  Bi4       1.0  0.50000  0.00000  0.30600  1.0000
  Bi  Bi5       1.0  0.00000  0.80600  0.50000  1.0000
  Bi  Bi6       1.0  0.00000  0.30600  0.50000  1.0000
  Bi  Bi7       1.0  0.69400  0.69400  0.69400  1.0000
  Bi  Bi8       1.0  0.50000  0.00000  0.80600  1.0000
  Pt  Pt1       1.0  0.87500  0.25000  0.12500  1.0000
  Pt  Pt2       1.0  0.12500  0.87500  0.25000  1.0000
  Pt  Pt3       1.0  0.62500  0.75000  0.37500  1.0000
  Pt  Pt4       1.0  0.75000  0.37500  0.62500  1.0000
  Pt  Pt5       1.0  0.37500  0.62500  0.75000  1.0000
  Pt  Pt6       1.0  0.25000  0.12500  0.87500  1.0000
  Zr  Zr1       1.0  0.75000  0.87500  0.12500  1.0000
  Zr  Zr2       1.0  0.62500  0.37500  0.25000  1.0000
  Zr  Zr3       1.0  0.25000  0.62500  0.37500  1.0000
  Zr  Zr4       1.0  0.37500  0.25000  0.62500  1.0000
  Zr  Zr5       1.0  0.87500  0.12500  0.75000  1.0000
  Zr  Zr6       1.0  0.12500  0.75000  0.87500  1.0000
