data_image0
_chemical_formula_structural       Co8Nb9Sb9
_chemical_formula_sum              "Co8 Nb9 Sb9"
_cell_length_a       5.96539
_cell_length_b       7.33982
_cell_length_c       12.4885
_cell_angle_alpha    73.1403
_cell_angle_beta     76.1822
_cell_angle_gamma    66.0229

_space_group_name_H-M_alt    "P 1"
_space_group_IT_number       1

loop_
  _space_group_symop_operation_xyz
  'x, y, z'

loop_
  _atom_site_type_symbol
  _atom_site_label
  _atom_site_symmetry_multiplicity
  _atom_site_fract_x
  _atom_site_fract_y
  _atom_site_fract_z
  _atom_site_occupancy
  Co  Co1       1.0  0.40600  0.28100  0.05400  1.0000
  Co  Co2       1.0  0.06280  0.84000  0.16100  1.0000
  Co  Co3       1.0  0.77300  0.38100  0.27000  1.0000
  Co  Co4       1.0  0.43200  0.97400  0.38100  1.0000
  Co  Co5       1.0  0.78800  0.02580  0.61900  1.0000
  Co  Co6       1.0  0.42500  0.61900  0.73000  1.0000
  Co  Co7       1.0  0.06410  0.16000  0.83900  1.0000
  Co  Co8       1.0  0.74000  0.71900  0.94600  1.0000
  Nb  Nb1       1.0  0.31900  0.00000  0.00000  1.0000
  Nb  Nb2       1.0  0.00129  0.54800  0.11000  1.0000
  Nb  Nb3       1.0  0.66400  0.12100  0.21900  1.0000
  Nb  Nb4       1.0  0.25600  0.59100  0.39000  1.0000
  Nb  Nb5       1.0  0.05710  0.26000  0.44100  1.0000
  Nb  Nb6       1.0  0.75800  0.74000  0.55900  1.0000
  Nb  Nb7       1.0  0.23700  0.40900  0.61000  1.0000
  Nb  Nb8       1.0  0.00425  0.87900  0.78100  1.0000
  Nb  Nb9       1.0  0.66000  0.45200  0.89000  1.0000
  Sb  Sb1       1.0  0.81600  0.00000  0.00000  1.0000
  Sb  Sb2       1.0  0.48300  0.56200  0.12200  1.0000
  Sb  Sb3       1.0  0.17100  0.09040  0.22900  1.0000
  Sb  Sb4       1.0  0.79400  0.67600  0.33000  1.0000
  Sb  Sb5       1.0  0.57900  0.19100  0.44900  1.0000
  Sb  Sb6       1.0  0.21900  0.80900  0.55100  1.0000
  Sb  Sb7       1.0  0.80000  0.32400  0.67000  1.0000
  Sb  Sb8       1.0  0.49000  0.91000  0.77100  1.0000
  Sb  Sb9       1.0  0.16700  0.43800  0.87800  1.0000
