data_image0
_chemical_formula_structural       Lu2Ni4Sn4V2
_chemical_formula_sum              "Lu2 Ni4 Sn4 V2"
_cell_length_a       6.09764
_cell_length_b       4.27694
_cell_length_c       8.53713
_cell_angle_alpha    90
_cell_angle_beta     90
_cell_angle_gamma    90

_space_group_name_H-M_alt    "P 1"
_space_group_IT_number       1

loop_
  _space_group_symop_operation_xyz
  'x, y, z'

loop_
  _atom_site_type_symbol
  _atom_site_label
  _atom_site_symmetry_multiplicity
  _atom_site_fract_x
  _atom_site_fract_y
  _atom_site_fract_z
  _atom_site_occupancy
  Lu  Lu1       1.0  0.00595  0.50000  0.37900  1.0000
  Lu  Lu2       1.0  0.50600  0.00000  0.62100  1.0000
  Ni  Ni1       1.0  0.74100  0.50000  0.11000  1.0000
  Ni  Ni2       1.0  0.26900  0.00000  0.34900  1.0000
  Ni  Ni3       1.0  0.76900  0.50000  0.65100  1.0000
  Ni  Ni4       1.0  0.24100  0.00000  0.89000  1.0000
  Sn  Sn1       1.0  0.98200  0.00000  0.11600  1.0000
  Sn  Sn2       1.0  0.51000  0.50000  0.36200  1.0000
  Sn  Sn3       1.0  0.01030  0.00000  0.63800  1.0000
  Sn  Sn4       1.0  0.48200  0.50000  0.88400  1.0000
  V   V1        1.0  0.49300  0.00000  0.12400  1.0000
  V   V2        1.0  0.99300  0.50000  0.87600  1.0000
