data_image0
_chemical_formula_structural       O20Si4Yb8
_chemical_formula_sum              "O20 Si4 Yb8"
_cell_length_a       6.34383
_cell_length_b       8.18535
_cell_length_c       9.31953
_cell_angle_alpha    87.9452
_cell_angle_beta     109.898
_cell_angle_gamma    112.8

_space_group_name_H-M_alt    "P 1"
_space_group_IT_number       1

loop_
  _space_group_symop_operation_xyz
  'x, y, z'

loop_
  _atom_site_type_symbol
  _atom_site_label
  _atom_site_symmetry_multiplicity
  _atom_site_fract_x
  _atom_site_fract_y
  _atom_site_fract_z
  _atom_site_occupancy
  O   O1        1.0  0.48900  0.07500  0.01230  1.0000
  O   O2        1.0  0.28800  0.40900  0.04670  1.0000
  O   O3        1.0  0.32600  0.73200  0.15200  1.0000
  O   O4        1.0  0.14100  0.99100  0.16200  1.0000
  O   O5        1.0  0.01710  0.42000  0.20600  1.0000
  O   O6        1.0  0.89100  0.07990  0.29400  1.0000
  O   O7        1.0  0.48800  0.50900  0.33800  1.0000
  O   O8        1.0  0.94200  0.76800  0.34800  1.0000
  O   O9        1.0  0.33300  0.09130  0.45300  1.0000
  O   O10       1.0  0.90100  0.42500  0.48800  1.0000
  O   O11       1.0  0.09860  0.57500  0.51200  1.0000
  O   O12       1.0  0.66700  0.90900  0.54700  1.0000
  O   O13       1.0  0.05760  0.23200  0.65200  1.0000
  O   O14       1.0  0.51200  0.49100  0.66200  1.0000
  O   O15       1.0  0.10900  0.92000  0.70600  1.0000
  O   O16       1.0  0.98300  0.58000  0.79400  1.0000
  O   O17       1.0  0.85900  0.00870  0.83800  1.0000
  O   O18       1.0  0.67400  0.26800  0.84800  1.0000
  O   O19       1.0  0.71200  0.59100  0.95300  1.0000
  O   O20       1.0  0.51100  0.92500  0.98800  1.0000
  Si  Si1       1.0  0.27900  0.52500  0.18300  1.0000
  Si  Si2       1.0  0.07080  0.97500  0.31700  1.0000
  Si  Si3       1.0  0.92900  0.02480  0.68300  1.0000
  Si  Si4       1.0  0.72100  0.47500  0.81700  1.0000
  Yb  Yb1       1.0  0.91900  0.16700  0.04800  1.0000
  Yb  Yb2       1.0  0.73000  0.51600  0.18700  1.0000
  Yb  Yb3       1.0  0.52700  0.98400  0.31300  1.0000
  Yb  Yb4       1.0  0.20400  0.33300  0.45200  1.0000
  Yb  Yb5       1.0  0.79600  0.66700  0.54800  1.0000
  Yb  Yb6       1.0  0.47300  0.01560  0.68700  1.0000
  Yb  Yb7       1.0  0.27000  0.48400  0.81300  1.0000
  Yb  Yb8       1.0  0.08090  0.83300  0.95200  1.0000
