data_image0
_chemical_formula_structural       Bi4Ir4La2Nb2
_chemical_formula_sum              "Bi4 Ir4 La2 Nb2"
_cell_length_a       6.64558
_cell_length_b       4.65518
_cell_length_c       9.39869
_cell_angle_alpha    90
_cell_angle_beta     90
_cell_angle_gamma    90

_space_group_name_H-M_alt    "P 1"
_space_group_IT_number       1

loop_
  _space_group_symop_operation_xyz
  'x, y, z'

loop_
  _atom_site_type_symbol
  _atom_site_label
  _atom_site_symmetry_multiplicity
  _atom_site_fract_x
  _atom_site_fract_y
  _atom_site_fract_z
  _atom_site_occupancy
  Bi  Bi1       1.0  0.97600  0.00000  0.12300  1.0000
  Bi  Bi2       1.0  0.51500  0.50000  0.36400  1.0000
  Bi  Bi3       1.0  0.01500  0.00000  0.63600  1.0000
  Bi  Bi4       1.0  0.47600  0.50000  0.87700  1.0000
  Ir  Ir1       1.0  0.72900  0.50000  0.10500  1.0000
  Ir  Ir2       1.0  0.28200  0.00000  0.34000  1.0000
  Ir  Ir3       1.0  0.78200  0.50000  0.66000  1.0000
  Ir  Ir4       1.0  0.22900  0.00000  0.89500  1.0000
  La  La1       1.0  0.00904  0.50000  0.37600  1.0000
  La  La2       1.0  0.50900  0.00000  0.62400  1.0000
  Nb  Nb1       1.0  0.48900  0.00000  0.11600  1.0000
  Nb  Nb2       1.0  0.98900  0.50000  0.88400  1.0000
