data_image0
_chemical_formula_structural       Ba4Bi2O12V2
_chemical_formula_sum              "Ba4 Bi2 O12 V2"
_cell_length_a       7.9723
_cell_length_b       7.9723
_cell_length_c       5.86971
_cell_angle_alpha    90
_cell_angle_beta     90
_cell_angle_gamma    102.688

_space_group_name_H-M_alt    "P 1"
_space_group_IT_number       1

loop_
  _space_group_symop_operation_xyz
  'x, y, z'

loop_
  _atom_site_type_symbol
  _atom_site_label
  _atom_site_symmetry_multiplicity
  _atom_site_fract_x
  _atom_site_fract_y
  _atom_site_fract_z
  _atom_site_occupancy
  Ba  Ba1       1.0  0.30300  0.08510  0.26700  1.0000
  Ba  Ba2       1.0  0.91500  0.69700  0.26700  1.0000
  Ba  Ba3       1.0  0.08510  0.30300  0.76700  1.0000
  Ba  Ba4       1.0  0.69700  0.91500  0.76700  1.0000
  Bi  Bi1       1.0  0.41900  0.58100  0.24200  1.0000
  Bi  Bi2       1.0  0.58100  0.41900  0.74200  1.0000
  O   O1        1.0  0.37300  0.35400  0.00205  1.0000
  O   O2        1.0  0.64600  0.62700  0.00205  1.0000
  O   O3        1.0  0.79100  0.20900  0.01690  1.0000
  O   O4        1.0  0.94200  0.05810  0.39500  1.0000
  O   O5        1.0  0.61000  0.10900  0.43600  1.0000
  O   O6        1.0  0.89100  0.39000  0.43600  1.0000
  O   O7        1.0  0.35400  0.37300  0.50200  1.0000
  O   O8        1.0  0.62700  0.64600  0.50200  1.0000
  O   O9        1.0  0.20900  0.79100  0.51700  1.0000
  O   O10       1.0  0.05810  0.94200  0.89500  1.0000
  O   O11       1.0  0.10900  0.61000  0.93600  1.0000
  O   O12       1.0  0.39000  0.89100  0.93600  1.0000
  V   V1        1.0  0.80700  0.19300  0.31000  1.0000
  V   V2        1.0  0.19300  0.80700  0.81000  1.0000
