data_image0
_chemical_formula_structural       Ba2CoO6Os
_chemical_formula_sum              "Ba2 Co1 O6 Os1"
_cell_length_a       5.73454
_cell_length_b       5.73454
_cell_length_c       5.64057
_cell_angle_alpha    119.459
_cell_angle_beta     119.459
_cell_angle_gamma    91.8628

_space_group_name_H-M_alt    "P 1"
_space_group_IT_number       1

loop_
  _space_group_symop_operation_xyz
  'x, y, z'

loop_
  _atom_site_type_symbol
  _atom_site_label
  _atom_site_symmetry_multiplicity
  _atom_site_fract_x
  _atom_site_fract_y
  _atom_site_fract_z
  _atom_site_occupancy
  Ba  Ba1       1.0  0.75000  0.25000  0.50000  1.0000
  Ba  Ba2       1.0  0.25000  0.75000  0.50000  1.0000
  Co  Co1       1.0  0.00000  0.00000  0.00000  1.0000
  O   O1        1.0  0.73500  0.26500  0.00000  1.0000
  O   O2        1.0  0.26500  0.73500  0.00000  1.0000
  O   O3        1.0  0.74900  0.74900  0.01010  1.0000
  O   O4        1.0  0.73900  0.73900  0.48800  1.0000
  O   O5        1.0  0.26100  0.26100  0.51200  1.0000
  O   O6        1.0  0.25100  0.25100  0.99000  1.0000
  Os  Os1       1.0  0.50000  0.50000  0.00000  1.0000
