data_image0
_chemical_formula_structural       Ba2FeO6Sb
_chemical_formula_sum              "Ba2 Fe1 O6 Sb1"
_cell_length_a       5.74547
_cell_length_b       5.74547
_cell_length_c       5.74547
_cell_angle_alpha    119.989
_cell_angle_beta     119.989
_cell_angle_gamma    90.0198

_space_group_name_H-M_alt    "P 1"
_space_group_IT_number       1

loop_
  _space_group_symop_operation_xyz
  'x, y, z'

loop_
  _atom_site_type_symbol
  _atom_site_label
  _atom_site_symmetry_multiplicity
  _atom_site_fract_x
  _atom_site_fract_y
  _atom_site_fract_z
  _atom_site_occupancy
  Ba  Ba1       1.0  0.75000  0.25000  0.50000  1.0000
  Ba  Ba2       1.0  0.25000  0.75000  0.50000  1.0000
  Fe  Fe1       1.0  0.00000  0.00000  0.00000  1.0000
  O   O1        1.0  0.25200  0.25200  0.00000  1.0000
  O   O2        1.0  0.74800  0.74800  0.00000  1.0000
  O   O3        1.0  0.25400  0.74900  0.00348  1.0000
  O   O4        1.0  0.74900  0.74600  0.49500  1.0000
  O   O5        1.0  0.25100  0.25400  0.50500  1.0000
  O   O6        1.0  0.74600  0.25100  0.99700  1.0000
  Sb  Sb1       1.0  0.50000  0.50000  0.00000  1.0000
