data_image0
_chemical_formula_structural       Bi32Fe8S4
_chemical_formula_sum              "Bi32 Fe8 S4"
_cell_length_a       11.1004
_cell_length_b       11.1004
_cell_length_c       9.80163
_cell_angle_alpha    90
_cell_angle_beta     90
_cell_angle_gamma    90

_space_group_name_H-M_alt    "P 1"
_space_group_IT_number       1

loop_
  _space_group_symop_operation_xyz
  'x, y, z'

loop_
  _atom_site_type_symbol
  _atom_site_label
  _atom_site_symmetry_multiplicity
  _atom_site_fract_x
  _atom_site_fract_y
  _atom_site_fract_z
  _atom_site_occupancy
  Bi  Bi1       1.0  0.81800  0.18200  0.00000  1.0000
  Bi  Bi2       1.0  0.19300  0.19300  0.00000  1.0000
  Bi  Bi3       1.0  0.39500  0.39500  0.00000  1.0000
  Bi  Bi4       1.0  0.60500  0.60500  0.00000  1.0000
  Bi  Bi5       1.0  0.80700  0.80700  0.00000  1.0000
  Bi  Bi6       1.0  0.18200  0.81800  0.00000  1.0000
  Bi  Bi7       1.0  0.00000  0.00000  0.17600  1.0000
  Bi  Bi8       1.0  0.55000  0.20000  0.18600  1.0000
  Bi  Bi9       1.0  0.80000  0.45000  0.18600  1.0000
  Bi  Bi10      1.0  0.20000  0.55000  0.18600  1.0000
  Bi  Bi11      1.0  0.45000  0.80000  0.18600  1.0000
  Bi  Bi12      1.0  0.30000  0.04960  0.31400  1.0000
  Bi  Bi13      1.0  0.04960  0.30000  0.31400  1.0000
  Bi  Bi14      1.0  0.95000  0.70000  0.31400  1.0000
  Bi  Bi15      1.0  0.70000  0.95000  0.31400  1.0000
  Bi  Bi16      1.0  0.50000  0.50000  0.32400  1.0000
  Bi  Bi17      1.0  0.89500  0.10500  0.50000  1.0000
  Bi  Bi18      1.0  0.69300  0.30700  0.50000  1.0000
  Bi  Bi19      1.0  0.31800  0.31800  0.50000  1.0000
  Bi  Bi20      1.0  0.68200  0.68200  0.50000  1.0000
  Bi  Bi21      1.0  0.30700  0.69300  0.50000  1.0000
  Bi  Bi22      1.0  0.10500  0.89500  0.50000  1.0000
  Bi  Bi23      1.0  0.50000  0.50000  0.67600  1.0000
  Bi  Bi24      1.0  0.30000  0.04960  0.68600  1.0000
  Bi  Bi25      1.0  0.04960  0.30000  0.68600  1.0000
  Bi  Bi26      1.0  0.95000  0.70000  0.68600  1.0000
  Bi  Bi27      1.0  0.70000  0.95000  0.68600  1.0000
  Bi  Bi28      1.0  0.55000  0.20000  0.81400  1.0000
  Bi  Bi29      1.0  0.80000  0.45000  0.81400  1.0000
  Bi  Bi30      1.0  0.20000  0.55000  0.81400  1.0000
  Bi  Bi31      1.0  0.45000  0.80000  0.81400  1.0000
  Bi  Bi32      1.0  0.00000  0.00000  0.82400  1.0000
  Fe  Fe1       1.0  0.29500  0.29500  0.23600  1.0000
  Fe  Fe2       1.0  0.70500  0.70500  0.23600  1.0000
  Fe  Fe3       1.0  0.79500  0.20500  0.26400  1.0000
  Fe  Fe4       1.0  0.20500  0.79500  0.26400  1.0000
  Fe  Fe5       1.0  0.79500  0.20500  0.73600  1.0000
  Fe  Fe6       1.0  0.20500  0.79500  0.73600  1.0000
  Fe  Fe7       1.0  0.29500  0.29500  0.76400  1.0000
  Fe  Fe8       1.0  0.70500  0.70500  0.76400  1.0000
  S   S1        1.0  0.50000  0.00000  0.00000  1.0000
  S   S2        1.0  0.00000  0.50000  0.00000  1.0000
  S   S3        1.0  0.50000  0.00000  0.50000  1.0000
  S   S4        1.0  0.00000  0.50000  0.50000  1.0000
