data_image0
_chemical_formula_structural       Bi20Pd2Te20
_chemical_formula_sum              "Bi20 Pd2 Te20"
_cell_length_a       8.81467
_cell_length_b       12.4183
_cell_length_c       13.582
_cell_angle_alpha    90
_cell_angle_beta     90
_cell_angle_gamma    90

_space_group_name_H-M_alt    "P 1"
_space_group_IT_number       1

loop_
  _space_group_symop_operation_xyz
  'x, y, z'

loop_
  _atom_site_type_symbol
  _atom_site_label
  _atom_site_symmetry_multiplicity
  _atom_site_fract_x
  _atom_site_fract_y
  _atom_site_fract_z
  _atom_site_occupancy
  Bi  Bi1       1.0  0.24700  0.00000  0.00000  1.0000
  Bi  Bi2       1.0  0.75300  0.00000  0.00000  1.0000
  Bi  Bi3       1.0  0.00000  0.29500  0.05170  1.0000
  Bi  Bi4       1.0  0.28200  0.63200  0.08720  1.0000
  Bi  Bi5       1.0  0.71800  0.63200  0.08720  1.0000
  Bi  Bi6       1.0  0.50000  0.34500  0.16000  1.0000
  Bi  Bi7       1.0  0.50000  0.84500  0.34000  1.0000
  Bi  Bi8       1.0  0.28200  0.13200  0.41300  1.0000
  Bi  Bi9       1.0  0.71800  0.13200  0.41300  1.0000
  Bi  Bi10      1.0  0.00000  0.79500  0.44800  1.0000
  Bi  Bi11      1.0  0.24700  0.50000  0.50000  1.0000
  Bi  Bi12      1.0  0.75300  0.50000  0.50000  1.0000
  Bi  Bi13      1.0  0.00000  0.20500  0.55200  1.0000
  Bi  Bi14      1.0  0.28200  0.86800  0.58700  1.0000
  Bi  Bi15      1.0  0.71800  0.86800  0.58700  1.0000
  Bi  Bi16      1.0  0.50000  0.15500  0.66000  1.0000
  Bi  Bi17      1.0  0.50000  0.65500  0.84000  1.0000
  Bi  Bi18      1.0  0.28200  0.36800  0.91300  1.0000
  Bi  Bi19      1.0  0.71800  0.36800  0.91300  1.0000
  Bi  Bi20      1.0  0.00000  0.70500  0.94800  1.0000
  Pd  Pd1       1.0  0.50000  0.50000  0.00000  1.0000
  Pd  Pd2       1.0  0.50000  0.00000  0.50000  1.0000
  Te  Te1       1.0  0.50000  0.84900  0.10800  1.0000
  Te  Te2       1.0  0.00000  0.88000  0.11500  1.0000
  Te  Te3       1.0  0.00000  0.51100  0.16700  1.0000
  Te  Te4       1.0  0.25700  0.17500  0.17600  1.0000
  Te  Te5       1.0  0.74300  0.17500  0.17600  1.0000
  Te  Te6       1.0  0.25700  0.67500  0.32400  1.0000
  Te  Te7       1.0  0.74300  0.67500  0.32400  1.0000
  Te  Te8       1.0  0.00000  0.01070  0.33300  1.0000
  Te  Te9       1.0  0.00000  0.38000  0.38500  1.0000
  Te  Te10      1.0  0.50000  0.34900  0.39200  1.0000
  Te  Te11      1.0  0.50000  0.65100  0.60800  1.0000
  Te  Te12      1.0  0.00000  0.62000  0.61500  1.0000
  Te  Te13      1.0  0.00000  0.98900  0.66700  1.0000
  Te  Te14      1.0  0.25700  0.32500  0.67600  1.0000
  Te  Te15      1.0  0.74300  0.32500  0.67600  1.0000
  Te  Te16      1.0  0.25700  0.82500  0.82400  1.0000
  Te  Te17      1.0  0.74300  0.82500  0.82400  1.0000
  Te  Te18      1.0  0.00000  0.48900  0.83300  1.0000
  Te  Te19      1.0  0.00000  0.12000  0.88500  1.0000
  Te  Te20      1.0  0.50000  0.15100  0.89200  1.0000
