data_image0
_chemical_formula_structural       In32Ni8S4
_chemical_formula_sum              "In32 Ni8 S4"
_cell_length_a       10.0271
_cell_length_b       9.90897
_cell_length_c       9.90897
_cell_angle_alpha    90
_cell_angle_beta     90
_cell_angle_gamma    90

_space_group_name_H-M_alt    "P 1"
_space_group_IT_number       1

loop_
  _space_group_symop_operation_xyz
  'x, y, z'

loop_
  _atom_site_type_symbol
  _atom_site_label
  _atom_site_symmetry_multiplicity
  _atom_site_fract_x
  _atom_site_fract_y
  _atom_site_fract_z
  _atom_site_occupancy
  In  In1       1.0  0.16400  0.00000  0.00000  1.0000
  In  In2       1.0  0.83600  0.00000  0.00000  1.0000
  In  In3       1.0  0.29900  0.29700  0.05290  1.0000
  In  In4       1.0  0.70100  0.29700  0.05290  1.0000
  In  In5       1.0  0.50000  0.90400  0.09630  1.0000
  In  In6       1.0  0.00000  0.81100  0.18900  1.0000
  In  In7       1.0  0.00000  0.20000  0.20000  1.0000
  In  In8       1.0  0.20100  0.55300  0.20300  1.0000
  In  In9       1.0  0.79900  0.55300  0.20300  1.0000
  In  In10      1.0  0.29900  0.05290  0.29700  1.0000
  In  In11      1.0  0.70100  0.05290  0.29700  1.0000
  In  In12      1.0  0.50000  0.70000  0.30000  1.0000
  In  In13      1.0  0.50000  0.31100  0.31100  1.0000
  In  In14      1.0  0.00000  0.40400  0.40400  1.0000
  In  In15      1.0  0.20100  0.79700  0.44700  1.0000
  In  In16      1.0  0.79900  0.79700  0.44700  1.0000
  In  In17      1.0  0.33600  0.50000  0.50000  1.0000
  In  In18      1.0  0.66400  0.50000  0.50000  1.0000
  In  In19      1.0  0.20100  0.20300  0.55300  1.0000
  In  In20      1.0  0.79900  0.20300  0.55300  1.0000
  In  In21      1.0  0.00000  0.59600  0.59600  1.0000
  In  In22      1.0  0.50000  0.68900  0.68900  1.0000
  In  In23      1.0  0.50000  0.30000  0.70000  1.0000
  In  In24      1.0  0.29900  0.94700  0.70300  1.0000
  In  In25      1.0  0.70100  0.94700  0.70300  1.0000
  In  In26      1.0  0.20100  0.44700  0.79700  1.0000
  In  In27      1.0  0.79900  0.44700  0.79700  1.0000
  In  In28      1.0  0.00000  0.80000  0.80000  1.0000
  In  In29      1.0  0.00000  0.18900  0.81100  1.0000
  In  In30      1.0  0.50000  0.09630  0.90400  1.0000
  In  In31      1.0  0.29900  0.70300  0.94700  1.0000
  In  In32      1.0  0.70100  0.70300  0.94700  1.0000
  Ni  Ni1       1.0  0.26000  0.81400  0.18600  1.0000
  Ni  Ni2       1.0  0.74000  0.81400  0.18600  1.0000
  Ni  Ni3       1.0  0.24000  0.31400  0.31400  1.0000
  Ni  Ni4       1.0  0.76000  0.31400  0.31400  1.0000
  Ni  Ni5       1.0  0.24000  0.68600  0.68600  1.0000
  Ni  Ni6       1.0  0.76000  0.68600  0.68600  1.0000
  Ni  Ni7       1.0  0.26000  0.18600  0.81400  1.0000
  Ni  Ni8       1.0  0.74000  0.18600  0.81400  1.0000
  S   S1        1.0  0.00000  0.50000  0.00000  1.0000
  S   S2        1.0  0.50000  0.50000  0.00000  1.0000
  S   S3        1.0  0.00000  0.00000  0.50000  1.0000
  S   S4        1.0  0.50000  0.00000  0.50000  1.0000
