data_image0
_chemical_formula_structural       O4Rb8Se4
_chemical_formula_sum              "O4 Rb8 Se4"
_cell_length_a       5.75029
_cell_length_b       7.27703
_cell_length_c       12.1614
_cell_angle_alpha    90
_cell_angle_beta     78.7568
_cell_angle_gamma    90

_space_group_name_H-M_alt    "P 1"
_space_group_IT_number       1

loop_
  _space_group_symop_operation_xyz
  'x, y, z'

loop_
  _atom_site_type_symbol
  _atom_site_label
  _atom_site_symmetry_multiplicity
  _atom_site_fract_x
  _atom_site_fract_y
  _atom_site_fract_z
  _atom_site_occupancy
  O   O1        1.0  0.86600  0.58800  0.00559  1.0000
  O   O2        1.0  0.12900  0.58800  0.00761  1.0000
  O   O3        1.0  0.87100  0.08780  0.99200  1.0000
  O   O4        1.0  0.13400  0.08760  0.99400  1.0000
  Rb  Rb1       1.0  0.49400  0.33900  0.01590  1.0000
  Rb  Rb2       1.0  0.93000  0.32900  0.16500  1.0000
  Rb  Rb3       1.0  0.92700  0.84400  0.16700  1.0000
  Rb  Rb4       1.0  0.78200  0.23700  0.47400  1.0000
  Rb  Rb5       1.0  0.21800  0.73700  0.52600  1.0000
  Rb  Rb6       1.0  0.07260  0.34400  0.83300  1.0000
  Rb  Rb7       1.0  0.07010  0.82900  0.83500  1.0000
  Rb  Rb8       1.0  0.50600  0.83900  0.98400  1.0000
  Se  Se1       1.0  0.35800  0.07110  0.31300  1.0000
  Se  Se2       1.0  0.35700  0.40400  0.32700  1.0000
  Se  Se3       1.0  0.64300  0.90400  0.67300  1.0000
  Se  Se4       1.0  0.64200  0.57100  0.68700  1.0000
