data_image0
_chemical_formula_structural       Bi32Ni8Te4
_chemical_formula_sum              "Bi32 Ni8 Te4"
_cell_length_a       9.93488
_cell_length_b       11.1462
_cell_length_c       11.1462
_cell_angle_alpha    90
_cell_angle_beta     90
_cell_angle_gamma    90

_space_group_name_H-M_alt    "P 1"
_space_group_IT_number       1

loop_
  _space_group_symop_operation_xyz
  'x, y, z'

loop_
  _atom_site_type_symbol
  _atom_site_label
  _atom_site_symmetry_multiplicity
  _atom_site_fract_x
  _atom_site_fract_y
  _atom_site_fract_z
  _atom_site_occupancy
  Bi  Bi1       1.0  0.16400  0.00000  0.00000  1.0000
  Bi  Bi2       1.0  0.83600  0.00000  0.00000  1.0000
  Bi  Bi3       1.0  0.29000  0.28600  0.05430  1.0000
  Bi  Bi4       1.0  0.71000  0.28600  0.05430  1.0000
  Bi  Bi5       1.0  0.50000  0.89800  0.10200  1.0000
  Bi  Bi6       1.0  0.00000  0.19700  0.19700  1.0000
  Bi  Bi7       1.0  0.00000  0.80100  0.19900  1.0000
  Bi  Bi8       1.0  0.21000  0.55400  0.21400  1.0000
  Bi  Bi9       1.0  0.79000  0.55400  0.21400  1.0000
  Bi  Bi10      1.0  0.29000  0.05430  0.28600  1.0000
  Bi  Bi11      1.0  0.71000  0.05430  0.28600  1.0000
  Bi  Bi12      1.0  0.50000  0.30100  0.30100  1.0000
  Bi  Bi13      1.0  0.50000  0.69700  0.30300  1.0000
  Bi  Bi14      1.0  0.00000  0.39800  0.39800  1.0000
  Bi  Bi15      1.0  0.21000  0.78600  0.44600  1.0000
  Bi  Bi16      1.0  0.79000  0.78600  0.44600  1.0000
  Bi  Bi17      1.0  0.33600  0.50000  0.50000  1.0000
  Bi  Bi18      1.0  0.66400  0.50000  0.50000  1.0000
  Bi  Bi19      1.0  0.21000  0.21400  0.55400  1.0000
  Bi  Bi20      1.0  0.79000  0.21400  0.55400  1.0000
  Bi  Bi21      1.0  0.00000  0.60200  0.60200  1.0000
  Bi  Bi22      1.0  0.50000  0.30300  0.69700  1.0000
  Bi  Bi23      1.0  0.50000  0.69900  0.69900  1.0000
  Bi  Bi24      1.0  0.29000  0.94600  0.71400  1.0000
  Bi  Bi25      1.0  0.71000  0.94600  0.71400  1.0000
  Bi  Bi26      1.0  0.21000  0.44600  0.78600  1.0000
  Bi  Bi27      1.0  0.79000  0.44600  0.78600  1.0000
  Bi  Bi28      1.0  0.00000  0.19900  0.80100  1.0000
  Bi  Bi29      1.0  0.00000  0.80300  0.80300  1.0000
  Bi  Bi30      1.0  0.50000  0.10200  0.89800  1.0000
  Bi  Bi31      1.0  0.29000  0.71400  0.94600  1.0000
  Bi  Bi32      1.0  0.71000  0.71400  0.94600  1.0000
  Ni  Ni1       1.0  0.26700  0.80800  0.19200  1.0000
  Ni  Ni2       1.0  0.73300  0.80800  0.19200  1.0000
  Ni  Ni3       1.0  0.23300  0.30800  0.30800  1.0000
  Ni  Ni4       1.0  0.76700  0.30800  0.30800  1.0000
  Ni  Ni5       1.0  0.23300  0.69200  0.69200  1.0000
  Ni  Ni6       1.0  0.76700  0.69200  0.69200  1.0000
  Ni  Ni7       1.0  0.26700  0.19200  0.80800  1.0000
  Ni  Ni8       1.0  0.73300  0.19200  0.80800  1.0000
  Te  Te1       1.0  0.00000  0.50000  0.00000  1.0000
  Te  Te2       1.0  0.50000  0.50000  0.00000  1.0000
  Te  Te3       1.0  0.00000  0.00000  0.50000  1.0000
  Te  Te4       1.0  0.50000  0.00000  0.50000  1.0000
