data_image0
_chemical_formula_structural       Bi20Pd2Se20
_chemical_formula_sum              "Bi20 Pd2 Se20"
_cell_length_a       8.42192
_cell_length_b       11.9387
_cell_length_c       12.9869
_cell_angle_alpha    90
_cell_angle_beta     90
_cell_angle_gamma    90

_space_group_name_H-M_alt    "P 1"
_space_group_IT_number       1

loop_
  _space_group_symop_operation_xyz
  'x, y, z'

loop_
  _atom_site_type_symbol
  _atom_site_label
  _atom_site_symmetry_multiplicity
  _atom_site_fract_x
  _atom_site_fract_y
  _atom_site_fract_z
  _atom_site_occupancy
  Bi  Bi1       1.0  0.24900  0.00000  0.00000  1.0000
  Bi  Bi2       1.0  0.75100  0.00000  0.00000  1.0000
  Bi  Bi3       1.0  0.00000  0.28500  0.05820  1.0000
  Bi  Bi4       1.0  0.26900  0.63000  0.09740  1.0000
  Bi  Bi5       1.0  0.73100  0.63000  0.09740  1.0000
  Bi  Bi6       1.0  0.50000  0.33600  0.16900  1.0000
  Bi  Bi7       1.0  0.50000  0.83600  0.33100  1.0000
  Bi  Bi8       1.0  0.26900  0.13000  0.40300  1.0000
  Bi  Bi9       1.0  0.73100  0.13000  0.40300  1.0000
  Bi  Bi10      1.0  0.00000  0.78500  0.44200  1.0000
  Bi  Bi11      1.0  0.24900  0.50000  0.50000  1.0000
  Bi  Bi12      1.0  0.75100  0.50000  0.50000  1.0000
  Bi  Bi13      1.0  0.00000  0.21500  0.55800  1.0000
  Bi  Bi14      1.0  0.26900  0.87000  0.59700  1.0000
  Bi  Bi15      1.0  0.73100  0.87000  0.59700  1.0000
  Bi  Bi16      1.0  0.50000  0.16400  0.66900  1.0000
  Bi  Bi17      1.0  0.50000  0.66400  0.83100  1.0000
  Bi  Bi18      1.0  0.26900  0.37000  0.90300  1.0000
  Bi  Bi19      1.0  0.73100  0.37000  0.90300  1.0000
  Bi  Bi20      1.0  0.00000  0.71500  0.94200  1.0000
  Pd  Pd1       1.0  0.50000  0.50000  0.00000  1.0000
  Pd  Pd2       1.0  0.50000  0.00000  0.50000  1.0000
  Se  Se1       1.0  0.00000  0.88600  0.10500  1.0000
  Se  Se2       1.0  0.50000  0.84300  0.10700  1.0000
  Se  Se3       1.0  0.00000  0.50100  0.15900  1.0000
  Se  Se4       1.0  0.26300  0.17100  0.17400  1.0000
  Se  Se5       1.0  0.73700  0.17100  0.17400  1.0000
  Se  Se6       1.0  0.26300  0.67100  0.32600  1.0000
  Se  Se7       1.0  0.73700  0.67100  0.32600  1.0000
  Se  Se8       1.0  0.00000  0.00080  0.34100  1.0000
  Se  Se9       1.0  0.50000  0.34300  0.39300  1.0000
  Se  Se10      1.0  0.00000  0.38600  0.39500  1.0000
  Se  Se11      1.0  0.00000  0.61400  0.60500  1.0000
  Se  Se12      1.0  0.50000  0.65700  0.60700  1.0000
  Se  Se13      1.0  0.00000  0.99900  0.65900  1.0000
  Se  Se14      1.0  0.26300  0.32900  0.67400  1.0000
  Se  Se15      1.0  0.73700  0.32900  0.67400  1.0000
  Se  Se16      1.0  0.26300  0.82900  0.82600  1.0000
  Se  Se17      1.0  0.73700  0.82900  0.82600  1.0000
  Se  Se18      1.0  0.00000  0.49900  0.84100  1.0000
  Se  Se19      1.0  0.50000  0.15700  0.89300  1.0000
  Se  Se20      1.0  0.00000  0.11400  0.89500  1.0000
