data_image0
_chemical_formula_structural       AuCuF5
_chemical_formula_sum              "Au1 Cu1 F5"
_cell_length_a       5.37544
_cell_length_b       4.76202
_cell_length_c       3.7043
_cell_angle_alpha    110.611
_cell_angle_beta     99.4358
_cell_angle_gamma    89.8235

_space_group_name_H-M_alt    "P 1"
_space_group_IT_number       1

loop_
  _space_group_symop_operation_xyz
  'x, y, z'

loop_
  _atom_site_type_symbol
  _atom_site_label
  _atom_site_symmetry_multiplicity
  _atom_site_fract_x
  _atom_site_fract_y
  _atom_site_fract_z
  _atom_site_occupancy
  Au  Au1       1.0  0.00000  0.00000  0.00000  1.0000
  Cu  Cu1       1.0  0.50000  0.50000  1.00000  1.0000
  F   F1        1.0  0.34100  0.88600  0.15900  1.0000
  F   F2        1.0  0.85700  0.71400  0.20500  1.0000
  F   F3        1.0  0.50000  0.50000  0.50000  1.0000
  F   F4        1.0  0.14300  0.28600  0.79500  1.0000
  F   F5        1.0  0.65900  0.11400  0.84100  1.0000
