data_image0
_chemical_formula_structural       Bi32Pd8Te4
_chemical_formula_sum              "Bi32 Pd8 Te4"
_cell_length_a       10.8576
_cell_length_b       10.8576
_cell_length_c       10.9154
_cell_angle_alpha    90
_cell_angle_beta     90
_cell_angle_gamma    90

_space_group_name_H-M_alt    "P 1"
_space_group_IT_number       1

loop_
  _space_group_symop_operation_xyz
  'x, y, z'

loop_
  _atom_site_type_symbol
  _atom_site_label
  _atom_site_symmetry_multiplicity
  _atom_site_fract_x
  _atom_site_fract_y
  _atom_site_fract_z
  _atom_site_occupancy
  Bi  Bi1       1.0  0.19300  0.19300  0.00000  1.0000
  Bi  Bi2       1.0  0.80200  0.19800  0.00000  1.0000
  Bi  Bi3       1.0  0.39900  0.39900  0.00000  1.0000
  Bi  Bi4       1.0  0.60100  0.60100  0.00000  1.0000
  Bi  Bi5       1.0  0.19800  0.80200  0.00000  1.0000
  Bi  Bi6       1.0  0.80700  0.80700  0.00000  1.0000
  Bi  Bi7       1.0  0.00000  0.00000  0.16000  1.0000
  Bi  Bi8       1.0  0.56000  0.21000  0.19500  1.0000
  Bi  Bi9       1.0  0.79000  0.44000  0.19500  1.0000
  Bi  Bi10      1.0  0.21000  0.56000  0.19500  1.0000
  Bi  Bi11      1.0  0.44000  0.79000  0.19500  1.0000
  Bi  Bi12      1.0  0.29000  0.05970  0.30500  1.0000
  Bi  Bi13      1.0  0.05970  0.29000  0.30500  1.0000
  Bi  Bi14      1.0  0.94000  0.71000  0.30500  1.0000
  Bi  Bi15      1.0  0.71000  0.94000  0.30500  1.0000
  Bi  Bi16      1.0  0.50000  0.50000  0.34000  1.0000
  Bi  Bi17      1.0  0.89900  0.10100  0.50000  1.0000
  Bi  Bi18      1.0  0.30200  0.30200  0.50000  1.0000
  Bi  Bi19      1.0  0.69300  0.30700  0.50000  1.0000
  Bi  Bi20      1.0  0.30700  0.69300  0.50000  1.0000
  Bi  Bi21      1.0  0.69800  0.69800  0.50000  1.0000
  Bi  Bi22      1.0  0.10100  0.89900  0.50000  1.0000
  Bi  Bi23      1.0  0.50000  0.50000  0.66000  1.0000
  Bi  Bi24      1.0  0.29000  0.05970  0.69500  1.0000
  Bi  Bi25      1.0  0.05970  0.29000  0.69500  1.0000
  Bi  Bi26      1.0  0.94000  0.71000  0.69500  1.0000
  Bi  Bi27      1.0  0.71000  0.94000  0.69500  1.0000
  Bi  Bi28      1.0  0.56000  0.21000  0.80500  1.0000
  Bi  Bi29      1.0  0.79000  0.44000  0.80500  1.0000
  Bi  Bi30      1.0  0.21000  0.56000  0.80500  1.0000
  Bi  Bi31      1.0  0.44000  0.79000  0.80500  1.0000
  Bi  Bi32      1.0  0.00000  0.00000  0.84000  1.0000
  Pd  Pd1       1.0  0.31500  0.31500  0.23000  1.0000
  Pd  Pd2       1.0  0.68500  0.68500  0.23000  1.0000
  Pd  Pd3       1.0  0.81500  0.18500  0.27000  1.0000
  Pd  Pd4       1.0  0.18500  0.81500  0.27000  1.0000
  Pd  Pd5       1.0  0.81500  0.18500  0.73000  1.0000
  Pd  Pd6       1.0  0.18500  0.81500  0.73000  1.0000
  Pd  Pd7       1.0  0.31500  0.31500  0.77000  1.0000
  Pd  Pd8       1.0  0.68500  0.68500  0.77000  1.0000
  Te  Te1       1.0  0.50000  0.00000  0.00000  1.0000
  Te  Te2       1.0  0.00000  0.50000  0.00000  1.0000
  Te  Te3       1.0  0.50000  0.00000  0.50000  1.0000
  Te  Te4       1.0  0.00000  0.50000  0.50000  1.0000
