# generated using pymatgen
data_Mn3(AgO2)4
_symmetry_space_group_name_H-M   'P 1'
_cell_length_a   9.07518872
_cell_length_b   9.07518872
_cell_length_c   9.07518877
_cell_angle_alpha   90.53133477
_cell_angle_beta   90.53133477
_cell_angle_gamma   90.53133225
_symmetry_Int_Tables_number   1
_chemical_formula_structural   Mn3(AgO2)4
_chemical_formula_sum   'Mn12 Ag16 O32'
_cell_volume   747.32691254
_cell_formula_units_Z   4
loop_
 _symmetry_equiv_pos_site_id
 _symmetry_equiv_pos_as_xyz
  1  'x, y, z'
loop_
 _atom_site_type_symbol
 _atom_site_label
 _atom_site_symmetry_multiplicity
 _atom_site_fract_x
 _atom_site_fract_y
 _atom_site_fract_z
 _atom_site_occupancy
  Mn  Mn0  1  0.50000000  0.03896400  0.96103600  1
  Mn  Mn1  1  0.96103600  0.50000000  0.03896400  1
  Mn  Mn2  1  0.03896400  0.96103600  0.50000000  1
  Mn  Mn3  1  0.00000000  0.70805800  0.29194200  1
  Mn  Mn4  1  0.29194200  0.00000000  0.70805800  1
  Mn  Mn5  1  0.70805800  0.29194200  0.00000000  1
  Mn  Mn6  1  0.45985200  0.25058000  0.20993800  1
  Mn  Mn7  1  0.20993800  0.45985200  0.25058000  1
  Mn  Mn8  1  0.25058000  0.20993800  0.45985200  1
  Mn  Mn9  1  0.54014800  0.79006200  0.74942000  1
  Mn  Mn10  1  0.74942000  0.54014800  0.79006200  1
  Mn  Mn11  1  0.79006200  0.74942000  0.54014800  1
  Ag  Ag12  1  0.50000000  0.50000000  0.50000000  1
  Ag  Ag13  1  0.13535200  0.21386400  0.94372000  1
  Ag  Ag14  1  0.94372000  0.13535200  0.21386400  1
  Ag  Ag15  1  0.21386400  0.94372000  0.13535200  1
  Ag  Ag16  1  0.86464800  0.05628000  0.78613600  1
  Ag  Ag17  1  0.78613600  0.86464800  0.05628000  1
  Ag  Ag18  1  0.05628000  0.78613600  0.86464800  1
  Ag  Ag19  1  0.39448300  0.78808200  0.38457700  1
  Ag  Ag20  1  0.38457700  0.39448300  0.78808200  1
  Ag  Ag21  1  0.78808200  0.38457700  0.39448300  1
  Ag  Ag22  1  0.60551700  0.61542300  0.21191800  1
  Ag  Ag23  1  0.21191800  0.60551700  0.61542300  1
  Ag  Ag24  1  0.61542300  0.21191800  0.60551700  1
  Ag  Ag25  1  0.00000000  0.33558500  0.66441500  1
  Ag  Ag26  1  0.66441500  0.00000000  0.33558500  1
  Ag  Ag27  1  0.33558500  0.66441500  0.00000000  1
  O  O28  1  0.17170400  0.47464400  0.04113500  1
  O  O29  1  0.04113500  0.17170400  0.47464400  1
  O  O30  1  0.47464400  0.04113500  0.17170400  1
  O  O31  1  0.82829600  0.95886500  0.52535600  1
  O  O32  1  0.52535600  0.82829600  0.95886500  1
  O  O33  1  0.95886500  0.52535600  0.82829600  1
  O  O34  1  0.22258700  0.41941800  0.45813600  1
  O  O35  1  0.45813600  0.22258700  0.41941800  1
  O  O36  1  0.41941800  0.45813600  0.22258700  1
  O  O37  1  0.77741300  0.54186400  0.58058200  1
  O  O38  1  0.58058200  0.77741300  0.54186400  1
  O  O39  1  0.54186400  0.58058200  0.77741300  1
  O  O40  1  0.24036000  0.24036000  0.24036000  1
  O  O41  1  0.75964000  0.75964000  0.75964000  1
  O  O42  1  0.67113700  0.27595800  0.20836300  1
  O  O43  1  0.97066400  0.70701900  0.08111400  1
  O  O44  1  0.70701900  0.08111400  0.97066400  1
  O  O45  1  0.02933600  0.91888600  0.29298100  1
  O  O46  1  0.29298100  0.02933600  0.91888600  1
  O  O47  1  0.91888600  0.29298100  0.02933600  1
  O  O48  1  0.25810400  0.99006300  0.49104600  1
  O  O49  1  0.49104600  0.25810400  0.99006300  1
  O  O50  1  0.99006300  0.49104600  0.25810400  1
  O  O51  1  0.74189600  0.50895400  0.00993700  1
  O  O52  1  0.00993700  0.74189600  0.50895400  1
  O  O53  1  0.50895400  0.00993700  0.74189600  1
  O  O54  1  0.20836300  0.67113700  0.27595800  1
  O  O55  1  0.27595800  0.20836300  0.67113700  1
  O  O56  1  0.72404200  0.32886300  0.79163700  1
  O  O57  1  0.32886300  0.79163700  0.72404200  1
  O  O58  1  0.79163700  0.72404200  0.32886300  1
  O  O59  1  0.08111400  0.97066400  0.70701900  1
