# generated using pymatgen
data_Ca5Hg3
_symmetry_space_group_name_H-M   'P 1'
_cell_length_a   9.43310623
_cell_length_b   9.43310623
_cell_length_c   9.43310623
_cell_angle_alpha   128.15090267
_cell_angle_beta   128.15090267
_cell_angle_gamma   76.38069906
_symmetry_Int_Tables_number   1
_chemical_formula_structural   Ca5Hg3
_chemical_formula_sum   'Ca10 Hg6'
_cell_volume   504.38248823
_cell_formula_units_Z   2
loop_
 _symmetry_equiv_pos_site_id
 _symmetry_equiv_pos_as_xyz
  1  'x, y, z'
loop_
 _atom_site_type_symbol
 _atom_site_label
 _atom_site_symmetry_multiplicity
 _atom_site_fract_x
 _atom_site_fract_y
 _atom_site_fract_z
 _atom_site_occupancy
  Ca  Ca0  1  0.50000000  0.50000000  0.00000000  1
  Ca  Ca1  1  0.00000000  0.00000000  0.00000000  1
  Ca  Ca2  1  0.31203100  0.81203100  0.82886400  1
  Ca  Ca3  1  0.81203100  0.98316700  0.50000000  1
  Ca  Ca4  1  0.48316700  0.31203100  0.50000000  1
  Ca  Ca5  1  0.18796900  0.01683300  0.50000000  1
  Ca  Ca6  1  0.51683300  0.68796900  0.50000000  1
  Ca  Ca7  1  0.01683300  0.51683300  0.82886400  1
  Ca  Ca8  1  0.68796900  0.18796900  0.17113600  1
  Ca  Ca9  1  0.98316700  0.48316700  0.17113600  1
  Hg  Hg10  1  0.75000000  0.75000000  0.00000000  1
  Hg  Hg11  1  0.25000000  0.25000000  0.00000000  1
  Hg  Hg12  1  0.36535700  0.86535700  0.23071300  1
  Hg  Hg13  1  0.86535700  0.63464300  0.50000000  1
  Hg  Hg14  1  0.13464300  0.36535700  0.50000000  1
  Hg  Hg15  1  0.63464300  0.13464300  0.76928700  1
