data_image0
_chemical_formula_structural       In20Ni2S20
_chemical_formula_sum              "In20 Ni2 S20"
_cell_length_a       7.43224
_cell_length_b       11.4256
_cell_length_c       12.0889
_cell_angle_alpha    90
_cell_angle_beta     90
_cell_angle_gamma    90

_space_group_name_H-M_alt    "P 1"
_space_group_IT_number       1

loop_
  _space_group_symop_operation_xyz
  'x, y, z'

loop_
  _atom_site_type_symbol
  _atom_site_label
  _atom_site_symmetry_multiplicity
  _atom_site_fract_x
  _atom_site_fract_y
  _atom_site_fract_z
  _atom_site_occupancy
  In  In1       1.0  0.26000  0.75000  0.00000  1.0000
  In  In2       1.0  0.74000  0.75000  0.00000  1.0000
  In  In3       1.0  0.24500  0.13000  0.08930  1.0000
  In  In4       1.0  0.75500  0.13000  0.08930  1.0000
  In  In5       1.0  0.00000  0.40900  0.14900  1.0000
  In  In6       1.0  0.50000  0.39800  0.22100  1.0000
  In  In7       1.0  0.50000  0.89800  0.27900  1.0000
  In  In8       1.0  0.00000  0.90900  0.35100  1.0000
  In  In9       1.0  0.24500  0.63000  0.41100  1.0000
  In  In10      1.0  0.75500  0.63000  0.41100  1.0000
  In  In11      1.0  0.26000  0.25000  0.50000  1.0000
  In  In12      1.0  0.74000  0.25000  0.50000  1.0000
  In  In13      1.0  0.24500  0.87000  0.58900  1.0000
  In  In14      1.0  0.75500  0.87000  0.58900  1.0000
  In  In15      1.0  0.00000  0.59100  0.64900  1.0000
  In  In16      1.0  0.50000  0.60200  0.72100  1.0000
  In  In17      1.0  0.50000  0.10200  0.77900  1.0000
  In  In18      1.0  0.00000  0.09080  0.85100  1.0000
  In  In19      1.0  0.24500  0.37000  0.91100  1.0000
  In  In20      1.0  0.75500  0.37000  0.91100  1.0000
  Ni  Ni1       1.0  0.00000  0.25000  0.00000  1.0000
  Ni  Ni2       1.0  0.00000  0.75000  0.50000  1.0000
  S   S1        1.0  0.50000  0.47100  0.03190  1.0000
  S   S2        1.0  0.00000  0.63600  0.10900  1.0000
  S   S3        1.0  0.21700  0.92000  0.17600  1.0000
  S   S4        1.0  0.78300  0.92000  0.17600  1.0000
  S   S5        1.0  0.50000  0.17800  0.22600  1.0000
  S   S6        1.0  0.50000  0.67800  0.27400  1.0000
  S   S7        1.0  0.21700  0.42000  0.32400  1.0000
  S   S8        1.0  0.78300  0.42000  0.32400  1.0000
  S   S9        1.0  0.00000  0.13600  0.39100  1.0000
  S   S10       1.0  0.50000  0.97100  0.46800  1.0000
  S   S11       1.0  0.50000  0.52900  0.53200  1.0000
  S   S12       1.0  0.00000  0.36400  0.60900  1.0000
  S   S13       1.0  0.21700  0.07990  0.67600  1.0000
  S   S14       1.0  0.78300  0.07990  0.67600  1.0000
  S   S15       1.0  0.50000  0.82200  0.72600  1.0000
  S   S16       1.0  0.50000  0.32200  0.77400  1.0000
  S   S17       1.0  0.21700  0.58000  0.82400  1.0000
  S   S18       1.0  0.78300  0.58000  0.82400  1.0000
  S   S19       1.0  0.00000  0.86400  0.89100  1.0000
  S   S20       1.0  0.50000  0.02880  0.96800  1.0000
