data_image0
_chemical_formula_structural       In32Pd8Te4
_chemical_formula_sum              "In32 Pd8 Te4"
_cell_length_a       10.5684
_cell_length_b       10.291
_cell_length_c       10.291
_cell_angle_alpha    90
_cell_angle_beta     90
_cell_angle_gamma    90

_space_group_name_H-M_alt    "P 1"
_space_group_IT_number       1

loop_
  _space_group_symop_operation_xyz
  'x, y, z'

loop_
  _atom_site_type_symbol
  _atom_site_label
  _atom_site_symmetry_multiplicity
  _atom_site_fract_x
  _atom_site_fract_y
  _atom_site_fract_z
  _atom_site_occupancy
  In  In1       1.0  0.16200  0.00000  0.00000  1.0000
  In  In2       1.0  0.83800  0.00000  0.00000  1.0000
  In  In3       1.0  0.29800  0.29200  0.05510  1.0000
  In  In4       1.0  0.70200  0.29200  0.05510  1.0000
  In  In5       1.0  0.50000  0.90400  0.09620  1.0000
  In  In6       1.0  0.00000  0.81000  0.19000  1.0000
  In  In7       1.0  0.00000  0.19700  0.19700  1.0000
  In  In8       1.0  0.20200  0.55500  0.20800  1.0000
  In  In9       1.0  0.79800  0.55500  0.20800  1.0000
  In  In10      1.0  0.29800  0.05510  0.29200  1.0000
  In  In11      1.0  0.70200  0.05510  0.29200  1.0000
  In  In12      1.0  0.50000  0.69700  0.30300  1.0000
  In  In13      1.0  0.50000  0.31000  0.31000  1.0000
  In  In14      1.0  0.00000  0.40400  0.40400  1.0000
  In  In15      1.0  0.20200  0.79200  0.44500  1.0000
  In  In16      1.0  0.79800  0.79200  0.44500  1.0000
  In  In17      1.0  0.33800  0.50000  0.50000  1.0000
  In  In18      1.0  0.66200  0.50000  0.50000  1.0000
  In  In19      1.0  0.20200  0.20800  0.55500  1.0000
  In  In20      1.0  0.79800  0.20800  0.55500  1.0000
  In  In21      1.0  0.00000  0.59600  0.59600  1.0000
  In  In22      1.0  0.50000  0.69000  0.69000  1.0000
  In  In23      1.0  0.50000  0.30300  0.69700  1.0000
  In  In24      1.0  0.29800  0.94500  0.70800  1.0000
  In  In25      1.0  0.70200  0.94500  0.70800  1.0000
  In  In26      1.0  0.20200  0.44500  0.79200  1.0000
  In  In27      1.0  0.79800  0.44500  0.79200  1.0000
  In  In28      1.0  0.00000  0.80300  0.80300  1.0000
  In  In29      1.0  0.00000  0.19000  0.81000  1.0000
  In  In30      1.0  0.50000  0.09620  0.90400  1.0000
  In  In31      1.0  0.29800  0.70800  0.94500  1.0000
  In  In32      1.0  0.70200  0.70800  0.94500  1.0000
  Pd  Pd1       1.0  0.26100  0.81500  0.18500  1.0000
  Pd  Pd2       1.0  0.73900  0.81500  0.18500  1.0000
  Pd  Pd3       1.0  0.23900  0.31500  0.31500  1.0000
  Pd  Pd4       1.0  0.76100  0.31500  0.31500  1.0000
  Pd  Pd5       1.0  0.23900  0.68500  0.68500  1.0000
  Pd  Pd6       1.0  0.76100  0.68500  0.68500  1.0000
  Pd  Pd7       1.0  0.26100  0.18500  0.81500  1.0000
  Pd  Pd8       1.0  0.73900  0.18500  0.81500  1.0000
  Te  Te1       1.0  0.00000  0.50000  0.00000  1.0000
  Te  Te2       1.0  0.50000  0.50000  0.00000  1.0000
  Te  Te3       1.0  0.00000  0.00000  0.50000  1.0000
  Te  Te4       1.0  0.50000  0.00000  0.50000  1.0000
