# generated using pymatgen
data_C2O3F2
_symmetry_space_group_name_H-M   'P 1'
_cell_length_a   6.68577300
_cell_length_b   7.28049900
_cell_length_c   16.69393800
_cell_angle_alpha   90.00000000
_cell_angle_beta   90.00000000
_cell_angle_gamma   90.00000000
_symmetry_Int_Tables_number   1
_chemical_formula_structural   C2O3F2
_chemical_formula_sum   'C16 O24 F16'
_cell_volume   812.59018032
_cell_formula_units_Z   8
loop_
 _symmetry_equiv_pos_site_id
 _symmetry_equiv_pos_as_xyz
  1  'x, y, z'
loop_
 _atom_site_type_symbol
 _atom_site_label
 _atom_site_symmetry_multiplicity
 _atom_site_fract_x
 _atom_site_fract_y
 _atom_site_fract_z
 _atom_site_occupancy
  C  C0  1  0.74734000  0.56486500  0.60395200  1
  C  C1  1  0.24734000  0.93513500  0.39604800  1
  C  C2  1  0.25266000  0.06486500  0.89604800  1
  C  C3  1  0.75266000  0.43513500  0.10395200  1
  C  C4  1  0.05329600  0.57362200  0.53258800  1
  C  C5  1  0.55329600  0.92637800  0.46741200  1
  C  C6  1  0.94670400  0.07362200  0.96741200  1
  C  C7  1  0.44670400  0.42637800  0.03258800  1
  C  C8  1  0.90062800  0.53082300  0.83160900  1
  C  C9  1  0.40062800  0.96917700  0.16839100  1
  C  C10  1  0.09937200  0.03082300  0.66839100  1
  C  C11  1  0.59937200  0.46917700  0.33160900  1
  C  C12  1  0.21502900  0.54619500  0.76691100  1
  C  C13  1  0.71502900  0.95380500  0.23308900  1
  C  C14  1  0.78497100  0.04619500  0.73308900  1
  C  C15  1  0.28497100  0.45380500  0.26691100  1
  O  O16  1  0.32681200  0.52375700  0.20459600  1
  O  O17  1  0.82681200  0.97624300  0.79540400  1
  O  O18  1  0.67318800  0.02375700  0.29540400  1
  O  O19  1  0.17318800  0.47624300  0.70459600  1
  O  O20  1  0.68243900  0.57540800  0.28875300  1
  O  O21  1  0.18243900  0.92459200  0.71124700  1
  O  O22  1  0.31756100  0.07540800  0.21124700  1
  O  O23  1  0.81756100  0.42459200  0.78875300  1
  O  O24  1  0.40741600  0.26711200  0.03873000  1
  O  O25  1  0.90741600  0.23288800  0.96127000  1
  O  O26  1  0.59258400  0.76711200  0.46127000  1
  O  O27  1  0.09258400  0.73288800  0.53873000  1
  O  O28  1  0.74097700  0.29472800  0.14025800  1
  O  O29  1  0.24097700  0.20527200  0.85974200  1
  O  O30  1  0.25902300  0.79472800  0.35974200  1
  O  O31  1  0.75902300  0.70527200  0.64025800  1
  O  O32  1  0.40614800  0.40637700  0.33015200  1
  O  O33  1  0.90614800  0.09362300  0.66984800  1
  O  O34  1  0.59385200  0.90637700  0.16984800  1
  O  O35  1  0.09385200  0.59362300  0.83015200  1
  O  O36  1  0.61361300  0.52086900  0.05619100  1
  O  O37  1  0.11361300  0.97913100  0.94380900  1
  O  O38  1  0.38638700  0.02086900  0.44380900  1
  O  O39  1  0.88638700  0.47913100  0.55619100  1
  F  F40  1  0.58865000  0.45321000  0.60406700  1
  F  F41  1  0.08865000  0.04679000  0.39593300  1
  F  F42  1  0.41135000  0.95321000  0.89593300  1
  F  F43  1  0.91135000  0.54679000  0.10406700  1
  F  F44  1  0.16997500  0.44935800  0.49645100  1
  F  F45  1  0.66997500  0.05064200  0.50354900  1
  F  F46  1  0.83002500  0.94935800  0.00354900  1
  F  F47  1  0.33002500  0.55064200  0.99645100  1
  F  F48  1  0.81569800  0.61388600  0.89465600  1
  F  F49  1  0.31569800  0.88611400  0.10534400  1
  F  F50  1  0.18430200  0.11388600  0.60534400  1
  F  F51  1  0.68430200  0.38611400  0.39465600  1
  F  F52  1  0.39865600  0.59866500  0.78847900  1
  F  F53  1  0.89865600  0.90133500  0.21152100  1
  F  F54  1  0.60134400  0.09866500  0.71152100  1
  F  F55  1  0.10134400  0.40133500  0.28847900  1
