data_image0
_chemical_formula_structural       Bi20Ir2S20
_chemical_formula_sum              "Bi20 Ir2 S20"
_cell_length_a       8.57987
_cell_length_b       10.7482
_cell_length_c       12.8629
_cell_angle_alpha    90
_cell_angle_beta     90
_cell_angle_gamma    90

_space_group_name_H-M_alt    "P 1"
_space_group_IT_number       1

loop_
  _space_group_symop_operation_xyz
  'x, y, z'

loop_
  _atom_site_type_symbol
  _atom_site_label
  _atom_site_symmetry_multiplicity
  _atom_site_fract_x
  _atom_site_fract_y
  _atom_site_fract_z
  _atom_site_occupancy
  Bi  Bi1       1.0  0.26900  0.00000  0.00000  1.0000
  Bi  Bi2       1.0  0.73100  0.00000  0.00000  1.0000
  Bi  Bi3       1.0  0.27300  0.64000  0.09250  1.0000
  Bi  Bi4       1.0  0.72700  0.64000  0.09250  1.0000
  Bi  Bi5       1.0  0.50000  0.35400  0.17500  1.0000
  Bi  Bi6       1.0  0.00000  0.24700  0.17800  1.0000
  Bi  Bi7       1.0  0.00000  0.74700  0.32200  1.0000
  Bi  Bi8       1.0  0.50000  0.85400  0.32500  1.0000
  Bi  Bi9       1.0  0.27300  0.14000  0.40700  1.0000
  Bi  Bi10      1.0  0.72700  0.14000  0.40700  1.0000
  Bi  Bi11      1.0  0.26900  0.50000  0.50000  1.0000
  Bi  Bi12      1.0  0.73100  0.50000  0.50000  1.0000
  Bi  Bi13      1.0  0.27300  0.86000  0.59300  1.0000
  Bi  Bi14      1.0  0.72700  0.86000  0.59300  1.0000
  Bi  Bi15      1.0  0.50000  0.14600  0.67500  1.0000
  Bi  Bi16      1.0  0.00000  0.25300  0.67800  1.0000
  Bi  Bi17      1.0  0.00000  0.75300  0.82200  1.0000
  Bi  Bi18      1.0  0.50000  0.64600  0.82500  1.0000
  Bi  Bi19      1.0  0.27300  0.36000  0.90700  1.0000
  Bi  Bi20      1.0  0.72700  0.36000  0.90700  1.0000
  Ir  Ir1       1.0  0.50000  0.50000  0.00000  1.0000
  Ir  Ir2       1.0  0.50000  0.00000  0.50000  1.0000
  S   S1        1.0  0.00000  0.82800  0.01540  1.0000
  S   S2        1.0  0.50000  0.85500  0.08270  1.0000
  S   S3        1.0  0.00000  0.49600  0.14800  1.0000
  S   S4        1.0  0.30400  0.15300  0.18800  1.0000
  S   S5        1.0  0.69600  0.15300  0.18800  1.0000
  S   S6        1.0  0.30400  0.65300  0.31200  1.0000
  S   S7        1.0  0.69600  0.65300  0.31200  1.0000
  S   S8        1.0  0.00000  0.99600  0.35200  1.0000
  S   S9        1.0  0.50000  0.35500  0.41700  1.0000
  S   S10       1.0  0.00000  0.32800  0.48500  1.0000
  S   S11       1.0  0.00000  0.67200  0.51500  1.0000
  S   S12       1.0  0.50000  0.64500  0.58300  1.0000
  S   S13       1.0  0.00000  0.00413  0.64800  1.0000
  S   S14       1.0  0.30400  0.34700  0.68800  1.0000
  S   S15       1.0  0.69600  0.34700  0.68800  1.0000
  S   S16       1.0  0.30400  0.84700  0.81200  1.0000
  S   S17       1.0  0.69600  0.84700  0.81200  1.0000
  S   S18       1.0  0.00000  0.50400  0.85200  1.0000
  S   S19       1.0  0.50000  0.14500  0.91700  1.0000
  S   S20       1.0  0.00000  0.17200  0.98500  1.0000
