data_image0
_chemical_formula_structural       In32Ru8Se4
_chemical_formula_sum              "In32 Ru8 Se4"
_cell_length_a       10.2256
_cell_length_b       10.2256
_cell_length_c       9.99849
_cell_angle_alpha    90
_cell_angle_beta     90
_cell_angle_gamma    90

_space_group_name_H-M_alt    "P 1"
_space_group_IT_number       1

loop_
  _space_group_symop_operation_xyz
  'x, y, z'

loop_
  _atom_site_type_symbol
  _atom_site_label
  _atom_site_symmetry_multiplicity
  _atom_site_fract_x
  _atom_site_fract_y
  _atom_site_fract_z
  _atom_site_occupancy
  In  In1       1.0  0.81100  0.18900  0.00000  1.0000
  In  In2       1.0  0.19900  0.19900  0.00000  1.0000
  In  In3       1.0  0.40200  0.40200  0.00000  1.0000
  In  In4       1.0  0.59800  0.59800  0.00000  1.0000
  In  In5       1.0  0.80100  0.80100  0.00000  1.0000
  In  In6       1.0  0.18900  0.81100  0.00000  1.0000
  In  In7       1.0  0.00000  0.00000  0.17100  1.0000
  In  In8       1.0  0.55500  0.20400  0.21100  1.0000
  In  In9       1.0  0.79600  0.44500  0.21100  1.0000
  In  In10      1.0  0.20400  0.55500  0.21100  1.0000
  In  In11      1.0  0.44500  0.79600  0.21100  1.0000
  In  In12      1.0  0.29600  0.05460  0.28900  1.0000
  In  In13      1.0  0.05460  0.29600  0.28900  1.0000
  In  In14      1.0  0.94500  0.70400  0.28900  1.0000
  In  In15      1.0  0.70400  0.94500  0.28900  1.0000
  In  In16      1.0  0.50000  0.50000  0.32900  1.0000
  In  In17      1.0  0.90200  0.09810  0.50000  1.0000
  In  In18      1.0  0.69900  0.30100  0.50000  1.0000
  In  In19      1.0  0.31100  0.31100  0.50000  1.0000
  In  In20      1.0  0.68900  0.68900  0.50000  1.0000
  In  In21      1.0  0.30100  0.69900  0.50000  1.0000
  In  In22      1.0  0.09810  0.90200  0.50000  1.0000
  In  In23      1.0  0.50000  0.50000  0.67100  1.0000
  In  In24      1.0  0.29600  0.05460  0.71100  1.0000
  In  In25      1.0  0.05460  0.29600  0.71100  1.0000
  In  In26      1.0  0.94500  0.70400  0.71100  1.0000
  In  In27      1.0  0.70400  0.94500  0.71100  1.0000
  In  In28      1.0  0.55500  0.20400  0.78900  1.0000
  In  In29      1.0  0.79600  0.44500  0.78900  1.0000
  In  In30      1.0  0.20400  0.55500  0.78900  1.0000
  In  In31      1.0  0.44500  0.79600  0.78900  1.0000
  In  In32      1.0  0.00000  0.00000  0.82900  1.0000
  Ru  Ru1       1.0  0.31400  0.31400  0.23600  1.0000
  Ru  Ru2       1.0  0.68600  0.68600  0.23600  1.0000
  Ru  Ru3       1.0  0.81400  0.18600  0.26400  1.0000
  Ru  Ru4       1.0  0.18600  0.81400  0.26400  1.0000
  Ru  Ru5       1.0  0.81400  0.18600  0.73600  1.0000
  Ru  Ru6       1.0  0.18600  0.81400  0.73600  1.0000
  Ru  Ru7       1.0  0.31400  0.31400  0.76400  1.0000
  Ru  Ru8       1.0  0.68600  0.68600  0.76400  1.0000
  Se  Se1       1.0  0.50000  0.00000  0.00000  1.0000
  Se  Se2       1.0  0.00000  0.50000  0.00000  1.0000
  Se  Se3       1.0  0.50000  0.00000  0.50000  1.0000
  Se  Se4       1.0  0.00000  0.50000  0.50000  1.0000
