# generated using pymatgen
data_Nb21S8
_symmetry_space_group_name_H-M   'P 1'
_cell_length_a   12.09464961
_cell_length_b   12.09464961
_cell_length_c   12.09464961
_cell_angle_alpha   91.11834988
_cell_angle_beta   91.11834988
_cell_angle_gamma   163.93838078
_symmetry_Int_Tables_number   1
_chemical_formula_structural   Nb21S8
_chemical_formula_sum   'Nb21 S8'
_cell_volume   484.68925593
_cell_formula_units_Z   1
loop_
 _symmetry_equiv_pos_site_id
 _symmetry_equiv_pos_as_xyz
  1  'x, y, z'
loop_
 _atom_site_type_symbol
 _atom_site_label
 _atom_site_symmetry_multiplicity
 _atom_site_fract_x
 _atom_site_fract_y
 _atom_site_fract_z
 _atom_site_occupancy
  Nb  Nb0  1  0.27807300  0.01988600  0.29795900  1
  Nb  Nb1  1  0.61594900  0.81459200  0.43054200  1
  Nb  Nb2  1  0.18540800  0.61594900  0.80135700  1
  Nb  Nb3  1  0.81459200  0.38405100  0.19864300  1
  Nb  Nb4  1  0.38405100  0.18540800  0.56945800  1
  Nb  Nb5  1  0.80816000  0.80225500  0.61041500  1
  Nb  Nb6  1  0.19774500  0.80816000  0.00590500  1
  Nb  Nb7  1  0.80225500  0.19184000  0.99409500  1
  Nb  Nb8  1  0.19184000  0.19774500  0.38958500  1
  Nb  Nb9  1  0.54869600  0.63505800  0.18375400  1
  Nb  Nb10  1  0.36494200  0.54869600  0.91363700  1
  Nb  Nb11  1  0.63505800  0.45130400  0.08636300  1
  Nb  Nb12  1  0.45130400  0.36494200  0.81624600  1
  Nb  Nb13  1  0.98011400  0.27807300  0.25818700  1
  Nb  Nb14  1  0.01988600  0.72192700  0.74181300  1
  Nb  Nb15  1  0.72192700  0.98011400  0.70204100  1
  Nb  Nb16  1  0.08115300  0.45023300  0.53138600  1
  Nb  Nb17  1  0.54976700  0.08115300  0.63092000  1
  Nb  Nb18  1  0.45023300  0.91884700  0.36908000  1
  Nb  Nb19  1  0.91884700  0.54976700  0.46861400  1
  Nb  Nb20  1  0.00000000  0.00000000  0.00000000  1
  S  S21  1  0.21290000  0.36438400  0.57728400  1
  S  S22  1  0.63561600  0.21290000  0.84851600  1
  S  S23  1  0.36438400  0.78710000  0.15148400  1
  S  S24  1  0.78710000  0.63561600  0.42271600  1
  S  S25  1  0.13742000  0.06392500  0.20134500  1
  S  S26  1  0.93607500  0.13742000  0.07349500  1
  S  S27  1  0.06392500  0.86258000  0.92650500  1
  S  S28  1  0.86258000  0.93607500  0.79865500  1
