data_image0
_chemical_formula_structural       In20Pd2Te20
_chemical_formula_sum              "In20 Pd2 Te20"
_cell_length_a       8.16628
_cell_length_b       12.8109
_cell_length_c       13.2959
_cell_angle_alpha    90
_cell_angle_beta     90
_cell_angle_gamma    90

_space_group_name_H-M_alt    "P 1"
_space_group_IT_number       1

loop_
  _space_group_symop_operation_xyz
  'x, y, z'

loop_
  _atom_site_type_symbol
  _atom_site_label
  _atom_site_symmetry_multiplicity
  _atom_site_fract_x
  _atom_site_fract_y
  _atom_site_fract_z
  _atom_site_occupancy
  In  In1       1.0  0.22800  0.00000  0.00000  1.0000
  In  In2       1.0  0.77200  0.00000  0.00000  1.0000
  In  In3       1.0  0.26000  0.38900  0.08860  1.0000
  In  In4       1.0  0.74000  0.38900  0.08860  1.0000
  In  In5       1.0  0.50000  0.65700  0.13700  1.0000
  In  In6       1.0  0.00000  0.65300  0.22200  1.0000
  In  In7       1.0  0.00000  0.15300  0.27800  1.0000
  In  In8       1.0  0.50000  0.15700  0.36300  1.0000
  In  In9       1.0  0.26000  0.88900  0.41100  1.0000
  In  In10      1.0  0.74000  0.88900  0.41100  1.0000
  In  In11      1.0  0.22800  0.50000  0.50000  1.0000
  In  In12      1.0  0.77200  0.50000  0.50000  1.0000
  In  In13      1.0  0.26000  0.11100  0.58900  1.0000
  In  In14      1.0  0.74000  0.11100  0.58900  1.0000
  In  In15      1.0  0.50000  0.84300  0.63700  1.0000
  In  In16      1.0  0.00000  0.84700  0.72200  1.0000
  In  In17      1.0  0.00000  0.34700  0.77800  1.0000
  In  In18      1.0  0.50000  0.34300  0.86300  1.0000
  In  In19      1.0  0.26000  0.61100  0.91100  1.0000
  In  In20      1.0  0.74000  0.61100  0.91100  1.0000
  Pd  Pd1       1.0  0.50000  0.50000  0.00000  1.0000
  Pd  Pd2       1.0  0.50000  0.00000  0.50000  1.0000
  Te  Te1       1.0  0.00000  0.72600  0.02730  1.0000
  Te  Te2       1.0  0.50000  0.88500  0.11900  1.0000
  Te  Te3       1.0  0.29300  0.17300  0.17300  1.0000
  Te  Te4       1.0  0.70700  0.17300  0.17300  1.0000
  Te  Te5       1.0  0.00000  0.43200  0.23400  1.0000
  Te  Te6       1.0  0.00000  0.93200  0.26600  1.0000
  Te  Te7       1.0  0.29300  0.67300  0.32700  1.0000
  Te  Te8       1.0  0.70700  0.67300  0.32700  1.0000
  Te  Te9       1.0  0.50000  0.38500  0.38100  1.0000
  Te  Te10      1.0  0.00000  0.22600  0.47300  1.0000
  Te  Te11      1.0  0.00000  0.77400  0.52700  1.0000
  Te  Te12      1.0  0.50000  0.61500  0.61900  1.0000
  Te  Te13      1.0  0.29300  0.32700  0.67300  1.0000
  Te  Te14      1.0  0.70700  0.32700  0.67300  1.0000
  Te  Te15      1.0  0.00000  0.06800  0.73400  1.0000
  Te  Te16      1.0  0.00000  0.56800  0.76600  1.0000
  Te  Te17      1.0  0.29300  0.82700  0.82700  1.0000
  Te  Te18      1.0  0.70700  0.82700  0.82700  1.0000
  Te  Te19      1.0  0.50000  0.11500  0.88100  1.0000
  Te  Te20      1.0  0.00000  0.27400  0.97300  1.0000
