data_image0
_chemical_formula_structural       In20Pt2S20
_chemical_formula_sum              "In20 Pt2 S20"
_cell_length_a       7.53751
_cell_length_b       11.5853
_cell_length_c       12.1535
_cell_angle_alpha    90
_cell_angle_beta     90
_cell_angle_gamma    90

_space_group_name_H-M_alt    "P 1"
_space_group_IT_number       1

loop_
  _space_group_symop_operation_xyz
  'x, y, z'

loop_
  _atom_site_type_symbol
  _atom_site_label
  _atom_site_symmetry_multiplicity
  _atom_site_fract_x
  _atom_site_fract_y
  _atom_site_fract_z
  _atom_site_occupancy
  In  In1       1.0  0.24700  0.00000  0.00000  1.0000
  In  In2       1.0  0.75300  0.00000  0.00000  1.0000
  In  In3       1.0  0.24800  0.37600  0.09130  1.0000
  In  In4       1.0  0.75200  0.37600  0.09130  1.0000
  In  In5       1.0  0.50000  0.66500  0.15300  1.0000
  In  In6       1.0  0.00000  0.64400  0.21900  1.0000
  In  In7       1.0  0.00000  0.14400  0.28100  1.0000
  In  In8       1.0  0.50000  0.16500  0.34700  1.0000
  In  In9       1.0  0.24800  0.87600  0.40900  1.0000
  In  In10      1.0  0.75200  0.87600  0.40900  1.0000
  In  In11      1.0  0.24700  0.50000  0.50000  1.0000
  In  In12      1.0  0.75300  0.50000  0.50000  1.0000
  In  In13      1.0  0.24800  0.12400  0.59100  1.0000
  In  In14      1.0  0.75200  0.12400  0.59100  1.0000
  In  In15      1.0  0.50000  0.83500  0.65300  1.0000
  In  In16      1.0  0.00000  0.85600  0.71900  1.0000
  In  In17      1.0  0.00000  0.35600  0.78100  1.0000
  In  In18      1.0  0.50000  0.33500  0.84700  1.0000
  In  In19      1.0  0.24800  0.62400  0.90900  1.0000
  In  In20      1.0  0.75200  0.62400  0.90900  1.0000
  Pt  Pt1       1.0  0.50000  0.50000  0.00000  1.0000
  Pt  Pt2       1.0  0.50000  0.00000  0.50000  1.0000
  S   S1        1.0  0.00000  0.72200  0.03230  1.0000
  S   S2        1.0  0.50000  0.88800  0.10800  1.0000
  S   S3        1.0  0.27900  0.17000  0.17800  1.0000
  S   S4        1.0  0.72100  0.17000  0.17800  1.0000
  S   S5        1.0  0.00000  0.42800  0.22800  1.0000
  S   S6        1.0  0.00000  0.92800  0.27200  1.0000
  S   S7        1.0  0.27900  0.67000  0.32200  1.0000
  S   S8        1.0  0.72100  0.67000  0.32200  1.0000
  S   S9        1.0  0.50000  0.38800  0.39200  1.0000
  S   S10       1.0  0.00000  0.22200  0.46800  1.0000
  S   S11       1.0  0.00000  0.77800  0.53200  1.0000
  S   S12       1.0  0.50000  0.61200  0.60800  1.0000
  S   S13       1.0  0.27900  0.33000  0.67800  1.0000
  S   S14       1.0  0.72100  0.33000  0.67800  1.0000
  S   S15       1.0  0.00000  0.07240  0.72800  1.0000
  S   S16       1.0  0.00000  0.57200  0.77200  1.0000
  S   S17       1.0  0.27900  0.83000  0.82200  1.0000
  S   S18       1.0  0.72100  0.83000  0.82200  1.0000
  S   S19       1.0  0.50000  0.11200  0.89200  1.0000
  S   S20       1.0  0.00000  0.27800  0.96800  1.0000
