# generated using pymatgen
data_Mg2In
_symmetry_space_group_name_H-M   'P 1'
_cell_length_a   8.41008453
_cell_length_b   8.41008453
_cell_length_c   3.43159100
_cell_angle_alpha   90.00000000
_cell_angle_beta   90.00000000
_cell_angle_gamma   120.00000414
_symmetry_Int_Tables_number   1
_chemical_formula_structural   Mg2In
_chemical_formula_sum   'Mg6 In3'
_cell_volume   210.19716546
_cell_formula_units_Z   3
loop_
 _symmetry_equiv_pos_site_id
 _symmetry_equiv_pos_as_xyz
  1  'x, y, z'
loop_
 _atom_site_type_symbol
 _atom_site_label
 _atom_site_symmetry_multiplicity
 _atom_site_fract_x
 _atom_site_fract_y
 _atom_site_fract_z
 _atom_site_occupancy
  Mg  Mg0  1  0.29093700  0.00000000  0.00000000  1
  Mg  Mg1  1  0.70906300  0.70906300  0.00000000  1
  Mg  Mg2  1  0.00000000  0.29093700  0.00000000  1
  Mg  Mg3  1  0.62902100  0.00000000  0.50000000  1
  Mg  Mg4  1  0.37097900  0.37097900  0.50000000  1
  Mg  Mg5  1  0.00000000  0.62902100  0.50000000  1
  In  In6  1  0.00000000  0.00000000  0.50000000  1
  In  In7  1  0.33333300  0.66666700  0.00000000  1
  In  In8  1  0.66666700  0.33333300  0.00000000  1
