# generated using pymatgen
data_U(SbO3)2
_symmetry_space_group_name_H-M   'P 1'
_cell_length_a   7.15401803
_cell_length_b   7.15401803
_cell_length_c   5.37239496
_cell_angle_alpha   75.71676058
_cell_angle_beta   75.71676058
_cell_angle_gamma   32.57427212
_symmetry_Int_Tables_number   1
_chemical_formula_structural   U(SbO3)2
_chemical_formula_sum   'U1 Sb2 O6'
_cell_volume   143.06234254
_cell_formula_units_Z   1
loop_
 _symmetry_equiv_pos_site_id
 _symmetry_equiv_pos_as_xyz
  1  'x, y, z'
loop_
 _atom_site_type_symbol
 _atom_site_label
 _atom_site_symmetry_multiplicity
 _atom_site_fract_x
 _atom_site_fract_y
 _atom_site_fract_z
 _atom_site_occupancy
  U  U0  1  0.50000000  0.50000000  0.50000000  1
  Sb  Sb1  1  0.19010000  0.19010000  0.75258500  1
  Sb  Sb2  1  0.80990000  0.80990000  0.24741500  1
  O  O3  1  0.58609200  0.58609200  0.17413700  1
  O  O4  1  0.41390800  0.41390800  0.82586300  1
  O  O5  1  0.30393300  0.30393300  0.40634300  1
  O  O6  1  0.93276300  0.93276300  0.37910800  1
  O  O7  1  0.06723700  0.06723700  0.62089200  1
  O  O8  1  0.69606700  0.69606700  0.59365700  1
