data_image0
_chemical_formula_structural       Fe8In32Se4
_chemical_formula_sum              "Fe8 In32 Se4"
_cell_length_a       10.0038
_cell_length_b       10.0038
_cell_length_c       10.0142
_cell_angle_alpha    90
_cell_angle_beta     90
_cell_angle_gamma    90

_space_group_name_H-M_alt    "P 1"
_space_group_IT_number       1

loop_
  _space_group_symop_operation_xyz
  'x, y, z'

loop_
  _atom_site_type_symbol
  _atom_site_label
  _atom_site_symmetry_multiplicity
  _atom_site_fract_x
  _atom_site_fract_y
  _atom_site_fract_z
  _atom_site_occupancy
  Fe  Fe1       1.0  0.31700  0.31700  0.24000  1.0000
  Fe  Fe2       1.0  0.68300  0.68300  0.24000  1.0000
  Fe  Fe3       1.0  0.81700  0.18300  0.26000  1.0000
  Fe  Fe4       1.0  0.18300  0.81700  0.26000  1.0000
  Fe  Fe5       1.0  0.81700  0.18300  0.74000  1.0000
  Fe  Fe6       1.0  0.18300  0.81700  0.74000  1.0000
  Fe  Fe7       1.0  0.31700  0.31700  0.76000  1.0000
  Fe  Fe8       1.0  0.68300  0.68300  0.76000  1.0000
  In  In1       1.0  0.81300  0.18700  0.00000  1.0000
  In  In2       1.0  0.19900  0.19900  0.00000  1.0000
  In  In3       1.0  0.39900  0.39900  0.00000  1.0000
  In  In4       1.0  0.60100  0.60100  0.00000  1.0000
  In  In5       1.0  0.80100  0.80100  0.00000  1.0000
  In  In6       1.0  0.18700  0.81300  0.00000  1.0000
  In  In7       1.0  0.00000  0.00000  0.17900  1.0000
  In  In8       1.0  0.55600  0.20500  0.20900  1.0000
  In  In9       1.0  0.79500  0.44400  0.20900  1.0000
  In  In10      1.0  0.20500  0.55600  0.20900  1.0000
  In  In11      1.0  0.44400  0.79500  0.20900  1.0000
  In  In12      1.0  0.29500  0.05620  0.29100  1.0000
  In  In13      1.0  0.05620  0.29500  0.29100  1.0000
  In  In14      1.0  0.94400  0.70500  0.29100  1.0000
  In  In15      1.0  0.70500  0.94400  0.29100  1.0000
  In  In16      1.0  0.50000  0.50000  0.32100  1.0000
  In  In17      1.0  0.89900  0.10100  0.50000  1.0000
  In  In18      1.0  0.69900  0.30100  0.50000  1.0000
  In  In19      1.0  0.31300  0.31300  0.50000  1.0000
  In  In20      1.0  0.68700  0.68700  0.50000  1.0000
  In  In21      1.0  0.30100  0.69900  0.50000  1.0000
  In  In22      1.0  0.10100  0.89900  0.50000  1.0000
  In  In23      1.0  0.50000  0.50000  0.67900  1.0000
  In  In24      1.0  0.29500  0.05620  0.70900  1.0000
  In  In25      1.0  0.05620  0.29500  0.70900  1.0000
  In  In26      1.0  0.94400  0.70500  0.70900  1.0000
  In  In27      1.0  0.70500  0.94400  0.70900  1.0000
  In  In28      1.0  0.55600  0.20500  0.79100  1.0000
  In  In29      1.0  0.79500  0.44400  0.79100  1.0000
  In  In30      1.0  0.20500  0.55600  0.79100  1.0000
  In  In31      1.0  0.44400  0.79500  0.79100  1.0000
  In  In32      1.0  0.00000  0.00000  0.82100  1.0000
  Se  Se1       1.0  0.50000  0.00000  0.00000  1.0000
  Se  Se2       1.0  0.00000  0.50000  0.00000  1.0000
  Se  Se3       1.0  0.50000  0.00000  0.50000  1.0000
  Se  Se4       1.0  0.00000  0.50000  0.50000  1.0000
