data_image0
_chemical_formula_structural       Ge2P4Zn2
_chemical_formula_sum              "Ge2 P4 Zn2"
_cell_length_a       5.49446
_cell_length_b       5.49446
_cell_length_c       6.6566
_cell_angle_alpha    114.375
_cell_angle_beta     114.375
_cell_angle_gamma    90

_space_group_name_H-M_alt    "P 1"
_space_group_IT_number       1

loop_
  _space_group_symop_operation_xyz
  'x, y, z'

loop_
  _atom_site_type_symbol
  _atom_site_label
  _atom_site_symmetry_multiplicity
  _atom_site_fract_x
  _atom_site_fract_y
  _atom_site_fract_z
  _atom_site_occupancy
  Ge  Ge1       1.0  0.50000  0.50000  0.00000  1.0000
  Ge  Ge2       1.0  0.75000  0.25000  0.50000  1.0000
  P   P1        1.0  0.37900  0.37500  0.25000  1.0000
  P   P2        1.0  0.87100  0.87500  0.25000  1.0000
  P   P3        1.0  0.62500  0.12900  0.75000  1.0000
  P   P4        1.0  0.12500  0.62100  0.75000  1.0000
  Zn  Zn1       1.0  0.00000  0.00000  0.00000  1.0000
  Zn  Zn2       1.0  0.25000  0.75000  0.50000  1.0000
