data_image0
_chemical_formula_structural       In20Os2Se20
_chemical_formula_sum              "In20 Os2 Se20"
_cell_length_a       8.09027
_cell_length_b       12.3136
_cell_length_c       12.3377
_cell_angle_alpha    90
_cell_angle_beta     90
_cell_angle_gamma    90

_space_group_name_H-M_alt    "P 1"
_space_group_IT_number       1

loop_
  _space_group_symop_operation_xyz
  'x, y, z'

loop_
  _atom_site_type_symbol
  _atom_site_label
  _atom_site_symmetry_multiplicity
  _atom_site_fract_x
  _atom_site_fract_y
  _atom_site_fract_z
  _atom_site_occupancy
  In  In1       1.0  0.30400  0.00000  0.00000  1.0000
  In  In2       1.0  0.69600  0.00000  0.00000  1.0000
  In  In3       1.0  0.50000  0.29100  0.04290  1.0000
  In  In4       1.0  0.00000  0.27000  0.11000  1.0000
  In  In5       1.0  0.25200  0.54400  0.13200  1.0000
  In  In6       1.0  0.74800  0.54400  0.13200  1.0000
  In  In7       1.0  0.25200  0.04430  0.36800  1.0000
  In  In8       1.0  0.74800  0.04430  0.36800  1.0000
  In  In9       1.0  0.00000  0.77000  0.39000  1.0000
  In  In10      1.0  0.50000  0.79100  0.45700  1.0000
  In  In11      1.0  0.30400  0.50000  0.50000  1.0000
  In  In12      1.0  0.69600  0.50000  0.50000  1.0000
  In  In13      1.0  0.50000  0.20900  0.54300  1.0000
  In  In14      1.0  0.00000  0.23000  0.61000  1.0000
  In  In15      1.0  0.25200  0.95600  0.63200  1.0000
  In  In16      1.0  0.74800  0.95600  0.63200  1.0000
  In  In17      1.0  0.25200  0.45600  0.86800  1.0000
  In  In18      1.0  0.74800  0.45600  0.86800  1.0000
  In  In19      1.0  0.00000  0.73000  0.89000  1.0000
  In  In20      1.0  0.50000  0.70900  0.95700  1.0000
  Os  Os1       1.0  0.50000  0.50000  0.00000  1.0000
  Os  Os2       1.0  0.50000  0.00000  0.50000  1.0000
  Se  Se1       1.0  0.00000  0.69600  0.09500  1.0000
  Se  Se2       1.0  0.50000  0.87200  0.11800  1.0000
  Se  Se3       1.0  0.26300  0.15000  0.15100  1.0000
  Se  Se4       1.0  0.73700  0.15000  0.15100  1.0000
  Se  Se5       1.0  0.00000  0.43400  0.23800  1.0000
  Se  Se6       1.0  0.00000  0.93400  0.26200  1.0000
  Se  Se7       1.0  0.26300  0.65000  0.34900  1.0000
  Se  Se8       1.0  0.73700  0.65000  0.34900  1.0000
  Se  Se9       1.0  0.50000  0.37200  0.38200  1.0000
  Se  Se10      1.0  0.00000  0.19600  0.40500  1.0000
  Se  Se11      1.0  0.00000  0.80400  0.59500  1.0000
  Se  Se12      1.0  0.50000  0.62800  0.61800  1.0000
  Se  Se13      1.0  0.26300  0.35000  0.65100  1.0000
  Se  Se14      1.0  0.73700  0.35000  0.65100  1.0000
  Se  Se15      1.0  0.00000  0.06560  0.73800  1.0000
  Se  Se16      1.0  0.00000  0.56600  0.76200  1.0000
  Se  Se17      1.0  0.26300  0.85000  0.84900  1.0000
  Se  Se18      1.0  0.73700  0.85000  0.84900  1.0000
  Se  Se19      1.0  0.50000  0.12800  0.88200  1.0000
  Se  Se20      1.0  0.00000  0.30400  0.90500  1.0000
