# generated using pymatgen
data_LuNiSn4
_symmetry_space_group_name_H-M   'P 1'
_cell_length_a   14.27533618
_cell_length_b   14.27533618
_cell_length_c   4.45063600
_cell_angle_alpha   90.00000000
_cell_angle_beta   90.00000000
_cell_angle_gamma   162.12041693
_symmetry_Int_Tables_number   1
_chemical_formula_structural   LuNiSn4
_chemical_formula_sum   'Lu2 Ni2 Sn8'
_cell_volume   278.45684830
_cell_formula_units_Z   2
loop_
 _symmetry_equiv_pos_site_id
 _symmetry_equiv_pos_as_xyz
  1  'x, y, z'
loop_
 _atom_site_type_symbol
 _atom_site_label
 _atom_site_symmetry_multiplicity
 _atom_site_fract_x
 _atom_site_fract_y
 _atom_site_fract_z
 _atom_site_occupancy
  Lu  Lu0  1  0.69433400  0.30566600  0.00000000  1
  Lu  Lu1  1  0.30566600  0.69433400  0.00000000  1
  Ni  Ni2  1  0.94726000  0.05274000  0.50000000  1
  Ni  Ni3  1  0.05274000  0.94726000  0.50000000  1
  Sn  Sn4  1  0.50000000  0.50000000  0.50000000  1
  Sn  Sn5  1  0.00000000  0.00000000  0.00000000  1
  Sn  Sn6  1  0.78664800  0.21335200  0.50000000  1
  Sn  Sn7  1  0.21335200  0.78664800  0.50000000  1
  Sn  Sn8  1  0.38909400  0.61090600  0.50000000  1
  Sn  Sn9  1  0.61090600  0.38909400  0.50000000  1
  Sn  Sn10  1  0.88932800  0.11067200  0.00000000  1
  Sn  Sn11  1  0.11067200  0.88932800  0.00000000  1
