data_image0
_chemical_formula_structural       Pd8S4Sn32
_chemical_formula_sum              "Pd8 S4 Sn32"
_cell_length_a       10.609
_cell_length_b       10.2094
_cell_length_c       10.2094
_cell_angle_alpha    90
_cell_angle_beta     90
_cell_angle_gamma    90

_space_group_name_H-M_alt    "P 1"
_space_group_IT_number       1

loop_
  _space_group_symop_operation_xyz
  'x, y, z'

loop_
  _atom_site_type_symbol
  _atom_site_label
  _atom_site_symmetry_multiplicity
  _atom_site_fract_x
  _atom_site_fract_y
  _atom_site_fract_z
  _atom_site_occupancy
  Pd  Pd1       1.0  0.26500  0.78000  0.22000  1.0000
  Pd  Pd2       1.0  0.73500  0.78000  0.22000  1.0000
  Pd  Pd3       1.0  0.23500  0.28000  0.28000  1.0000
  Pd  Pd4       1.0  0.76500  0.28000  0.28000  1.0000
  Pd  Pd5       1.0  0.23500  0.72000  0.72000  1.0000
  Pd  Pd6       1.0  0.76500  0.72000  0.72000  1.0000
  Pd  Pd7       1.0  0.26500  0.22000  0.78000  1.0000
  Pd  Pd8       1.0  0.73500  0.22000  0.78000  1.0000
  S   S1        1.0  0.00000  0.50000  0.00000  1.0000
  S   S2        1.0  0.50000  0.50000  0.00000  1.0000
  S   S3        1.0  0.00000  0.00000  0.50000  1.0000
  S   S4        1.0  0.50000  0.00000  0.50000  1.0000
  Sn  Sn1       1.0  0.21600  0.00000  0.00000  1.0000
  Sn  Sn2       1.0  0.78400  0.00000  0.00000  1.0000
  Sn  Sn3       1.0  0.32700  0.30800  0.03450  1.0000
  Sn  Sn4       1.0  0.67300  0.30800  0.03450  1.0000
  Sn  Sn5       1.0  0.50000  0.89300  0.10700  1.0000
  Sn  Sn6       1.0  0.00000  0.84500  0.15500  1.0000
  Sn  Sn7       1.0  0.00000  0.15900  0.15900  1.0000
  Sn  Sn8       1.0  0.17300  0.53400  0.19200  1.0000
  Sn  Sn9       1.0  0.82700  0.53400  0.19200  1.0000
  Sn  Sn10      1.0  0.32700  0.03450  0.30800  1.0000
  Sn  Sn11      1.0  0.67300  0.03450  0.30800  1.0000
  Sn  Sn12      1.0  0.50000  0.65900  0.34100  1.0000
  Sn  Sn13      1.0  0.50000  0.34500  0.34500  1.0000
  Sn  Sn14      1.0  0.00000  0.39300  0.39300  1.0000
  Sn  Sn15      1.0  0.17300  0.80800  0.46600  1.0000
  Sn  Sn16      1.0  0.82700  0.80800  0.46600  1.0000
  Sn  Sn17      1.0  0.28400  0.50000  0.50000  1.0000
  Sn  Sn18      1.0  0.71600  0.50000  0.50000  1.0000
  Sn  Sn19      1.0  0.17300  0.19200  0.53400  1.0000
  Sn  Sn20      1.0  0.82700  0.19200  0.53400  1.0000
  Sn  Sn21      1.0  0.00000  0.60700  0.60700  1.0000
  Sn  Sn22      1.0  0.50000  0.65500  0.65500  1.0000
  Sn  Sn23      1.0  0.50000  0.34100  0.65900  1.0000
  Sn  Sn24      1.0  0.32700  0.96600  0.69200  1.0000
  Sn  Sn25      1.0  0.67300  0.96600  0.69200  1.0000
  Sn  Sn26      1.0  0.17300  0.46600  0.80800  1.0000
  Sn  Sn27      1.0  0.82700  0.46600  0.80800  1.0000
  Sn  Sn28      1.0  0.00000  0.84100  0.84100  1.0000
  Sn  Sn29      1.0  0.00000  0.15500  0.84500  1.0000
  Sn  Sn30      1.0  0.50000  0.10700  0.89300  1.0000
  Sn  Sn31      1.0  0.32700  0.69200  0.96600  1.0000
  Sn  Sn32      1.0  0.67300  0.69200  0.96600  1.0000
