# generated using pymatgen
data_Na2SO4
_symmetry_space_group_name_H-M   'P 1'
_cell_length_a   5.35490331
_cell_length_b   5.35490331
_cell_length_c   7.02748500
_cell_angle_alpha   90.00000000
_cell_angle_beta   90.00000000
_cell_angle_gamma   115.55854500
_symmetry_Int_Tables_number   1
_chemical_formula_structural   Na2SO4
_chemical_formula_sum   'Na4 S2 O8'
_cell_volume   181.79398114
_cell_formula_units_Z   2
loop_
 _symmetry_equiv_pos_site_id
 _symmetry_equiv_pos_as_xyz
  1  'x, y, z'
loop_
 _atom_site_type_symbol
 _atom_site_label
 _atom_site_symmetry_multiplicity
 _atom_site_fract_x
 _atom_site_fract_y
 _atom_site_fract_z
 _atom_site_occupancy
  Na  Na0  1  0.18515700  0.81484300  0.75000000  1
  Na  Na1  1  0.81484300  0.18515700  0.25000000  1
  Na  Na2  1  0.50000000  0.50000000  0.50000000  1
  Na  Na3  1  0.50000000  0.50000000  0.00000000  1
  S  S4  1  0.84843200  0.15156800  0.75000000  1
  S  S5  1  0.15156800  0.84843200  0.25000000  1
  O  O6  1  0.24617800  0.75382200  0.07770800  1
  O  O7  1  0.75382200  0.24617800  0.57770800  1
  O  O8  1  0.75382200  0.24617800  0.92229200  1
  O  O9  1  0.24617800  0.75382200  0.42229200  1
  O  O10  1  0.15908500  0.26770300  0.75000000  1
  O  O11  1  0.84091500  0.73229700  0.25000000  1
  O  O12  1  0.73229700  0.84091500  0.75000000  1
  O  O13  1  0.26770300  0.15908500  0.25000000  1
