data_image0
_chemical_formula_structural       Fe8S4Sn32
_chemical_formula_sum              "Fe8 S4 Sn32"
_cell_length_a       10.1278
_cell_length_b       10.1278
_cell_length_c       9.91932
_cell_angle_alpha    90
_cell_angle_beta     90
_cell_angle_gamma    90

_space_group_name_H-M_alt    "P 1"
_space_group_IT_number       1

loop_
  _space_group_symop_operation_xyz
  'x, y, z'

loop_
  _atom_site_type_symbol
  _atom_site_label
  _atom_site_symmetry_multiplicity
  _atom_site_fract_x
  _atom_site_fract_y
  _atom_site_fract_z
  _atom_site_occupancy
  Fe  Fe1       1.0  0.30600  0.30600  0.23800  1.0000
  Fe  Fe2       1.0  0.69400  0.69400  0.23800  1.0000
  Fe  Fe3       1.0  0.80600  0.19400  0.26200  1.0000
  Fe  Fe4       1.0  0.19400  0.80600  0.26200  1.0000
  Fe  Fe5       1.0  0.80600  0.19400  0.73800  1.0000
  Fe  Fe6       1.0  0.19400  0.80600  0.73800  1.0000
  Fe  Fe7       1.0  0.30600  0.30600  0.76200  1.0000
  Fe  Fe8       1.0  0.69400  0.69400  0.76200  1.0000
  S   S1        1.0  0.50000  0.00000  0.00000  1.0000
  S   S2        1.0  0.00000  0.50000  0.00000  1.0000
  S   S3        1.0  0.50000  0.00000  0.50000  1.0000
  S   S4        1.0  0.00000  0.50000  0.50000  1.0000
  Sn  Sn1       1.0  0.81200  0.18800  0.00000  1.0000
  Sn  Sn2       1.0  0.19200  0.19200  0.00000  1.0000
  Sn  Sn3       1.0  0.40100  0.40100  0.00000  1.0000
  Sn  Sn4       1.0  0.59900  0.59900  0.00000  1.0000
  Sn  Sn5       1.0  0.80800  0.80800  0.00000  1.0000
  Sn  Sn6       1.0  0.18800  0.81200  0.00000  1.0000
  Sn  Sn7       1.0  0.00000  0.00000  0.17000  1.0000
  Sn  Sn8       1.0  0.54900  0.20000  0.18900  1.0000
  Sn  Sn9       1.0  0.80000  0.45100  0.18900  1.0000
  Sn  Sn10      1.0  0.20000  0.54900  0.18900  1.0000
  Sn  Sn11      1.0  0.45100  0.80000  0.18900  1.0000
  Sn  Sn12      1.0  0.30000  0.04870  0.31100  1.0000
  Sn  Sn13      1.0  0.04870  0.30000  0.31100  1.0000
  Sn  Sn14      1.0  0.95100  0.70000  0.31100  1.0000
  Sn  Sn15      1.0  0.70000  0.95100  0.31100  1.0000
  Sn  Sn16      1.0  0.50000  0.50000  0.33000  1.0000
  Sn  Sn17      1.0  0.90100  0.09860  0.50000  1.0000
  Sn  Sn18      1.0  0.69200  0.30800  0.50000  1.0000
  Sn  Sn19      1.0  0.31200  0.31200  0.50000  1.0000
  Sn  Sn20      1.0  0.68800  0.68800  0.50000  1.0000
  Sn  Sn21      1.0  0.30800  0.69200  0.50000  1.0000
  Sn  Sn22      1.0  0.09860  0.90100  0.50000  1.0000
  Sn  Sn23      1.0  0.50000  0.50000  0.67000  1.0000
  Sn  Sn24      1.0  0.30000  0.04870  0.68900  1.0000
  Sn  Sn25      1.0  0.04870  0.30000  0.68900  1.0000
  Sn  Sn26      1.0  0.95100  0.70000  0.68900  1.0000
  Sn  Sn27      1.0  0.70000  0.95100  0.68900  1.0000
  Sn  Sn28      1.0  0.54900  0.20000  0.81100  1.0000
  Sn  Sn29      1.0  0.80000  0.45100  0.81100  1.0000
  Sn  Sn30      1.0  0.20000  0.54900  0.81100  1.0000
  Sn  Sn31      1.0  0.45100  0.80000  0.81100  1.0000
  Sn  Sn32      1.0  0.00000  0.00000  0.83000  1.0000
