data_image0
_chemical_formula_structural       C8Ca2H32N20O20
_chemical_formula_sum              "C8 Ca2 H32 N20 O20"
_cell_length_a       8.69233
_cell_length_b       12.3162
_cell_length_c       7.3012
_cell_angle_alpha    90
_cell_angle_beta     110.559
_cell_angle_gamma    90

_space_group_name_H-M_alt    "P 1"
_space_group_IT_number       1

loop_
  _space_group_symop_operation_xyz
  'x, y, z'

loop_
  _atom_site_type_symbol
  _atom_site_label
  _atom_site_symmetry_multiplicity
  _atom_site_fract_x
  _atom_site_fract_y
  _atom_site_fract_z
  _atom_site_occupancy
  C   C1        1.0  0.86500  0.61200  0.05170  1.0000
  C   C2        1.0  0.74400  0.30600  0.22700  1.0000
  C   C3        1.0  0.25600  0.80600  0.27300  1.0000
  C   C4        1.0  0.13500  0.11200  0.44800  1.0000
  C   C5        1.0  0.86500  0.88800  0.55200  1.0000
  C   C6        1.0  0.74400  0.19400  0.72700  1.0000
  C   C7        1.0  0.25600  0.69400  0.77300  1.0000
  C   C8        1.0  0.13500  0.38800  0.94800  1.0000
  Ca  Ca1       1.0  0.00000  0.00000  0.00000  1.0000
  Ca  Ca2       1.0  0.00000  0.50000  0.50000  1.0000
  H   H1        1.0  0.96300  0.75700  0.01890  1.0000
  H   H2        1.0  0.76900  0.46000  0.03570  1.0000
  H   H3        1.0  0.63900  0.16700  0.08930  1.0000
  H   H4        1.0  0.49500  0.31900  0.09030  1.0000
  H   H5        1.0  0.26200  0.47800  0.19000  1.0000
  H   H6        1.0  0.18100  0.29800  0.19800  1.0000
  H   H7        1.0  0.85700  0.16500  0.20100  1.0000
  H   H8        1.0  0.59400  0.43800  0.21200  1.0000
  H   H9        1.0  0.40600  0.93800  0.28800  1.0000
  H   H10       1.0  0.14300  0.66500  0.29900  1.0000
  H   H11       1.0  0.81900  0.79800  0.30200  1.0000
  H   H12       1.0  0.73800  0.97800  0.31000  1.0000
  H   H13       1.0  0.50500  0.81900  0.41000  1.0000
  H   H14       1.0  0.36100  0.66700  0.41100  1.0000
  H   H15       1.0  0.23100  0.96000  0.46400  1.0000
  H   H16       1.0  0.03720  0.25700  0.48100  1.0000
  H   H17       1.0  0.96300  0.74300  0.51900  1.0000
  H   H18       1.0  0.76900  0.03950  0.53600  1.0000
  H   H19       1.0  0.63900  0.33300  0.58900  1.0000
  H   H20       1.0  0.49500  0.18100  0.59000  1.0000
  H   H21       1.0  0.26200  0.02240  0.69000  1.0000
  H   H22       1.0  0.18100  0.20200  0.69800  1.0000
  H   H23       1.0  0.85700  0.33500  0.70100  1.0000
  H   H24       1.0  0.59400  0.06250  0.71200  1.0000
  H   H25       1.0  0.40600  0.56200  0.78800  1.0000
  H   H26       1.0  0.14300  0.83500  0.79900  1.0000
  H   H27       1.0  0.81900  0.70200  0.80200  1.0000
  H   H28       1.0  0.73800  0.52200  0.81000  1.0000
  H   H29       1.0  0.50500  0.68100  0.91000  1.0000
  H   H30       1.0  0.36100  0.83300  0.91100  1.0000
  H   H31       1.0  0.23100  0.54000  0.96400  1.0000
  H   H32       1.0  0.03720  0.24300  0.98100  1.0000
  N   N1        1.0  0.36000  0.09970  0.03790  1.0000
  N   N2        1.0  0.23200  0.47100  0.04210  1.0000
  N   N3        1.0  0.12100  0.30100  0.05130  1.0000
  N   N4        1.0  0.60000  0.35900  0.17100  1.0000
  N   N5        1.0  0.74500  0.20100  0.18000  1.0000
  N   N6        1.0  0.25500  0.70100  0.32000  1.0000
  N   N7        1.0  0.40000  0.85900  0.32900  1.0000
  N   N8        1.0  0.87900  0.80100  0.44900  1.0000
  N   N9        1.0  0.76800  0.97100  0.45800  1.0000
  N   N10       1.0  0.64000  0.60000  0.46200  1.0000
  N   N11       1.0  0.36000  0.40000  0.53800  1.0000
  N   N12       1.0  0.23200  0.02890  0.54200  1.0000
  N   N13       1.0  0.12100  0.19900  0.55100  1.0000
  N   N14       1.0  0.60000  0.14100  0.67100  1.0000
  N   N15       1.0  0.74500  0.29900  0.68000  1.0000
  N   N16       1.0  0.25500  0.79900  0.82000  1.0000
  N   N17       1.0  0.40000  0.64100  0.82900  1.0000
  N   N18       1.0  0.87900  0.69900  0.94900  1.0000
  N   N19       1.0  0.76800  0.52900  0.95800  1.0000
  N   N20       1.0  0.64000  0.90000  0.96200  1.0000
  O   O1        1.0  0.59800  0.82500  0.05330  1.0000
  O   O2        1.0  0.75800  0.96400  0.06100  1.0000
  O   O3        1.0  0.12100  0.85400  0.17800  1.0000
  O   O4        1.0  0.43200  0.08430  0.21700  1.0000
  O   O5        1.0  0.93900  0.61000  0.23700  1.0000
  O   O6        1.0  0.06100  0.11000  0.26300  1.0000
  O   O7        1.0  0.56800  0.58400  0.28300  1.0000
  O   O8        1.0  0.87900  0.35400  0.32200  1.0000
  O   O9        1.0  0.24200  0.46400  0.43900  1.0000
  O   O10       1.0  0.40200  0.32500  0.44700  1.0000
  O   O11       1.0  0.59800  0.67500  0.55300  1.0000
  O   O12       1.0  0.75800  0.53600  0.56100  1.0000
  O   O13       1.0  0.12100  0.64600  0.67800  1.0000
  O   O14       1.0  0.43200  0.41600  0.71700  1.0000
  O   O15       1.0  0.93900  0.89000  0.73700  1.0000
  O   O16       1.0  0.06100  0.39000  0.76300  1.0000
  O   O17       1.0  0.56800  0.91600  0.78300  1.0000
  O   O18       1.0  0.87900  0.14600  0.82200  1.0000
  O   O19       1.0  0.24200  0.03630  0.93900  1.0000
  O   O20       1.0  0.40200  0.17500  0.94700  1.0000
