data_image0
_chemical_formula_structural       B16Be8H64
_chemical_formula_sum              "B16 Be8 H64"
_cell_length_a       8.52735
_cell_length_b       10.1688
_cell_length_c       10.1688
_cell_angle_alpha    100.125
_cell_angle_beta     114.79
_cell_angle_gamma    65.2104

_space_group_name_H-M_alt    "P 1"
_space_group_IT_number       1

loop_
  _space_group_symop_operation_xyz
  'x, y, z'

loop_
  _atom_site_type_symbol
  _atom_site_label
  _atom_site_symmetry_multiplicity
  _atom_site_fract_x
  _atom_site_fract_y
  _atom_site_fract_z
  _atom_site_occupancy
  B   B1        1.0  0.81200  0.67600  0.05800  1.0000
  B   B2        1.0  0.95100  0.21800  0.10100  1.0000
  B   B3        1.0  0.23800  0.44200  0.17600  1.0000
  B   B4        1.0  0.56800  0.10100  0.21800  1.0000
  B   B5        1.0  0.60000  0.60100  0.28200  1.0000
  B   B6        1.0  0.31200  0.94200  0.32400  1.0000
  B   B7        1.0  0.10000  0.71800  0.39900  1.0000
  B   B8        1.0  0.00396  0.17600  0.44200  1.0000
  B   B9        1.0  0.73800  0.82400  0.55800  1.0000
  B   B10       1.0  0.41900  0.28200  0.60100  1.0000
  B   B11       1.0  0.93000  0.05800  0.67600  1.0000
  B   B12       1.0  0.91900  0.39900  0.71800  1.0000
  B   B13       1.0  0.45100  0.89900  0.78200  1.0000
  B   B14       1.0  0.50400  0.55800  0.82400  1.0000
  B   B15       1.0  0.06820  0.78200  0.89900  1.0000
  B   B16       1.0  0.43000  0.32400  0.94200  1.0000
  Be  Be1       1.0  0.41800  0.27900  0.11500  1.0000
  Be  Be2       1.0  0.05310  0.61500  0.22100  1.0000
  Be  Be3       1.0  0.08210  0.11500  0.27900  1.0000
  Be  Be4       1.0  0.55300  0.77900  0.38500  1.0000
  Be  Be5       1.0  0.94700  0.22100  0.61500  1.0000
  Be  Be6       1.0  0.91800  0.88500  0.72100  1.0000
  Be  Be7       1.0  0.44700  0.38500  0.77900  1.0000
  Be  Be8       1.0  0.58200  0.72100  0.88500  1.0000
  H   H1        1.0  0.15700  0.82800  0.00894  1.0000
  H   H2        1.0  0.66000  0.76000  0.06090  1.0000
  H   H3        1.0  0.49600  0.37500  0.06120  1.0000
  H   H4        1.0  0.18900  0.36500  0.07260  1.0000
  H   H5        1.0  0.91100  0.74500  0.09730  1.0000
  H   H6        1.0  0.83800  0.33900  0.10100  1.0000
  H   H7        1.0  0.18500  0.56100  0.12500  1.0000
  H   H8        1.0  0.39900  0.13900  0.13200  1.0000
  H   H9        1.0  0.86600  0.57300  0.13500  1.0000
  H   H10       1.0  0.90500  0.13200  0.13900  1.0000
  H   H11       1.0  0.48700  0.60100  0.16100  1.0000
  H   H12       1.0  0.65700  0.99100  0.17200  1.0000
  H   H13       1.0  0.10700  0.21300  0.19600  1.0000
  H   H14       1.0  0.62400  0.19600  0.21300  1.0000
  H   H15       1.0  0.16000  0.93900  0.24000  1.0000
  H   H16       1.0  0.40700  0.40300  0.24500  1.0000
  H   H17       1.0  0.41100  0.90300  0.25500  1.0000
  H   H18       1.0  0.17100  0.43900  0.26000  1.0000
  H   H19       1.0  0.66100  0.69600  0.28700  1.0000
  H   H20       1.0  0.16100  0.71300  0.30400  1.0000
  H   H21       1.0  0.73500  0.49100  0.32800  1.0000
  H   H22       1.0  0.57600  0.10100  0.33900  1.0000
  H   H23       1.0  0.01670  0.63200  0.36100  1.0000
  H   H24       1.0  0.98100  0.07260  0.36500  1.0000
  H   H25       1.0  0.51700  0.63900  0.36800  1.0000
  H   H26       1.0  0.31000  0.06120  0.37500  1.0000
  H   H27       1.0  0.98700  0.83900  0.39900  1.0000
  H   H28       1.0  0.06410  0.24500  0.40300  1.0000
  H   H29       1.0  0.36600  0.86500  0.42700  1.0000
  H   H30       1.0  0.68500  0.87500  0.43900  1.0000
  H   H31       1.0  0.85000  0.26000  0.43900  1.0000
  H   H32       1.0  0.39800  0.32800  0.49100  1.0000
  H   H33       1.0  0.23500  0.67200  0.50900  1.0000
  H   H34       1.0  0.67100  0.74000  0.56100  1.0000
  H   H35       1.0  0.12100  0.12500  0.56100  1.0000
  H   H36       1.0  0.80400  0.13500  0.57300  1.0000
  H   H37       1.0  0.90700  0.75500  0.59700  1.0000
  H   H38       1.0  0.42700  0.16100  0.60100  1.0000
  H   H39       1.0  0.99600  0.93900  0.62500  1.0000
  H   H40       1.0  0.78700  0.36100  0.63200  1.0000
  H   H41       1.0  0.68900  0.92700  0.63500  1.0000
  H   H42       1.0  0.28700  0.36800  0.63900  1.0000
  H   H43       1.0  0.33800  0.89900  0.66100  1.0000
  H   H44       1.0  0.89800  0.50900  0.67200  1.0000
  H   H45       1.0  0.57000  0.28700  0.69600  1.0000
  H   H46       1.0  0.07000  0.30400  0.71300  1.0000
  H   H47       1.0  0.35000  0.56100  0.74000  1.0000
  H   H48       1.0  0.05940  0.09730  0.74500  1.0000
  H   H49       1.0  0.56400  0.59700  0.75500  1.0000
  H   H50       1.0  0.86000  0.06090  0.76000  1.0000
  H   H51       1.0  0.60700  0.80400  0.78700  1.0000
  H   H52       1.0  0.12400  0.78700  0.80400  1.0000
  H   H53       1.0  0.47600  0.00894  0.82800  1.0000
  H   H54       1.0  0.92700  0.39900  0.83900  1.0000
  H   H55       1.0  0.89900  0.86800  0.86100  1.0000
  H   H56       1.0  0.30400  0.42700  0.86500  1.0000
  H   H57       1.0  0.40500  0.86100  0.86800  1.0000
  H   H58       1.0  0.62100  0.43900  0.87500  1.0000
  H   H59       1.0  0.07580  0.66100  0.89900  1.0000
  H   H60       1.0  0.55900  0.25500  0.90300  1.0000
  H   H61       1.0  0.48100  0.63500  0.92700  1.0000
  H   H62       1.0  0.81000  0.62500  0.93900  1.0000
  H   H63       1.0  0.36000  0.24000  0.93900  1.0000
  H   H64       1.0  0.97600  0.17200  0.99100  1.0000
