data_image0
_chemical_formula_structural       Os8Sn32Te4
_chemical_formula_sum              "Os8 Sn32 Te4"
_cell_length_a       10.3573
_cell_length_b       10.3573
_cell_length_c       10.194
_cell_angle_alpha    90
_cell_angle_beta     90
_cell_angle_gamma    90

_space_group_name_H-M_alt    "P 1"
_space_group_IT_number       1

loop_
  _space_group_symop_operation_xyz
  'x, y, z'

loop_
  _atom_site_type_symbol
  _atom_site_label
  _atom_site_symmetry_multiplicity
  _atom_site_fract_x
  _atom_site_fract_y
  _atom_site_fract_z
  _atom_site_occupancy
  Os  Os1       1.0  0.67700  0.32300  0.24000  1.0000
  Os  Os2       1.0  0.32300  0.67700  0.24000  1.0000
  Os  Os3       1.0  0.17700  0.17700  0.26000  1.0000
  Os  Os4       1.0  0.82300  0.82300  0.26000  1.0000
  Os  Os5       1.0  0.17700  0.17700  0.74000  1.0000
  Os  Os6       1.0  0.82300  0.82300  0.74000  1.0000
  Os  Os7       1.0  0.67700  0.32300  0.76000  1.0000
  Os  Os8       1.0  0.32300  0.67700  0.76000  1.0000
  Sn  Sn1       1.0  0.79500  0.20500  0.00000  1.0000
  Sn  Sn2       1.0  0.20600  0.20600  0.00000  1.0000
  Sn  Sn3       1.0  0.59300  0.40700  0.00000  1.0000
  Sn  Sn4       1.0  0.40700  0.59300  0.00000  1.0000
  Sn  Sn5       1.0  0.79400  0.79400  0.00000  1.0000
  Sn  Sn6       1.0  0.20500  0.79500  0.00000  1.0000
  Sn  Sn7       1.0  0.00000  0.00000  0.15300  1.0000
  Sn  Sn8       1.0  0.44200  0.20700  0.20000  1.0000
  Sn  Sn9       1.0  0.20700  0.44200  0.20000  1.0000
  Sn  Sn10      1.0  0.79300  0.55800  0.20000  1.0000
  Sn  Sn11      1.0  0.55800  0.79300  0.20000  1.0000
  Sn  Sn12      1.0  0.70700  0.05820  0.30000  1.0000
  Sn  Sn13      1.0  0.94200  0.29300  0.30000  1.0000
  Sn  Sn14      1.0  0.05820  0.70700  0.30000  1.0000
  Sn  Sn15      1.0  0.29300  0.94200  0.30000  1.0000
  Sn  Sn16      1.0  0.50000  0.50000  0.34700  1.0000
  Sn  Sn17      1.0  0.09340  0.09340  0.50000  1.0000
  Sn  Sn18      1.0  0.70600  0.29400  0.50000  1.0000
  Sn  Sn19      1.0  0.29500  0.29500  0.50000  1.0000
  Sn  Sn20      1.0  0.70500  0.70500  0.50000  1.0000
  Sn  Sn21      1.0  0.29400  0.70600  0.50000  1.0000
  Sn  Sn22      1.0  0.90700  0.90700  0.50000  1.0000
  Sn  Sn23      1.0  0.50000  0.50000  0.65300  1.0000
  Sn  Sn24      1.0  0.70700  0.05820  0.70000  1.0000
  Sn  Sn25      1.0  0.94200  0.29300  0.70000  1.0000
  Sn  Sn26      1.0  0.05820  0.70700  0.70000  1.0000
  Sn  Sn27      1.0  0.29300  0.94200  0.70000  1.0000
  Sn  Sn28      1.0  0.44200  0.20700  0.80000  1.0000
  Sn  Sn29      1.0  0.20700  0.44200  0.80000  1.0000
  Sn  Sn30      1.0  0.79300  0.55800  0.80000  1.0000
  Sn  Sn31      1.0  0.55800  0.79300  0.80000  1.0000
  Sn  Sn32      1.0  0.00000  0.00000  0.84700  1.0000
  Te  Te1       1.0  0.50000  0.00000  0.00000  1.0000
  Te  Te2       1.0  0.00000  0.50000  0.00000  1.0000
  Te  Te3       1.0  0.50000  0.00000  0.50000  1.0000
  Te  Te4       1.0  0.00000  0.50000  0.50000  1.0000
