data_image0
_chemical_formula_structural       Ir2Se20Sn20
_chemical_formula_sum              "Ir2 Se20 Sn20"
_cell_length_a       8.5657
_cell_length_b       11.4749
_cell_length_c       11.7755
_cell_angle_alpha    90
_cell_angle_beta     90
_cell_angle_gamma    90

_space_group_name_H-M_alt    "P 1"
_space_group_IT_number       1

loop_
  _space_group_symop_operation_xyz
  'x, y, z'

loop_
  _atom_site_type_symbol
  _atom_site_label
  _atom_site_symmetry_multiplicity
  _atom_site_fract_x
  _atom_site_fract_y
  _atom_site_fract_z
  _atom_site_occupancy
  Ir  Ir1       1.0  0.50000  0.50000  0.00000  1.0000
  Ir  Ir2       1.0  0.50000  0.00000  0.50000  1.0000
  Se  Se1       1.0  0.00000  0.81000  0.05430  1.0000
  Se  Se2       1.0  0.50000  0.86100  0.09530  1.0000
  Se  Se3       1.0  0.00000  0.50300  0.17000  1.0000
  Se  Se4       1.0  0.30600  0.17600  0.18400  1.0000
  Se  Se5       1.0  0.69400  0.17600  0.18400  1.0000
  Se  Se6       1.0  0.30600  0.67600  0.31600  1.0000
  Se  Se7       1.0  0.69400  0.67600  0.31600  1.0000
  Se  Se8       1.0  0.00000  0.00324  0.33000  1.0000
  Se  Se9       1.0  0.50000  0.36100  0.40500  1.0000
  Se  Se10      1.0  0.00000  0.31000  0.44600  1.0000
  Se  Se11      1.0  0.00000  0.69000  0.55400  1.0000
  Se  Se12      1.0  0.50000  0.63900  0.59500  1.0000
  Se  Se13      1.0  0.00000  0.99700  0.67000  1.0000
  Se  Se14      1.0  0.30600  0.32400  0.68400  1.0000
  Se  Se15      1.0  0.69400  0.32400  0.68400  1.0000
  Se  Se16      1.0  0.30600  0.82400  0.81600  1.0000
  Se  Se17      1.0  0.69400  0.82400  0.81600  1.0000
  Se  Se18      1.0  0.00000  0.49700  0.83000  1.0000
  Se  Se19      1.0  0.50000  0.13900  0.90500  1.0000
  Se  Se20      1.0  0.00000  0.19000  0.94600  1.0000
  Sn  Sn1       1.0  0.24700  0.00000  0.00000  1.0000
  Sn  Sn2       1.0  0.75300  0.00000  0.00000  1.0000
  Sn  Sn3       1.0  0.26200  0.63300  0.08450  1.0000
  Sn  Sn4       1.0  0.73800  0.63300  0.08450  1.0000
  Sn  Sn5       1.0  0.50000  0.36300  0.17900  1.0000
  Sn  Sn6       1.0  0.00000  0.26200  0.18100  1.0000
  Sn  Sn7       1.0  0.00000  0.76200  0.31900  1.0000
  Sn  Sn8       1.0  0.50000  0.86300  0.32100  1.0000
  Sn  Sn9       1.0  0.26200  0.13300  0.41600  1.0000
  Sn  Sn10      1.0  0.73800  0.13300  0.41600  1.0000
  Sn  Sn11      1.0  0.24700  0.50000  0.50000  1.0000
  Sn  Sn12      1.0  0.75300  0.50000  0.50000  1.0000
  Sn  Sn13      1.0  0.26200  0.86700  0.58400  1.0000
  Sn  Sn14      1.0  0.73800  0.86700  0.58400  1.0000
  Sn  Sn15      1.0  0.50000  0.13700  0.67900  1.0000
  Sn  Sn16      1.0  0.00000  0.23800  0.68100  1.0000
  Sn  Sn17      1.0  0.00000  0.73800  0.81900  1.0000
  Sn  Sn18      1.0  0.50000  0.63700  0.82100  1.0000
  Sn  Sn19      1.0  0.26200  0.36700  0.91600  1.0000
  Sn  Sn20      1.0  0.73800  0.36700  0.91600  1.0000
