data_image0
_chemical_formula_structural       Pd2S20Sn20
_chemical_formula_sum              "Pd2 S20 Sn20"
_cell_length_a       8.68057
_cell_length_b       11.1617
_cell_length_c       11.4384
_cell_angle_alpha    90
_cell_angle_beta     90
_cell_angle_gamma    90

_space_group_name_H-M_alt    "P 1"
_space_group_IT_number       1

loop_
  _space_group_symop_operation_xyz
  'x, y, z'

loop_
  _atom_site_type_symbol
  _atom_site_label
  _atom_site_symmetry_multiplicity
  _atom_site_fract_x
  _atom_site_fract_y
  _atom_site_fract_z
  _atom_site_occupancy
  Pd  Pd1       1.0  0.50000  0.50000  0.00000  1.0000
  Pd  Pd2       1.0  0.50000  0.00000  0.50000  1.0000
  S   S1        1.0  0.00000  0.80300  0.07180  1.0000
  S   S2        1.0  0.50000  0.86100  0.08990  1.0000
  S   S3        1.0  0.00000  0.51600  0.18200  1.0000
  S   S4        1.0  0.30200  0.17800  0.19000  1.0000
  S   S5        1.0  0.69800  0.17800  0.19000  1.0000
  S   S6        1.0  0.30200  0.67800  0.31000  1.0000
  S   S7        1.0  0.69800  0.67800  0.31000  1.0000
  S   S8        1.0  0.00000  0.01550  0.31800  1.0000
  S   S9        1.0  0.50000  0.36100  0.41000  1.0000
  S   S10       1.0  0.00000  0.30300  0.42800  1.0000
  S   S11       1.0  0.00000  0.69700  0.57200  1.0000
  S   S12       1.0  0.50000  0.63900  0.59000  1.0000
  S   S13       1.0  0.00000  0.98400  0.68200  1.0000
  S   S14       1.0  0.30200  0.32200  0.69000  1.0000
  S   S15       1.0  0.69800  0.32200  0.69000  1.0000
  S   S16       1.0  0.30200  0.82200  0.81000  1.0000
  S   S17       1.0  0.69800  0.82200  0.81000  1.0000
  S   S18       1.0  0.00000  0.48400  0.81800  1.0000
  S   S19       1.0  0.50000  0.13900  0.91000  1.0000
  S   S20       1.0  0.00000  0.19700  0.92800  1.0000
  Sn  Sn1       1.0  0.27200  0.00000  0.00000  1.0000
  Sn  Sn2       1.0  0.72800  0.00000  0.00000  1.0000
  Sn  Sn3       1.0  0.23400  0.63500  0.08980  1.0000
  Sn  Sn4       1.0  0.76600  0.63500  0.08980  1.0000
  Sn  Sn5       1.0  0.00000  0.26500  0.18000  1.0000
  Sn  Sn6       1.0  0.50000  0.34800  0.18500  1.0000
  Sn  Sn7       1.0  0.50000  0.84800  0.31500  1.0000
  Sn  Sn8       1.0  0.00000  0.76500  0.32000  1.0000
  Sn  Sn9       1.0  0.23400  0.13500  0.41000  1.0000
  Sn  Sn10      1.0  0.76600  0.13500  0.41000  1.0000
  Sn  Sn11      1.0  0.27200  0.50000  0.50000  1.0000
  Sn  Sn12      1.0  0.72800  0.50000  0.50000  1.0000
  Sn  Sn13      1.0  0.23400  0.86500  0.59000  1.0000
  Sn  Sn14      1.0  0.76600  0.86500  0.59000  1.0000
  Sn  Sn15      1.0  0.00000  0.23500  0.68000  1.0000
  Sn  Sn16      1.0  0.50000  0.15200  0.68500  1.0000
  Sn  Sn17      1.0  0.50000  0.65200  0.81500  1.0000
  Sn  Sn18      1.0  0.00000  0.73500  0.82000  1.0000
  Sn  Sn19      1.0  0.23400  0.36500  0.91000  1.0000
  Sn  Sn20      1.0  0.76600  0.36500  0.91000  1.0000
