data_image0
_chemical_formula_structural       Cl8Cu8O24Sb16
_chemical_formula_sum              "Cl8 Cu8 O24 Sb16"
_cell_length_a       7.7292
_cell_length_b       7.73334
_cell_length_c       18.3906
_cell_angle_alpha    89.9926
_cell_angle_beta     89.9851
_cell_angle_gamma    60.0177

_space_group_name_H-M_alt    "P 1"
_space_group_IT_number       1

loop_
  _space_group_symop_operation_xyz
  'x, y, z'

loop_
  _atom_site_type_symbol
  _atom_site_label
  _atom_site_symmetry_multiplicity
  _atom_site_fract_x
  _atom_site_fract_y
  _atom_site_fract_z
  _atom_site_occupancy
  Cl  Cl1       1.0  0.16700  0.17700  0.22300  1.0000
  Cl  Cl2       1.0  0.67200  0.66800  0.25000  1.0000
  Cl  Cl3       1.0  0.17300  0.66800  0.25000  1.0000
  Cl  Cl4       1.0  0.66900  0.17400  0.27400  1.0000
  Cl  Cl5       1.0  0.34400  0.82300  0.72300  1.0000
  Cl  Cl6       1.0  0.34000  0.33200  0.75000  1.0000
  Cl  Cl7       1.0  0.84000  0.33200  0.75000  1.0000
  Cl  Cl8       1.0  0.84300  0.82600  0.77400  1.0000
  Cu  Cu1       1.0  0.51100  0.49100  0.22300  1.0000
  Cu  Cu2       1.0  0.48800  0.00891  0.26800  1.0000
  Cu  Cu3       1.0  0.01500  0.00858  0.26800  1.0000
  Cu  Cu4       1.0  0.00990  0.49200  0.27600  1.0000
  Cu  Cu5       1.0  0.00181  0.50900  0.72300  1.0000
  Cu  Cu6       1.0  0.49700  0.99100  0.76800  1.0000
  Cu  Cu7       1.0  0.02360  0.99100  0.76800  1.0000
  Cu  Cu8       1.0  0.50200  0.50800  0.77600  1.0000
  O   O1        1.0  0.59100  0.70900  0.02330  1.0000
  O   O2        1.0  0.20900  0.71000  0.02340  1.0000
  O   O3        1.0  0.20600  0.09840  0.02340  1.0000
  O   O4        1.0  0.54300  0.04170  0.10900  1.0000
  O   O5        1.0  0.92500  0.04170  0.10900  1.0000
  O   O6        1.0  0.54500  0.42000  0.11100  1.0000
  O   O7        1.0  0.42500  0.03710  0.38700  1.0000
  O   O8        1.0  0.04820  0.41400  0.38700  1.0000
  O   O9        1.0  0.04850  0.03700  0.38700  1.0000
  O   O10       1.0  0.70900  0.09220  0.47500  1.0000
  O   O11       1.0  0.71100  0.70200  0.47500  1.0000
  O   O12       1.0  0.09740  0.70100  0.47500  1.0000
  O   O13       1.0  0.30100  0.29100  0.52300  1.0000
  O   O14       1.0  0.91900  0.29000  0.52300  1.0000
  O   O15       1.0  0.30400  0.90200  0.52300  1.0000
  O   O16       1.0  0.58500  0.95800  0.60900  1.0000
  O   O17       1.0  0.96700  0.95800  0.60900  1.0000
  O   O18       1.0  0.96400  0.58000  0.61100  1.0000
  O   O19       1.0  0.46200  0.96300  0.88700  1.0000
  O   O20       1.0  0.46200  0.58600  0.88700  1.0000
  O   O21       1.0  0.08550  0.96300  0.88700  1.0000
  O   O22       1.0  0.80100  0.90800  0.97500  1.0000
  O   O23       1.0  0.41300  0.29800  0.97500  1.0000
  O   O24       1.0  0.79900  0.29900  0.97500  1.0000
  Sb  Sb1       1.0  0.35200  0.32500  0.08200  1.0000
  Sb  Sb2       1.0  0.83300  0.32500  0.08220  1.0000
  Sb  Sb3       1.0  0.33400  0.84100  0.08250  1.0000
  Sb  Sb4       1.0  0.82900  0.85200  0.08310  1.0000
  Sb  Sb5       1.0  0.33400  0.84300  0.41600  1.0000
  Sb  Sb6       1.0  0.83900  0.83300  0.41700  1.0000
  Sb  Sb7       1.0  0.33400  0.32200  0.41700  1.0000
  Sb  Sb8       1.0  0.85300  0.32200  0.41700  1.0000
  Sb  Sb9       1.0  0.67700  0.67500  0.58200  1.0000
  Sb  Sb10      1.0  0.15800  0.67500  0.58200  1.0000
  Sb  Sb11      1.0  0.17500  0.15900  0.58300  1.0000
  Sb  Sb12      1.0  0.68100  0.14800  0.58300  1.0000
  Sb  Sb13      1.0  0.17700  0.15700  0.91600  1.0000
  Sb  Sb14      1.0  0.67200  0.16700  0.91700  1.0000
  Sb  Sb15      1.0  0.65700  0.67800  0.91700  1.0000
  Sb  Sb16      1.0  0.17600  0.67800  0.91700  1.0000
