data_image0
_chemical_formula_structural       Mg4Nb8O24
_chemical_formula_sum              "Mg4 Nb8 O24"
_cell_length_a       14.2147
_cell_length_b       5.71247
_cell_length_c       5.04012
_cell_angle_alpha    90
_cell_angle_beta     90
_cell_angle_gamma    90

_space_group_name_H-M_alt    "P 1"
_space_group_IT_number       1

loop_
  _space_group_symop_operation_xyz
  'x, y, z'

loop_
  _atom_site_type_symbol
  _atom_site_label
  _atom_site_symmetry_multiplicity
  _atom_site_fract_x
  _atom_site_fract_y
  _atom_site_fract_z
  _atom_site_occupancy
  Mg  Mg1       1.0  0.00000  0.16500  0.25000  1.0000
  Mg  Mg2       1.0  0.50000  0.66500  0.25000  1.0000
  Mg  Mg3       1.0  0.50000  0.33500  0.75000  1.0000
  Mg  Mg4       1.0  0.00000  0.83500  0.75000  1.0000
  Nb  Nb1       1.0  0.65900  0.18600  0.24900  1.0000
  Nb  Nb2       1.0  0.84100  0.68600  0.24900  1.0000
  Nb  Nb3       1.0  0.34100  0.18600  0.25100  1.0000
  Nb  Nb4       1.0  0.15900  0.68600  0.25100  1.0000
  Nb  Nb5       1.0  0.84100  0.31400  0.74900  1.0000
  Nb  Nb6       1.0  0.65900  0.81400  0.74900  1.0000
  Nb  Nb7       1.0  0.15900  0.31400  0.75100  1.0000
  Nb  Nb8       1.0  0.34100  0.81400  0.75100  1.0000
  O   O1        1.0  0.90600  0.39400  0.07400  1.0000
  O   O2        1.0  0.59400  0.89400  0.07400  1.0000
  O   O3        1.0  0.24400  0.37800  0.07980  1.0000
  O   O4        1.0  0.25600  0.87800  0.07980  1.0000
  O   O5        1.0  0.57900  0.38900  0.08470  1.0000
  O   O6        1.0  0.92100  0.88900  0.08470  1.0000
  O   O7        1.0  0.42100  0.38900  0.41500  1.0000
  O   O8        1.0  0.07880  0.88900  0.41500  1.0000
  O   O9        1.0  0.75600  0.37800  0.42000  1.0000
  O   O10       1.0  0.74400  0.87800  0.42000  1.0000
  O   O11       1.0  0.09360  0.39400  0.42600  1.0000
  O   O12       1.0  0.40600  0.89400  0.42600  1.0000
  O   O13       1.0  0.59400  0.10600  0.57400  1.0000
  O   O14       1.0  0.90600  0.60600  0.57400  1.0000
  O   O15       1.0  0.25600  0.12200  0.58000  1.0000
  O   O16       1.0  0.24400  0.62200  0.58000  1.0000
  O   O17       1.0  0.92100  0.11100  0.58500  1.0000
  O   O18       1.0  0.57900  0.61100  0.58500  1.0000
  O   O19       1.0  0.07880  0.11100  0.91500  1.0000
  O   O20       1.0  0.42100  0.61100  0.91500  1.0000
  O   O21       1.0  0.74400  0.12200  0.92000  1.0000
  O   O22       1.0  0.75600  0.62200  0.92000  1.0000
  O   O23       1.0  0.40600  0.10600  0.92600  1.0000
  O   O24       1.0  0.09360  0.60600  0.92600  1.0000
