data_image0
_chemical_formula_structural       Au2Bi2Tb
_chemical_formula_sum              "Au2 Bi2 Tb1"
_cell_length_a       4.62692
_cell_length_b       4.62692
_cell_length_c       7.06937
_cell_angle_alpha    109.102
_cell_angle_beta     109.102
_cell_angle_gamma    90

_space_group_name_H-M_alt    "P 1"
_space_group_IT_number       1

loop_
  _space_group_symop_operation_xyz
  'x, y, z'

loop_
  _atom_site_type_symbol
  _atom_site_label
  _atom_site_symmetry_multiplicity
  _atom_site_fract_x
  _atom_site_fract_y
  _atom_site_fract_z
  _atom_site_occupancy
  Au  Au1       1.0  0.60300  0.60300  0.20700  1.0000
  Au  Au2       1.0  0.39700  0.39700  0.79300  1.0000
  Bi  Bi1       1.0  0.75000  0.25000  0.50000  1.0000
  Bi  Bi2       1.0  0.25000  0.75000  0.50000  1.0000
  Tb  Tb1       1.0  0.00000  0.00000  0.00000  1.0000
