data_image0
_chemical_formula_structural       Li2O4Sc2
_chemical_formula_sum              "Li2 O4 Sc2"
_cell_length_a       4.18805
_cell_length_b       4.18805
_cell_length_c       5.46296
_cell_angle_alpha    112.539
_cell_angle_beta     112.539
_cell_angle_gamma    90

_space_group_name_H-M_alt    "P 1"
_space_group_IT_number       1

loop_
  _space_group_symop_operation_xyz
  'x, y, z'

loop_
  _atom_site_type_symbol
  _atom_site_label
  _atom_site_symmetry_multiplicity
  _atom_site_fract_x
  _atom_site_fract_y
  _atom_site_fract_z
  _atom_site_occupancy
  Li  Li1       1.0  0.50000  0.50000  0.00000  1.0000
  Li  Li2       1.0  0.75000  0.25000  0.50000  1.0000
  O   O1        1.0  0.01860  0.51900  0.03710  1.0000
  O   O2        1.0  0.23100  0.23100  0.46300  1.0000
  O   O3        1.0  0.76900  0.76900  0.53700  1.0000
  O   O4        1.0  0.48100  0.98100  0.96300  1.0000
  Sc  Sc1       1.0  0.00000  0.00000  0.00000  1.0000
  Sc  Sc2       1.0  0.25000  0.75000  0.50000  1.0000
