data_image0
_chemical_formula_structural       Al2Si2Zn
_chemical_formula_sum              "Al2 Si2 Zn1"
_cell_length_a       4.32955
_cell_length_b       4.32955
_cell_length_c       5.79128
_cell_angle_alpha    111.95
_cell_angle_beta     111.95
_cell_angle_gamma    90

_space_group_name_H-M_alt    "P 1"
_space_group_IT_number       1

loop_
  _space_group_symop_operation_xyz
  'x, y, z'

loop_
  _atom_site_type_symbol
  _atom_site_label
  _atom_site_symmetry_multiplicity
  _atom_site_fract_x
  _atom_site_fract_y
  _atom_site_fract_z
  _atom_site_occupancy
  Al  Al1       1.0  0.75000  0.25000  0.50000  1.0000
  Al  Al2       1.0  0.25000  0.75000  0.50000  1.0000
  Si  Si1       1.0  0.61700  0.61700  0.23300  1.0000
  Si  Si2       1.0  0.38300  0.38300  0.76600  1.0000
  Zn  Zn1       1.0  0.00000  0.00000  0.00000  1.0000
