data_image0
_chemical_formula_structural       Al2Si2Tc
_chemical_formula_sum              "Al2 Si2 Tc1"
_cell_length_a       6.4931
_cell_length_b       6.4931
_cell_length_c       6.4931
_cell_angle_alpha    148.158
_cell_angle_beta     148.158
_cell_angle_gamma    45.6524

_space_group_name_H-M_alt    "P 1"
_space_group_IT_number       1

loop_
  _space_group_symop_operation_xyz
  'x, y, z'

loop_
  _atom_site_type_symbol
  _atom_site_label
  _atom_site_symmetry_multiplicity
  _atom_site_fract_x
  _atom_site_fract_y
  _atom_site_fract_z
  _atom_site_occupancy
  Al  Al1       1.0  0.75000  0.25000  0.50000  1.0000
  Al  Al2       1.0  0.25000  0.75000  0.50000  1.0000
  Si  Si1       1.0  0.40200  0.40200  0.00000  1.0000
  Si  Si2       1.0  0.59800  0.59800  0.00000  1.0000
  Tc  Tc1       1.0  0.00000  0.00000  0.00000  1.0000
