data_image0
_chemical_formula_structural       Au2PaV2
_chemical_formula_sum              "Au2 Pa1 V2"
_cell_length_a       7.07911
_cell_length_b       7.07911
_cell_length_c       7.07911
_cell_angle_alpha    148.709
_cell_angle_beta     148.709
_cell_angle_gamma    44.8404

_space_group_name_H-M_alt    "P 1"
_space_group_IT_number       1

loop_
  _space_group_symop_operation_xyz
  'x, y, z'

loop_
  _atom_site_type_symbol
  _atom_site_label
  _atom_site_symmetry_multiplicity
  _atom_site_fract_x
  _atom_site_fract_y
  _atom_site_fract_z
  _atom_site_occupancy
  Au  Au1       1.0  0.39600  0.39600  0.00000  1.0000
  Au  Au2       1.0  0.60400  0.60400  0.00000  1.0000
  Pa  Pa1       1.0  0.00000  0.00000  0.00000  1.0000
  V   V1        1.0  0.75000  0.25000  0.50000  1.0000
  V   V2        1.0  0.25000  0.75000  0.50000  1.0000
