data_image0
_chemical_formula_structural       AuBa2Si2
_chemical_formula_sum              "Au1 Ba2 Si2"
_cell_length_a       3.78102
_cell_length_b       3.78102
_cell_length_c       10.177
_cell_angle_alpha    100.706
_cell_angle_beta     100.706
_cell_angle_gamma    90

_space_group_name_H-M_alt    "P 1"
_space_group_IT_number       1

loop_
  _space_group_symop_operation_xyz
  'x, y, z'

loop_
  _atom_site_type_symbol
  _atom_site_label
  _atom_site_symmetry_multiplicity
  _atom_site_fract_x
  _atom_site_fract_y
  _atom_site_fract_z
  _atom_site_occupancy
  Au  Au1       1.0  0.00000  0.00000  0.00000  1.0000
  Ba  Ba1       1.0  0.60700  0.60700  0.21500  1.0000
  Ba  Ba2       1.0  0.39300  0.39300  0.78500  1.0000
  Si  Si1       1.0  0.75000  0.25000  0.50000  1.0000
  Si  Si2       1.0  0.25000  0.75000  0.50000  1.0000
