data_image0
_chemical_formula_structural       Al2GdOs2
_chemical_formula_sum              "Al2 Gd1 Os2"
_cell_length_a       6.05023
_cell_length_b       6.05023
_cell_length_c       6.05023
_cell_angle_alpha    139.307
_cell_angle_beta     139.307
_cell_angle_gamma    58.9069

_space_group_name_H-M_alt    "P 1"
_space_group_IT_number       1

loop_
  _space_group_symop_operation_xyz
  'x, y, z'

loop_
  _atom_site_type_symbol
  _atom_site_label
  _atom_site_symmetry_multiplicity
  _atom_site_fract_x
  _atom_site_fract_y
  _atom_site_fract_z
  _atom_site_occupancy
  Al  Al1       1.0  0.75000  0.25000  0.50000  1.0000
  Al  Al2       1.0  0.25000  0.75000  0.50000  1.0000
  Gd  Gd1       1.0  0.00000  0.00000  0.00000  1.0000
  Os  Os1       1.0  0.38600  0.38600  0.00000  1.0000
  Os  Os2       1.0  0.61400  0.61400  0.00000  1.0000
