data_image0
_chemical_formula_structural       Ir2SmSn2
_chemical_formula_sum              "Ir2 Sm1 Sn2"
_cell_length_a       6.35044
_cell_length_b       6.35044
_cell_length_c       6.35044
_cell_angle_alpha    138.876
_cell_angle_beta     138.876
_cell_angle_gamma    59.5636

_space_group_name_H-M_alt    "P 1"
_space_group_IT_number       1

loop_
  _space_group_symop_operation_xyz
  'x, y, z'

loop_
  _atom_site_type_symbol
  _atom_site_label
  _atom_site_symmetry_multiplicity
  _atom_site_fract_x
  _atom_site_fract_y
  _atom_site_fract_z
  _atom_site_occupancy
  Ir  Ir1       1.0  0.38600  0.38600  0.00000  1.0000
  Ir  Ir2       1.0  0.61400  0.61400  0.00000  1.0000
  Sm  Sm1       1.0  0.00000  0.00000  0.00000  1.0000
  Sn  Sn1       1.0  0.75000  0.25000  0.50000  1.0000
  Sn  Sn2       1.0  0.25000  0.75000  0.50000  1.0000
