data_image0
_chemical_formula_structural       Cu2Hf2Pb
_chemical_formula_sum              "Cu2 Hf2 Pb1"
_cell_length_a       4.30203
_cell_length_b       4.30203
_cell_length_c       6.23545
_cell_angle_alpha    110.18
_cell_angle_beta     110.18
_cell_angle_gamma    90

_space_group_name_H-M_alt    "P 1"
_space_group_IT_number       1

loop_
  _space_group_symop_operation_xyz
  'x, y, z'

loop_
  _atom_site_type_symbol
  _atom_site_label
  _atom_site_symmetry_multiplicity
  _atom_site_fract_x
  _atom_site_fract_y
  _atom_site_fract_z
  _atom_site_occupancy
  Cu  Cu1       1.0  0.60400  0.60400  0.20900  1.0000
  Cu  Cu2       1.0  0.39600  0.39600  0.79100  1.0000
  Hf  Hf1       1.0  0.75000  0.25000  0.50000  1.0000
  Hf  Hf2       1.0  0.25000  0.75000  0.50000  1.0000
  Pb  Pb1       1.0  0.00000  0.00000  0.00000  1.0000
