data_image0
_chemical_formula_structural       F4H8K4Li4O16P4
_chemical_formula_sum              "F4 H8 K4 Li4 O16 P4"
_cell_length_a       5.0953
_cell_length_b       7.112
_cell_length_c       11.908
_cell_angle_alpha    90
_cell_angle_beta     108.016
_cell_angle_gamma    90

_space_group_name_H-M_alt    "P 1"
_space_group_IT_number       1

loop_
  _space_group_symop_operation_xyz
  'x, y, z'

loop_
  _atom_site_type_symbol
  _atom_site_label
  _atom_site_symmetry_multiplicity
  _atom_site_fract_x
  _atom_site_fract_y
  _atom_site_fract_z
  _atom_site_occupancy
  F   F1        1.0  0.65700  0.04910  0.42300  1.0000
  F   F2        1.0  0.34300  0.54900  0.07690  1.0000
  F   F3        1.0  0.34300  0.95100  0.57700  1.0000
  F   F4        1.0  0.65700  0.45100  0.92300  1.0000
  H   H1        1.0  0.93700  0.89100  0.65300  1.0000
  H   H2        1.0  0.06340  0.39100  0.84700  1.0000
  H   H3        1.0  0.06350  0.10900  0.34700  1.0000
  H   H4        1.0  0.93700  0.60900  0.15300  1.0000
  H   H5        1.0  0.83900  0.10100  0.65900  1.0000
  H   H6        1.0  0.16100  0.60100  0.84100  1.0000
  H   H7        1.0  0.16100  0.89900  0.34100  1.0000
  H   H8        1.0  0.83900  0.39900  0.15900  1.0000
  K   K1        1.0  0.32600  0.21800  0.16300  1.0000
  K   K2        1.0  0.67400  0.71800  0.33700  1.0000
  K   K3        1.0  0.67400  0.78200  0.83700  1.0000
  K   K4        1.0  0.32600  0.28200  0.66300  1.0000
  Li  Li1       1.0  0.18000  0.03800  0.86100  1.0000
  Li  Li2       1.0  0.82000  0.53800  0.63900  1.0000
  Li  Li3       1.0  0.82000  0.96200  0.13900  1.0000
  Li  Li4       1.0  0.18000  0.46200  0.36100  1.0000
  O   O1        1.0  0.93000  0.99300  0.71000  1.0000
  O   O2        1.0  0.06990  0.49300  0.79000  1.0000
  O   O3        1.0  0.06990  0.00748  0.29000  1.0000
  O   O4        1.0  0.93000  0.50700  0.21000  1.0000
  O   O5        1.0  0.74900  0.28900  0.57900  1.0000
  O   O6        1.0  0.25100  0.78900  0.92100  1.0000
  O   O7        1.0  0.25100  0.71100  0.42100  1.0000
  O   O8        1.0  0.74900  0.21100  0.07880  1.0000
  O   O9        1.0  0.52300  0.37600  0.36200  1.0000
  O   O10       1.0  0.47700  0.87600  0.13800  1.0000
  O   O11       1.0  0.47700  0.62400  0.63800  1.0000
  O   O12       1.0  0.52300  0.12400  0.86200  1.0000
  O   O13       1.0  0.02590  0.27900  0.43500  1.0000
  O   O14       1.0  0.97400  0.77900  0.06450  1.0000
  O   O15       1.0  0.97400  0.72100  0.56500  1.0000
  O   O16       1.0  0.02590  0.22100  0.93500  1.0000
  P   P1        1.0  0.74100  0.26500  0.45100  1.0000
  P   P2        1.0  0.25900  0.76500  0.04890  1.0000
  P   P3        1.0  0.25900  0.73500  0.54900  1.0000
  P   P4        1.0  0.74100  0.23500  0.95100  1.0000
