data_image0
_chemical_formula_structural       Bi2LaRh2
_chemical_formula_sum              "Bi2 La1 Rh2"
_cell_length_a       6.24615
_cell_length_b       6.24615
_cell_length_c       6.24615
_cell_angle_alpha    134.854
_cell_angle_beta     134.854
_cell_angle_gamma    65.7573

_space_group_name_H-M_alt    "P 1"
_space_group_IT_number       1

loop_
  _space_group_symop_operation_xyz
  'x, y, z'

loop_
  _atom_site_type_symbol
  _atom_site_label
  _atom_site_symmetry_multiplicity
  _atom_site_fract_x
  _atom_site_fract_y
  _atom_site_fract_z
  _atom_site_occupancy
  Bi  Bi1       1.0  0.75000  0.25000  0.50000  1.0000
  Bi  Bi2       1.0  0.25000  0.75000  0.50000  1.0000
  La  La1       1.0  0.00000  0.00000  0.00000  1.0000
  Rh  Rh1       1.0  0.37700  0.37700  0.00000  1.0000
  Rh  Rh2       1.0  0.62300  0.62300  0.00000  1.0000
