data_image0
_chemical_formula_structural       CeHf2Pb2
_chemical_formula_sum              "Ce1 Hf2 Pb2"
_cell_length_a       4.49411
_cell_length_b       4.49411
_cell_length_c       7.42697
_cell_angle_alpha    107.611
_cell_angle_beta     107.611
_cell_angle_gamma    90

_space_group_name_H-M_alt    "P 1"
_space_group_IT_number       1

loop_
  _space_group_symop_operation_xyz
  'x, y, z'

loop_
  _atom_site_type_symbol
  _atom_site_label
  _atom_site_symmetry_multiplicity
  _atom_site_fract_x
  _atom_site_fract_y
  _atom_site_fract_z
  _atom_site_occupancy
  Ce  Ce1       1.0  0.00000  0.00000  0.00000  1.0000
  Hf  Hf1       1.0  0.75000  0.25000  0.50000  1.0000
  Hf  Hf2       1.0  0.25000  0.75000  0.50000  1.0000
  Pb  Pb1       1.0  0.60800  0.60800  0.21600  1.0000
  Pb  Pb2       1.0  0.39200  0.39200  0.78400  1.0000
