data_image0
_chemical_formula_structural       Pb2Rh2Sm
_chemical_formula_sum              "Pb2 Rh2 Sm1"
_cell_length_a       6.51592
_cell_length_b       6.51592
_cell_length_c       6.51592
_cell_angle_alpha    139.383
_cell_angle_beta     139.383
_cell_angle_gamma    58.7918

_space_group_name_H-M_alt    "P 1"
_space_group_IT_number       1

loop_
  _space_group_symop_operation_xyz
  'x, y, z'

loop_
  _atom_site_type_symbol
  _atom_site_label
  _atom_site_symmetry_multiplicity
  _atom_site_fract_x
  _atom_site_fract_y
  _atom_site_fract_z
  _atom_site_occupancy
  Pb  Pb1       1.0  0.75000  0.25000  0.50000  1.0000
  Pb  Pb2       1.0  0.25000  0.75000  0.50000  1.0000
  Rh  Rh1       1.0  0.39000  0.39000  0.00000  1.0000
  Rh  Rh2       1.0  0.61000  0.61000  0.00000  1.0000
  Sm  Sm1       1.0  0.00000  0.00000  0.00000  1.0000
