data_image0
_chemical_formula_structural       AcCo2Ge2
_chemical_formula_sum              "Ac1 Co2 Ge2"
_cell_length_a       5.84808
_cell_length_b       5.84808
_cell_length_c       5.84808
_cell_angle_alpha    137.455
_cell_angle_beta     137.455
_cell_angle_gamma    61.7387

_space_group_name_H-M_alt    "P 1"
_space_group_IT_number       1

loop_
  _space_group_symop_operation_xyz
  'x, y, z'

loop_
  _atom_site_type_symbol
  _atom_site_label
  _atom_site_symmetry_multiplicity
  _atom_site_fract_x
  _atom_site_fract_y
  _atom_site_fract_z
  _atom_site_occupancy
  Ac  Ac1       1.0  0.00000  0.00000  0.00000  1.0000
  Co  Co1       1.0  0.37500  0.37500  0.00000  1.0000
  Co  Co2       1.0  0.62500  0.62500  0.00000  1.0000
  Ge  Ge1       1.0  0.75000  0.25000  0.50000  1.0000
  Ge  Ge2       1.0  0.25000  0.75000  0.50000  1.0000
