data_image0
_chemical_formula_structural       GdPb2Ru2
_chemical_formula_sum              "Gd1 Pb2 Ru2"
_cell_length_a       6.2859
_cell_length_b       6.2859
_cell_length_c       6.2859
_cell_angle_alpha    137.143
_cell_angle_beta     137.143
_cell_angle_gamma    62.2176

_space_group_name_H-M_alt    "P 1"
_space_group_IT_number       1

loop_
  _space_group_symop_operation_xyz
  'x, y, z'

loop_
  _atom_site_type_symbol
  _atom_site_label
  _atom_site_symmetry_multiplicity
  _atom_site_fract_x
  _atom_site_fract_y
  _atom_site_fract_z
  _atom_site_occupancy
  Gd  Gd1       1.0  0.00000  0.00000  0.00000  1.0000
  Pb  Pb1       1.0  0.75000  0.25000  0.50000  1.0000
  Pb  Pb2       1.0  0.25000  0.75000  0.50000  1.0000
  Ru  Ru1       1.0  0.39300  0.39300  0.00000  1.0000
  Ru  Ru2       1.0  0.60700  0.60700  0.00000  1.0000
