data_image0
_chemical_formula_structural       Bi2Nb2Pa
_chemical_formula_sum              "Bi2 Nb2 Pa1"
_cell_length_a       7.65344
_cell_length_b       7.65344
_cell_length_c       7.65344
_cell_angle_alpha    148.858
_cell_angle_beta     148.858
_cell_angle_gamma    44.6203

_space_group_name_H-M_alt    "P 1"
_space_group_IT_number       1

loop_
  _space_group_symop_operation_xyz
  'x, y, z'

loop_
  _atom_site_type_symbol
  _atom_site_label
  _atom_site_symmetry_multiplicity
  _atom_site_fract_x
  _atom_site_fract_y
  _atom_site_fract_z
  _atom_site_occupancy
  Bi  Bi1       1.0  0.39100  0.39100  0.00000  1.0000
  Bi  Bi2       1.0  0.60900  0.60900  0.00000  1.0000
  Nb  Nb1       1.0  0.75000  0.25000  0.50000  1.0000
  Nb  Nb2       1.0  0.25000  0.75000  0.50000  1.0000
  Pa  Pa1       1.0  0.00000  0.00000  0.00000  1.0000
