data_image0
_chemical_formula_structural       Ge2Hf2Tc
_chemical_formula_sum              "Ge2 Hf2 Tc1"
_cell_length_a       3.48153
_cell_length_b       3.48153
_cell_length_c       8.08172
_cell_angle_alpha    102.439
_cell_angle_beta     102.439
_cell_angle_gamma    90

_space_group_name_H-M_alt    "P 1"
_space_group_IT_number       1

loop_
  _space_group_symop_operation_xyz
  'x, y, z'

loop_
  _atom_site_type_symbol
  _atom_site_label
  _atom_site_symmetry_multiplicity
  _atom_site_fract_x
  _atom_site_fract_y
  _atom_site_fract_z
  _atom_site_occupancy
  Ge  Ge1       1.0  0.75000  0.25000  0.50000  1.0000
  Ge  Ge2       1.0  0.25000  0.75000  0.50000  1.0000
  Hf  Hf1       1.0  0.59900  0.59900  0.19800  1.0000
  Hf  Hf2       1.0  0.40100  0.40100  0.80200  1.0000
  Tc  Tc1       1.0  0.00000  0.00000  0.00000  1.0000
