data_image0
_chemical_formula_structural       Bi2GdRu2
_chemical_formula_sum              "Bi2 Gd1 Ru2"
_cell_length_a       6.27015
_cell_length_b       6.27015
_cell_length_c       6.27015
_cell_angle_alpha    136.076
_cell_angle_beta     136.076
_cell_angle_gamma    63.8622

_space_group_name_H-M_alt    "P 1"
_space_group_IT_number       1

loop_
  _space_group_symop_operation_xyz
  'x, y, z'

loop_
  _atom_site_type_symbol
  _atom_site_label
  _atom_site_symmetry_multiplicity
  _atom_site_fract_x
  _atom_site_fract_y
  _atom_site_fract_z
  _atom_site_occupancy
  Bi  Bi1       1.0  0.75000  0.25000  0.50000  1.0000
  Bi  Bi2       1.0  0.25000  0.75000  0.50000  1.0000
  Gd  Gd1       1.0  0.00000  0.00000  0.00000  1.0000
  Ru  Ru1       1.0  0.39200  0.39200  0.00000  1.0000
  Ru  Ru2       1.0  0.60800  0.60800  0.00000  1.0000
