data_image0
_chemical_formula_structural       Mn3O18Pb6Re3
_chemical_formula_sum              "Mn3 O18 Pb6 Re3"
_cell_length_a       9.73627
_cell_length_b       9.73627
_cell_length_c       5.59098
_cell_angle_alpha    73.4438
_cell_angle_beta     106.556
_cell_angle_gamma    130.436

_space_group_name_H-M_alt    "P 1"
_space_group_IT_number       1

loop_
  _space_group_symop_operation_xyz
  'x, y, z'

loop_
  _atom_site_type_symbol
  _atom_site_label
  _atom_site_symmetry_multiplicity
  _atom_site_fract_x
  _atom_site_fract_y
  _atom_site_fract_z
  _atom_site_occupancy
  Mn  Mn1       1.0  0.00000  0.00000  0.00000  1.0000
  Mn  Mn2       1.0  0.33400  0.66600  0.33000  1.0000
  Mn  Mn3       1.0  0.66600  0.33400  0.67000  1.0000
  O   O1        1.0  0.10500  0.89500  0.89200  1.0000
  O   O2        1.0  0.89500  0.10500  0.10800  1.0000
  O   O3        1.0  0.56000  0.44000  0.76600  1.0000
  O   O4        1.0  0.44000  0.56000  0.23400  1.0000
  O   O5        1.0  0.59800  0.40200  0.27800  1.0000
  O   O6        1.0  0.40200  0.59800  0.72200  1.0000
  O   O7        1.0  0.07050  0.92900  0.38300  1.0000
  O   O8        1.0  0.92900  0.07050  0.61700  1.0000
  O   O9        1.0  0.07080  0.40500  0.34300  1.0000
  O   O10       1.0  0.40500  0.07080  0.65700  1.0000
  O   O11       1.0  0.92900  0.59500  0.65700  1.0000
  O   O12       1.0  0.59500  0.92900  0.34300  1.0000
  O   O13       1.0  0.22900  0.77100  0.43500  1.0000
  O   O14       1.0  0.77100  0.22900  0.56500  1.0000
  O   O15       1.0  0.73600  0.26400  0.05540  1.0000
  O   O16       1.0  0.26400  0.73600  0.94500  1.0000
  O   O17       1.0  0.73700  0.73700  0.00000  1.0000
  O   O18       1.0  0.26300  0.26300  0.00000  1.0000
  Pb  Pb1       1.0  0.75100  0.75100  0.50000  1.0000
  Pb  Pb2       1.0  0.24900  0.24900  0.50000  1.0000
  Pb  Pb3       1.0  0.08270  0.41600  0.82500  1.0000
  Pb  Pb4       1.0  0.41600  0.08270  0.17500  1.0000
  Pb  Pb5       1.0  0.91700  0.58400  0.17500  1.0000
  Pb  Pb6       1.0  0.58400  0.91700  0.82500  1.0000
  Re  Re1       1.0  0.83300  0.16700  0.33400  1.0000
  Re  Re2       1.0  0.16700  0.83300  0.66600  1.0000
  Re  Re3       1.0  0.50000  0.50000  0.00000  1.0000
