# generated using pymatgen
data_LiCr2(PO4)3
_symmetry_space_group_name_H-M   'P 1'
_cell_length_a   8.35371934
_cell_length_b   8.39684338
_cell_length_c   8.75715837
_cell_angle_alpha   118.33982268
_cell_angle_beta   90.37468607
_cell_angle_gamma   120.04462833
_symmetry_Int_Tables_number   1
_chemical_formula_structural   LiCr2(PO4)3
_chemical_formula_sum   'Li2 Cr4 P6 O24'
_cell_volume   443.31119665
_cell_formula_units_Z   2
loop_
 _symmetry_equiv_pos_site_id
 _symmetry_equiv_pos_as_xyz
  1  'x, y, z'
loop_
 _atom_site_type_symbol
 _atom_site_label
 _atom_site_symmetry_multiplicity
 _atom_site_fract_x
 _atom_site_fract_y
 _atom_site_fract_z
 _atom_site_occupancy
  Li  Li0  1  0.22692500  0.75782700  0.57937000  1
  Li  Li1  1  0.77307500  0.24217300  0.42062900  1
  Cr  Cr2  1  0.86565000  0.21374400  0.07229900  1
  Cr  Cr3  1  0.35657100  0.21078000  0.56493200  1
  Cr  Cr4  1  0.64342800  0.78922000  0.43506800  1
  Cr  Cr5  1  0.13434900  0.78625600  0.92770100  1
  P  P6  1  0.03666700  0.00968200  0.75376600  1
  P  P7  1  0.46716200  0.71930000  0.74711600  1
  P  P8  1  0.53283800  0.28070000  0.25288400  1
  P  P9  1  0.96333300  0.99031800  0.24623400  1
  P  P10  1  0.24774700  0.71453000  0.25220300  1
  P  P11  1  0.75225200  0.28547000  0.74779600  1
  O  O12  1  0.45032700  0.75226700  0.27562900  1
  O  O13  1  0.81098000  0.29780700  0.91885800  1
  O  O14  1  0.52231400  0.47432100  0.30054300  1
  O  O15  1  0.89694100  0.13345900  0.24839100  1
  O  O16  1  0.10306000  0.86654000  0.75160900  1
  O  O17  1  0.24922200  0.89094000  0.43087500  1
  O  O18  1  0.18902100  0.70219300  0.08114100  1
  O  O19  1  0.09791100  0.50057900  0.24503500  1
  O  O20  1  0.26914700  0.67873400  0.76892000  1
  O  O21  1  0.02632000  0.14012500  0.94484500  1
  O  O22  1  0.75077700  0.10906000  0.56912400  1
  O  O23  1  0.47536200  0.76314600  0.59140100  1
  O  O24  1  0.18013600  0.17192000  0.70670200  1
  O  O25  1  0.73085200  0.32126600  0.23108000  1
  O  O26  1  0.63481200  0.92309200  0.92800300  1
  O  O27  1  0.47768600  0.52568100  0.69945700  1
  O  O28  1  0.90208900  0.49942100  0.75496500  1
  O  O29  1  0.36518900  0.07690800  0.07199700  1
  O  O30  1  0.82794800  0.84506200  0.61274900  1
  O  O31  1  0.81986300  0.82807900  0.29329700  1
  O  O32  1  0.52463900  0.23685400  0.40859800  1
  O  O33  1  0.54967300  0.24773300  0.72437100  1
  O  O34  1  0.97368000  0.85987500  0.05515400  1
  O  O35  1  0.17205200  0.15493800  0.38725100  1
