data_image0
_chemical_formula_structural       AuBi2Ta2
_chemical_formula_sum              "Au1 Bi2 Ta2"
_cell_length_a       7.12023
_cell_length_b       7.12023
_cell_length_c       7.12023
_cell_angle_alpha    144.633
_cell_angle_beta     144.633
_cell_angle_gamma    50.8812

_space_group_name_H-M_alt    "P 1"
_space_group_IT_number       1

loop_
  _space_group_symop_operation_xyz
  'x, y, z'

loop_
  _atom_site_type_symbol
  _atom_site_label
  _atom_site_symmetry_multiplicity
  _atom_site_fract_x
  _atom_site_fract_y
  _atom_site_fract_z
  _atom_site_occupancy
  Au  Au1       1.0  0.00000  0.00000  0.00000  1.0000
  Bi  Bi1       1.0  0.75000  0.25000  0.50000  1.0000
  Bi  Bi2       1.0  0.25000  0.75000  0.50000  1.0000
  Ta  Ta1       1.0  0.40500  0.40500  0.00000  1.0000
  Ta  Ta2       1.0  0.59500  0.59500  0.00000  1.0000
