data_image0
_chemical_formula_structural       Hf2Pb2V
_chemical_formula_sum              "Hf2 Pb2 V1"
_cell_length_a       4.14761
_cell_length_b       4.14761
_cell_length_c       7.85677
_cell_angle_alpha    105.305
_cell_angle_beta     105.305
_cell_angle_gamma    90

_space_group_name_H-M_alt    "P 1"
_space_group_IT_number       1

loop_
  _space_group_symop_operation_xyz
  'x, y, z'

loop_
  _atom_site_type_symbol
  _atom_site_label
  _atom_site_symmetry_multiplicity
  _atom_site_fract_x
  _atom_site_fract_y
  _atom_site_fract_z
  _atom_site_occupancy
  Hf  Hf1       1.0  0.59400  0.59400  0.18700  1.0000
  Hf  Hf2       1.0  0.40600  0.40600  0.81300  1.0000
  Pb  Pb1       1.0  0.75000  0.25000  0.50000  1.0000
  Pb  Pb2       1.0  0.25000  0.75000  0.50000  1.0000
  V   V1        1.0  0.00000  0.00000  0.00000  1.0000
