data_image0
_chemical_formula_structural       Rh2SnSr2
_chemical_formula_sum              "Rh2 Sn1 Sr2"
_cell_length_a       9.34428
_cell_length_b       9.34428
_cell_length_c       9.34428
_cell_angle_alpha    156.934
_cell_angle_beta     156.934
_cell_angle_gamma    32.8487

_space_group_name_H-M_alt    "P 1"
_space_group_IT_number       1

loop_
  _space_group_symop_operation_xyz
  'x, y, z'

loop_
  _atom_site_type_symbol
  _atom_site_label
  _atom_site_symmetry_multiplicity
  _atom_site_fract_x
  _atom_site_fract_y
  _atom_site_fract_z
  _atom_site_occupancy
  Rh  Rh1       1.0  0.75000  0.25000  0.50000  1.0000
  Rh  Rh2       1.0  0.25000  0.75000  0.50000  1.0000
  Sn  Sn1       1.0  0.00000  0.00000  0.00000  1.0000
  Sr  Sr1       1.0  0.38500  0.38500  0.00000  1.0000
  Sr  Sr2       1.0  0.61500  0.61500  0.00000  1.0000
