data_image0
_chemical_formula_structural       Rh2Te2Tm
_chemical_formula_sum              "Rh2 Te2 Tm1"
_cell_length_a       4.07751
_cell_length_b       4.07751
_cell_length_c       7.10093
_cell_angle_alpha    106.685
_cell_angle_beta     106.685
_cell_angle_gamma    90

_space_group_name_H-M_alt    "P 1"
_space_group_IT_number       1

loop_
  _space_group_symop_operation_xyz
  'x, y, z'

loop_
  _atom_site_type_symbol
  _atom_site_label
  _atom_site_symmetry_multiplicity
  _atom_site_fract_x
  _atom_site_fract_y
  _atom_site_fract_z
  _atom_site_occupancy
  Rh  Rh1       1.0  0.75000  0.25000  0.50000  1.0000
  Rh  Rh2       1.0  0.25000  0.75000  0.50000  1.0000
  Te  Te1       1.0  0.62100  0.62100  0.24200  1.0000
  Te  Te2       1.0  0.37900  0.37900  0.75800  1.0000
  Tm  Tm1       1.0  0.00000  0.00000  0.00000  1.0000
