data_image0
_chemical_formula_structural       Au2GaTa2
_chemical_formula_sum              "Au2 Ga1 Ta2"
_cell_length_a       7.43734
_cell_length_b       7.43734
_cell_length_c       7.43734
_cell_angle_alpha    150.9
_cell_angle_beta     150.9
_cell_angle_gamma    41.6213

_space_group_name_H-M_alt    "P 1"
_space_group_IT_number       1

loop_
  _space_group_symop_operation_xyz
  'x, y, z'

loop_
  _atom_site_type_symbol
  _atom_site_label
  _atom_site_symmetry_multiplicity
  _atom_site_fract_x
  _atom_site_fract_y
  _atom_site_fract_z
  _atom_site_occupancy
  Au  Au1       1.0  0.75000  0.25000  0.50000  1.0000
  Au  Au2       1.0  0.25000  0.75000  0.50000  1.0000
  Ga  Ga1       1.0  0.00000  0.00000  0.00000  1.0000
  Ta  Ta1       1.0  0.40700  0.40700  0.00000  1.0000
  Ta  Ta2       1.0  0.59300  0.59300  0.00000  1.0000
