data_image0
_chemical_formula_structural       Rh2TbTe2
_chemical_formula_sum              "Rh2 Tb1 Te2"
_cell_length_a       7.02177
_cell_length_b       7.02177
_cell_length_c       7.02177
_cell_angle_alpha    145.742
_cell_angle_beta     145.742
_cell_angle_gamma    49.2307

_space_group_name_H-M_alt    "P 1"
_space_group_IT_number       1

loop_
  _space_group_symop_operation_xyz
  'x, y, z'

loop_
  _atom_site_type_symbol
  _atom_site_label
  _atom_site_symmetry_multiplicity
  _atom_site_fract_x
  _atom_site_fract_y
  _atom_site_fract_z
  _atom_site_occupancy
  Rh  Rh1       1.0  0.75000  0.25000  0.50000  1.0000
  Rh  Rh2       1.0  0.25000  0.75000  0.50000  1.0000
  Tb  Tb1       1.0  0.00000  0.00000  0.00000  1.0000
  Te  Te1       1.0  0.37700  0.37700  0.00000  1.0000
  Te  Te2       1.0  0.62300  0.62300  0.00000  1.0000
