data_image0
_chemical_formula_structural       Au2GaHf2
_chemical_formula_sum              "Au2 Ga1 Hf2"
_cell_length_a       4.44821
_cell_length_b       4.44821
_cell_length_c       6.59142
_cell_angle_alpha    109.72
_cell_angle_beta     109.72
_cell_angle_gamma    90

_space_group_name_H-M_alt    "P 1"
_space_group_IT_number       1

loop_
  _space_group_symop_operation_xyz
  'x, y, z'

loop_
  _atom_site_type_symbol
  _atom_site_label
  _atom_site_symmetry_multiplicity
  _atom_site_fract_x
  _atom_site_fract_y
  _atom_site_fract_z
  _atom_site_occupancy
  Au  Au1       1.0  0.61200  0.61200  0.22300  1.0000
  Au  Au2       1.0  0.38800  0.38800  0.77700  1.0000
  Ga  Ga1       1.0  0.00000  0.00000  0.00000  1.0000
  Hf  Hf1       1.0  0.75000  0.25000  0.50000  1.0000
  Hf  Hf2       1.0  0.25000  0.75000  0.50000  1.0000
