data_image0
_chemical_formula_structural       Pt2S20Sn20
_chemical_formula_sum              "Pt2 S20 Sn20"
_cell_length_a       11.0805
_cell_length_b       8.6933
_cell_length_c       11.3805
_cell_angle_alpha    90
_cell_angle_beta     90
_cell_angle_gamma    90

_space_group_name_H-M_alt    "P 1"
_space_group_IT_number       1

loop_
  _space_group_symop_operation_xyz
  'x, y, z'

loop_
  _atom_site_type_symbol
  _atom_site_label
  _atom_site_symmetry_multiplicity
  _atom_site_fract_x
  _atom_site_fract_y
  _atom_site_fract_z
  _atom_site_occupancy
  Pt  Pt1       1.0  0.50000  0.00000  0.00000  1.0000
  Pt  Pt2       1.0  0.00000  0.00000  0.50000  1.0000
  S   S1        1.0  0.80700  0.50000  0.05940  1.0000
  S   S2        1.0  0.86500  0.00000  0.09550  1.0000
  S   S3        1.0  0.51700  0.50000  0.18100  1.0000
  S   S4        1.0  0.18100  0.19800  0.18700  1.0000
  S   S5        1.0  0.18100  0.80200  0.18700  1.0000
  S   S6        1.0  0.68100  0.19800  0.31300  1.0000
  S   S7        1.0  0.68100  0.80200  0.31300  1.0000
  S   S8        1.0  0.01740  0.50000  0.31900  1.0000
  S   S9        1.0  0.36500  0.00000  0.40500  1.0000
  S   S10       1.0  0.30700  0.50000  0.44100  1.0000
  S   S11       1.0  0.69300  0.50000  0.55900  1.0000
  S   S12       1.0  0.63500  0.00000  0.59500  1.0000
  S   S13       1.0  0.98300  0.50000  0.68100  1.0000
  S   S14       1.0  0.31900  0.19800  0.68700  1.0000
  S   S15       1.0  0.31900  0.80200  0.68700  1.0000
  S   S16       1.0  0.81900  0.19800  0.81300  1.0000
  S   S17       1.0  0.81900  0.80200  0.81300  1.0000
  S   S18       1.0  0.48300  0.50000  0.81900  1.0000
  S   S19       1.0  0.13500  0.00000  0.90500  1.0000
  S   S20       1.0  0.19300  0.50000  0.94100  1.0000
  Sn  Sn1       1.0  0.00000  0.23500  0.00000  1.0000
  Sn  Sn2       1.0  0.00000  0.76500  0.00000  1.0000
  Sn  Sn3       1.0  0.63700  0.26100  0.08990  1.0000
  Sn  Sn4       1.0  0.63700  0.73900  0.08990  1.0000
  Sn  Sn5       1.0  0.26400  0.50000  0.18000  1.0000
  Sn  Sn6       1.0  0.34900  0.00000  0.18200  1.0000
  Sn  Sn7       1.0  0.84900  0.00000  0.31800  1.0000
  Sn  Sn8       1.0  0.76400  0.50000  0.32000  1.0000
  Sn  Sn9       1.0  0.13700  0.26100  0.41000  1.0000
  Sn  Sn10      1.0  0.13700  0.73900  0.41000  1.0000
  Sn  Sn11      1.0  0.50000  0.23500  0.50000  1.0000
  Sn  Sn12      1.0  0.50000  0.76500  0.50000  1.0000
  Sn  Sn13      1.0  0.86300  0.26100  0.59000  1.0000
  Sn  Sn14      1.0  0.86300  0.73900  0.59000  1.0000
  Sn  Sn15      1.0  0.23600  0.50000  0.68000  1.0000
  Sn  Sn16      1.0  0.15100  0.00000  0.68200  1.0000
  Sn  Sn17      1.0  0.65100  0.00000  0.81800  1.0000
  Sn  Sn18      1.0  0.73600  0.50000  0.82000  1.0000
  Sn  Sn19      1.0  0.36300  0.26100  0.91000  1.0000
  Sn  Sn20      1.0  0.36300  0.73900  0.91000  1.0000
