data_image0
_chemical_formula_structural       Fe2PaSi2
_chemical_formula_sum              "Fe2 Pa1 Si2"
_cell_length_a       5.43296
_cell_length_b       5.43296
_cell_length_c       5.43296
_cell_angle_alpha    137.096
_cell_angle_beta     137.096
_cell_angle_gamma    62.2907

_space_group_name_H-M_alt    "P 1"
_space_group_IT_number       1

loop_
  _space_group_symop_operation_xyz
  'x, y, z'

loop_
  _atom_site_type_symbol
  _atom_site_label
  _atom_site_symmetry_multiplicity
  _atom_site_fract_x
  _atom_site_fract_y
  _atom_site_fract_z
  _atom_site_occupancy
  Fe  Fe1       1.0  0.75000  0.25000  0.50000  1.0000
  Fe  Fe2       1.0  0.25000  0.75000  0.50000  1.0000
  Pa  Pa1       1.0  0.00000  0.00000  0.00000  1.0000
  Si  Si1       1.0  0.36800  0.36800  0.00000  1.0000
  Si  Si2       1.0  0.63200  0.63200  0.00000  1.0000
