data_image0
_chemical_formula_structural       Pd2Te2Y
_chemical_formula_sum              "Pd2 Te2 Y1"
_cell_length_a       7.40612
_cell_length_b       7.40612
_cell_length_c       7.40612
_cell_angle_alpha    148.044
_cell_angle_beta     148.044
_cell_angle_gamma    45.8209

_space_group_name_H-M_alt    "P 1"
_space_group_IT_number       1

loop_
  _space_group_symop_operation_xyz
  'x, y, z'

loop_
  _atom_site_type_symbol
  _atom_site_label
  _atom_site_symmetry_multiplicity
  _atom_site_fract_x
  _atom_site_fract_y
  _atom_site_fract_z
  _atom_site_occupancy
  Pd  Pd1       1.0  0.75000  0.25000  0.50000  1.0000
  Pd  Pd2       1.0  0.25000  0.75000  0.50000  1.0000
  Te  Te1       1.0  0.38300  0.38300  0.00000  1.0000
  Te  Te2       1.0  0.61700  0.61700  0.00000  1.0000
  Y   Y1        1.0  0.00000  0.00000  0.00000  1.0000
