data_image0
_chemical_formula_structural       Au2TmZn2
_chemical_formula_sum              "Au2 Tm1 Zn2"
_cell_length_a       6.17766
_cell_length_b       6.17766
_cell_length_c       6.17766
_cell_angle_alpha    139.971
_cell_angle_beta     139.971
_cell_angle_gamma    57.8966

_space_group_name_H-M_alt    "P 1"
_space_group_IT_number       1

loop_
  _space_group_symop_operation_xyz
  'x, y, z'

loop_
  _atom_site_type_symbol
  _atom_site_label
  _atom_site_symmetry_multiplicity
  _atom_site_fract_x
  _atom_site_fract_y
  _atom_site_fract_z
  _atom_site_occupancy
  Au  Au1       1.0  0.75000  0.25000  0.50000  1.0000
  Au  Au2       1.0  0.25000  0.75000  0.50000  1.0000
  Tm  Tm1       1.0  0.00000  0.00000  0.00000  1.0000
  Zn  Zn1       1.0  0.39100  0.39100  0.00000  1.0000
  Zn  Zn2       1.0  0.60900  0.60900  0.00000  1.0000
