data_image0
_chemical_formula_structural       GaRh2Sr2
_chemical_formula_sum              "Ga1 Rh2 Sr2"
_cell_length_a       9.52391
_cell_length_b       9.52391
_cell_length_c       9.52391
_cell_angle_alpha    157.721
_cell_angle_beta     157.721
_cell_angle_gamma    31.712

_space_group_name_H-M_alt    "P 1"
_space_group_IT_number       1

loop_
  _space_group_symop_operation_xyz
  'x, y, z'

loop_
  _atom_site_type_symbol
  _atom_site_label
  _atom_site_symmetry_multiplicity
  _atom_site_fract_x
  _atom_site_fract_y
  _atom_site_fract_z
  _atom_site_occupancy
  Ga  Ga1       1.0  0.00000  0.00000  0.00000  1.0000
  Rh  Rh1       1.0  0.75000  0.25000  0.50000  1.0000
  Rh  Rh2       1.0  0.25000  0.75000  0.50000  1.0000
  Sr  Sr1       1.0  0.38800  0.38800  0.00000  1.0000
  Sr  Sr2       1.0  0.61200  0.61200  0.00000  1.0000
