# generated using pymatgen
data_Si3O
_symmetry_space_group_name_H-M   'P 1'
_cell_length_a   9.15897891
_cell_length_b   9.15897891
_cell_length_c   8.41278532
_cell_angle_alpha   81.82260632
_cell_angle_beta   81.82260632
_cell_angle_gamma   26.61048190
_symmetry_Int_Tables_number   1
_chemical_formula_structural   Si3O
_chemical_formula_sum   'Si12 O4'
_cell_volume   312.71428462
_cell_formula_units_Z   4
loop_
 _symmetry_equiv_pos_site_id
 _symmetry_equiv_pos_as_xyz
  1  'x, y, z'
loop_
 _atom_site_type_symbol
 _atom_site_label
 _atom_site_symmetry_multiplicity
 _atom_site_fract_x
 _atom_site_fract_y
 _atom_site_fract_z
 _atom_site_occupancy
  Si  Si0  1  0.26229300  0.13342600  0.51560100  1
  Si  Si1  1  0.73770700  0.86657400  0.48439900  1
  Si  Si2  1  0.46307300  0.43601700  0.17871200  1
  Si  Si3  1  0.11549300  0.13204000  0.78800900  1
  Si  Si4  1  0.88450700  0.86796000  0.21199100  1
  Si  Si5  1  0.13204000  0.11549300  0.28800900  1
  Si  Si6  1  0.86796000  0.88450700  0.71199100  1
  Si  Si7  1  0.56398300  0.53692700  0.32128800  1
  Si  Si8  1  0.53692700  0.56398300  0.82128800  1
  Si  Si9  1  0.86657400  0.73770700  0.98439900  1
  Si  Si10  1  0.43601700  0.46307300  0.67871200  1
  Si  Si11  1  0.13342600  0.26229300  0.01560100  1
  O  O12  1  0.00000000  0.50000000  0.50000000  1
  O  O13  1  0.50000000  0.50000000  0.50000000  1
  O  O14  1  0.50000000  0.50000000  0.00000000  1
  O  O15  1  0.50000000  0.00000000  0.00000000  1
