# generated using pymatgen
data_Mn5(P3O11)2
_symmetry_space_group_name_H-M   'P 1'
_cell_length_a   6.78180800
_cell_length_b   10.71651200
_cell_length_c   12.72649940
_cell_angle_alpha   74.36790831
_cell_angle_beta   90.00000000
_cell_angle_gamma   90.00000000
_symmetry_Int_Tables_number   1
_chemical_formula_structural   Mn5(P3O11)2
_chemical_formula_sum   'Mn10 P12 O44'
_cell_volume   890.71652897
_cell_formula_units_Z   2
loop_
 _symmetry_equiv_pos_site_id
 _symmetry_equiv_pos_as_xyz
  1  'x, y, z'
loop_
 _atom_site_type_symbol
 _atom_site_label
 _atom_site_symmetry_multiplicity
 _atom_site_fract_x
 _atom_site_fract_y
 _atom_site_fract_z
 _atom_site_occupancy
  Mn  Mn0  1  0.99725400  0.20611200  0.33926400  1
  Mn  Mn1  1  0.00274600  0.79388800  0.66073600  1
  Mn  Mn2  1  0.25256100  0.20952300  0.13778000  1
  Mn  Mn3  1  0.49725400  0.29388800  0.66073600  1
  Mn  Mn4  1  0.75256100  0.29047700  0.86222000  1
  Mn  Mn5  1  0.74743900  0.79047700  0.86222000  1
  Mn  Mn6  1  0.24743900  0.70952300  0.13778000  1
  Mn  Mn7  1  0.50000000  0.50000000  0.00000000  1
  Mn  Mn8  1  0.00000000  0.00000000  0.00000000  1
  Mn  Mn9  1  0.50274600  0.70611200  0.33926400  1
  P  P10  1  0.70047500  0.41689500  0.41513400  1
  P  P11  1  0.61563400  0.57163400  0.74704200  1
  P  P12  1  0.29952500  0.58310500  0.58486600  1
  P  P13  1  0.11563400  0.92836600  0.25295800  1
  P  P14  1  0.20047500  0.08310500  0.58486600  1
  P  P15  1  0.38436600  0.42836600  0.25295800  1
  P  P16  1  0.73694900  0.22978800  0.08484100  1
  P  P17  1  0.23694900  0.27021200  0.91515900  1
  P  P18  1  0.26305100  0.77021200  0.91515900  1
  P  P19  1  0.88436600  0.07163400  0.74704200  1
  P  P20  1  0.76305100  0.72978800  0.08484100  1
  P  P21  1  0.79952500  0.91689500  0.41513400  1
  O  O22  1  0.72710700  0.17229300  0.75589900  1
  O  O23  1  0.29504300  0.63334100  0.00543100  1
  O  O24  1  0.47147400  0.55015900  0.84343600  1
  O  O25  1  0.81668900  0.85192200  0.53612300  1
  O  O26  1  0.52852600  0.44984100  0.15656400  1
  O  O27  1  0.05234900  0.31870600  0.85124900  1
  O  O28  1  0.70364200  0.44124300  0.73868600  1
  O  O29  1  0.91842200  0.23362500  0.15476200  1
  O  O30  1  0.55234900  0.18129400  0.14875100  1
  O  O31  1  0.22048000  0.84940500  0.00358200  1
  O  O32  1  0.69732600  0.56530000  0.38349400  1
  O  O33  1  0.68331100  0.35192200  0.53612300  1
  O  O34  1  0.79504300  0.86665900  0.99456900  1
  O  O35  1  0.27952000  0.34940500  0.00358200  1
  O  O36  1  0.44765100  0.81870600  0.85124900  1
  O  O37  1  0.49882200  0.36895300  0.36260400  1
  O  O38  1  0.19732600  0.93470000  0.61650600  1
  O  O39  1  0.77952000  0.15059500  0.99641800  1
  O  O40  1  0.41842200  0.26637500  0.84523800  1
  O  O41  1  0.77289300  0.67229300  0.75589900  1
  O  O42  1  0.94765100  0.68129400  0.14875100  1
  O  O43  1  0.37220100  0.13239800  0.63764400  1
  O  O44  1  0.97147400  0.94984100  0.15656400  1
  O  O45  1  0.27289300  0.82770700  0.24410100  1
  O  O46  1  0.22710700  0.32770700  0.24410100  1
  O  O47  1  0.30267400  0.43470000  0.61650600  1
  O  O48  1  0.50117800  0.63104700  0.63739600  1
  O  O49  1  0.00117800  0.86895300  0.36260400  1
  O  O50  1  0.87220100  0.36760200  0.36235600  1
  O  O51  1  0.20364200  0.05875700  0.26131400  1
  O  O52  1  0.08157800  0.76637500  0.84523800  1
  O  O53  1  0.72048000  0.65059500  0.99641800  1
  O  O54  1  0.02852600  0.05015900  0.84343600  1
  O  O55  1  0.20495700  0.13334100  0.00543100  1
  O  O56  1  0.12779900  0.63239800  0.63764400  1
  O  O57  1  0.70495700  0.36665900  0.99456900  1
  O  O58  1  0.29635800  0.55875700  0.26131400  1
  O  O59  1  0.80267400  0.06530000  0.38349400  1
  O  O60  1  0.18331100  0.14807800  0.46387700  1
  O  O61  1  0.79635800  0.94124300  0.73868600  1
  O  O62  1  0.62779900  0.86760200  0.36235600  1
  O  O63  1  0.31668900  0.64807800  0.46387700  1
  O  O64  1  0.58157800  0.73362500  0.15476200  1
  O  O65  1  0.99882200  0.13104700  0.63739600  1
