data_image0
_chemical_formula_structural       InRh2Sr2
_chemical_formula_sum              "In1 Rh2 Sr2"
_cell_length_a       4.567
_cell_length_b       4.567
_cell_length_c       7.01333
_cell_angle_alpha    92.4553
_cell_angle_beta     92.4553
_cell_angle_gamma    90.4802

_space_group_name_H-M_alt    "P 1"
_space_group_IT_number       1

loop_
  _space_group_symop_operation_xyz
  'x, y, z'

loop_
  _atom_site_type_symbol
  _atom_site_label
  _atom_site_symmetry_multiplicity
  _atom_site_fract_x
  _atom_site_fract_y
  _atom_site_fract_z
  _atom_site_occupancy
  In  In1       1.0  0.81300  0.81300  0.76100  1.0000
  Rh  Rh1       1.0  0.76900  0.30300  0.55600  1.0000
  Rh  Rh2       1.0  0.30300  0.76900  0.55600  1.0000
  Sr  Sr1       1.0  0.80500  0.80500  0.27700  1.0000
  Sr  Sr2       1.0  0.31000  0.31000  0.84900  1.0000
