data_image0
_chemical_formula_structural       Os2Sn20Te20
_chemical_formula_sum              "Os2 Sn20 Te20"
_cell_length_a       8.7456
_cell_length_b       12.2954
_cell_length_c       12.3361
_cell_angle_alpha    90
_cell_angle_beta     90
_cell_angle_gamma    90

_space_group_name_H-M_alt    "P 1"
_space_group_IT_number       1

loop_
  _space_group_symop_operation_xyz
  'x, y, z'

loop_
  _atom_site_type_symbol
  _atom_site_label
  _atom_site_symmetry_multiplicity
  _atom_site_fract_x
  _atom_site_fract_y
  _atom_site_fract_z
  _atom_site_occupancy
  Os  Os1       1.0  0.50000  0.50000  0.00000  1.0000
  Os  Os2       1.0  0.50000  0.00000  0.50000  1.0000
  Sn  Sn1       1.0  0.23100  0.00000  0.00000  1.0000
  Sn  Sn2       1.0  0.76900  0.00000  0.00000  1.0000
  Sn  Sn3       1.0  0.27700  0.62600  0.08130  1.0000
  Sn  Sn4       1.0  0.72300  0.62600  0.08130  1.0000
  Sn  Sn5       1.0  0.50000  0.37600  0.17200  1.0000
  Sn  Sn6       1.0  0.00000  0.26700  0.19500  1.0000
  Sn  Sn7       1.0  0.00000  0.76700  0.30500  1.0000
  Sn  Sn8       1.0  0.50000  0.87600  0.32800  1.0000
  Sn  Sn9       1.0  0.27700  0.12600  0.41900  1.0000
  Sn  Sn10      1.0  0.72300  0.12600  0.41900  1.0000
  Sn  Sn11      1.0  0.23100  0.50000  0.50000  1.0000
  Sn  Sn12      1.0  0.76900  0.50000  0.50000  1.0000
  Sn  Sn13      1.0  0.27700  0.87400  0.58100  1.0000
  Sn  Sn14      1.0  0.72300  0.87400  0.58100  1.0000
  Sn  Sn15      1.0  0.50000  0.12400  0.67200  1.0000
  Sn  Sn16      1.0  0.00000  0.23300  0.69500  1.0000
  Sn  Sn17      1.0  0.00000  0.73300  0.80500  1.0000
  Sn  Sn18      1.0  0.50000  0.62400  0.82800  1.0000
  Sn  Sn19      1.0  0.27700  0.37400  0.91900  1.0000
  Sn  Sn20      1.0  0.72300  0.37400  0.91900  1.0000
  Te  Te1       1.0  0.00000  0.79600  0.05380  1.0000
  Te  Te2       1.0  0.50000  0.86300  0.09510  1.0000
  Te  Te3       1.0  0.00000  0.50100  0.17900  1.0000
  Te  Te4       1.0  0.31000  0.17600  0.18000  1.0000
  Te  Te5       1.0  0.69000  0.17600  0.18000  1.0000
  Te  Te6       1.0  0.31000  0.67600  0.32000  1.0000
  Te  Te7       1.0  0.69000  0.67600  0.32000  1.0000
  Te  Te8       1.0  0.00000  0.00105  0.32100  1.0000
  Te  Te9       1.0  0.50000  0.36300  0.40500  1.0000
  Te  Te10      1.0  0.00000  0.29600  0.44600  1.0000
  Te  Te11      1.0  0.00000  0.70400  0.55400  1.0000
  Te  Te12      1.0  0.50000  0.63700  0.59500  1.0000
  Te  Te13      1.0  0.00000  0.99900  0.67900  1.0000
  Te  Te14      1.0  0.31000  0.32400  0.68000  1.0000
  Te  Te15      1.0  0.69000  0.32400  0.68000  1.0000
  Te  Te16      1.0  0.31000  0.82400  0.82000  1.0000
  Te  Te17      1.0  0.69000  0.82400  0.82000  1.0000
  Te  Te18      1.0  0.00000  0.49900  0.82100  1.0000
  Te  Te19      1.0  0.50000  0.13700  0.90500  1.0000
  Te  Te20      1.0  0.00000  0.20400  0.94600  1.0000
