data_image0
_chemical_formula_structural       BaF6Sn
_chemical_formula_sum              "Ba1 F6 Sn1"
_cell_length_a       4.80925
_cell_length_b       4.80925
_cell_length_c       4.80925
_cell_angle_alpha    97.2105
_cell_angle_beta     97.2105
_cell_angle_gamma    97.2105

_space_group_name_H-M_alt    "P 1"
_space_group_IT_number       1

loop_
  _space_group_symop_operation_xyz
  'x, y, z'

loop_
  _atom_site_type_symbol
  _atom_site_label
  _atom_site_symmetry_multiplicity
  _atom_site_fract_x
  _atom_site_fract_y
  _atom_site_fract_z
  _atom_site_occupancy
  Ba  Ba1       1.0  0.00000  0.00000  0.00000  1.0000
  F   F1        1.0  0.56400  0.27500  0.14400  1.0000
  F   F2        1.0  0.14400  0.56400  0.27500  1.0000
  F   F3        1.0  0.72500  0.85600  0.43600  1.0000
  F   F4        1.0  0.27500  0.14400  0.56400  1.0000
  F   F5        1.0  0.85600  0.43600  0.72500  1.0000
  F   F6        1.0  0.43600  0.72500  0.85600  1.0000
  Sn  Sn1       1.0  0.50000  0.50000  0.50000  1.0000
