# generated using pymatgen
data_Al2O3
_symmetry_space_group_name_H-M   'P 1'
_cell_length_a   5.65743679
_cell_length_b   5.65743679
_cell_length_c   12.42105811
_cell_angle_alpha   77.60717677
_cell_angle_beta   77.60717677
_cell_angle_gamma   89.94762273
_symmetry_Int_Tables_number   1
_chemical_formula_structural   Al2O3
_chemical_formula_sum   'Al16 O24'
_cell_volume   378.81989904
_cell_formula_units_Z   8
loop_
 _symmetry_equiv_pos_site_id
 _symmetry_equiv_pos_as_xyz
  1  'x, y, z'
loop_
 _atom_site_type_symbol
 _atom_site_label
 _atom_site_symmetry_multiplicity
 _atom_site_fract_x
 _atom_site_fract_y
 _atom_site_fract_z
 _atom_site_occupancy
  Al  Al0  1  0.87396200  0.12603800  0.75000000  1
  Al  Al1  1  0.67717500  0.65296200  0.65807600  1
  Al  Al2  1  0.16904600  0.65225000  0.65991800  1
  Al  Al3  1  0.53670700  0.80754800  0.41792500  1
  Al  Al4  1  0.46329300  0.19245200  0.58207500  1
  Al  Al5  1  0.00000000  0.00000000  0.50000000  1
  Al  Al6  1  0.32282500  0.34703800  0.34192400  1
  Al  Al7  1  0.83095400  0.34775000  0.34008200  1
  Al  Al8  1  0.19245200  0.46329300  0.08207500  1
  Al  Al9  1  0.12603800  0.87396200  0.25000000  1
  Al  Al10  1  0.65296200  0.67717500  0.15807600  1
  Al  Al11  1  0.00000000  0.00000000  0.00000000  1
  Al  Al12  1  0.65225000  0.16904600  0.15991800  1
  Al  Al13  1  0.80754800  0.53670700  0.91792500  1
  Al  Al14  1  0.34703800  0.32282500  0.84192400  1
  Al  Al15  1  0.34775000  0.83095400  0.84008200  1
  O  O16  1  0.41790600  0.42366400  0.66911800  1
  O  O17  1  0.91428400  0.43207100  0.67654200  1
  O  O18  1  0.41515800  0.88568200  0.67507900  1
  O  O19  1  0.24216500  0.76668400  0.50515600  1
  O  O20  1  0.92101200  0.89826900  0.66360500  1
  O  O21  1  0.24964000  0.23191500  0.49541900  1
  O  O22  1  0.75036000  0.76808500  0.50458100  1
  O  O23  1  0.07898800  0.10173100  0.33639500  1
  O  O24  1  0.75783500  0.23331600  0.49484400  1
  O  O25  1  0.58484200  0.11431800  0.32492100  1
  O  O26  1  0.08571600  0.56792900  0.32345800  1
  O  O27  1  0.88568200  0.41515800  0.17507900  1
  O  O28  1  0.58209400  0.57633600  0.33088200  1
  O  O29  1  0.89826900  0.92101200  0.16360500  1
  O  O30  1  0.42366400  0.41790600  0.16911800  1
  O  O31  1  0.76808500  0.75036000  0.00458100  1
  O  O32  1  0.43207100  0.91428400  0.17654200  1
  O  O33  1  0.23331600  0.75783500  0.99484400  1
  O  O34  1  0.76668400  0.24216500  0.00515600  1
  O  O35  1  0.56792900  0.08571600  0.82345800  1
  O  O36  1  0.23191500  0.24964000  0.99541900  1
  O  O37  1  0.57633600  0.58209400  0.83088200  1
  O  O38  1  0.10173100  0.07898800  0.83639500  1
  O  O39  1  0.11431800  0.58484200  0.82492100  1
