# generated using pymatgen
data_Nb(PO3)4
_symmetry_space_group_name_H-M   'P 1'
_cell_length_a   7.30202277
_cell_length_b   7.30202277
_cell_length_c   10.33792653
_cell_angle_alpha   65.97288492
_cell_angle_beta   65.97288492
_cell_angle_gamma   70.63112374
_symmetry_Int_Tables_number   1
_chemical_formula_structural   Nb(PO3)4
_chemical_formula_sum   'Nb2 P8 O24'
_cell_volume   450.64922193
_cell_formula_units_Z   2
loop_
 _symmetry_equiv_pos_site_id
 _symmetry_equiv_pos_as_xyz
  1  'x, y, z'
loop_
 _atom_site_type_symbol
 _atom_site_label
 _atom_site_symmetry_multiplicity
 _atom_site_fract_x
 _atom_site_fract_y
 _atom_site_fract_z
 _atom_site_occupancy
  Nb  Nb0  1  0.94101500  0.05898500  0.75000000  1
  Nb  Nb1  1  0.05898500  0.94101500  0.25000000  1
  P  P2  1  0.74499600  0.27399700  0.02125300  1
  P  P3  1  0.71238900  0.68659900  0.80149100  1
  P  P4  1  0.31340100  0.28761100  0.69850900  1
  P  P5  1  0.27399700  0.74499600  0.52125300  1
  P  P6  1  0.25500400  0.72600300  0.97874700  1
  P  P7  1  0.28761100  0.31340100  0.19850900  1
  P  P8  1  0.68659900  0.71238900  0.30149100  1
  P  P9  1  0.72600300  0.25500400  0.47874700  1
  O  O10  1  0.09239600  0.84138300  0.90518900  1
  O  O11  1  0.26967800  0.79850000  0.09109900  1
  O  O12  1  0.90760400  0.15861700  0.09481100  1
  O  O13  1  0.77705000  0.50576500  0.94144700  1
  O  O14  1  0.74894800  0.87440800  0.81377700  1
  O  O15  1  0.64865200  0.80977300  0.15759400  1
  O  O16  1  0.19022700  0.35134800  0.34240600  1
  O  O17  1  0.15861700  0.90760400  0.59481100  1
  O  O18  1  0.79850000  0.26967800  0.59109900  1
  O  O19  1  0.87440800  0.74894800  0.31377700  1
  O  O20  1  0.20150000  0.73032200  0.40890100  1
  O  O21  1  0.80977300  0.64865200  0.65759400  1
  O  O22  1  0.29413400  0.53146900  0.64943900  1
  O  O23  1  0.50576500  0.77705000  0.44144700  1
  O  O24  1  0.49423500  0.22295000  0.55855300  1
  O  O25  1  0.25105200  0.12559200  0.18622300  1
  O  O26  1  0.73032200  0.20150000  0.90890100  1
  O  O27  1  0.70586600  0.46853100  0.35056100  1
  O  O28  1  0.12559200  0.25105200  0.68622300  1
  O  O29  1  0.35134800  0.19022700  0.84240600  1
  O  O30  1  0.84138300  0.09239600  0.40518900  1
  O  O31  1  0.22295000  0.49423500  0.05855300  1
  O  O32  1  0.46853100  0.70586600  0.85056100  1
  O  O33  1  0.53146900  0.29413400  0.14943900  1
