# generated using pymatgen
data_CaCO3
_symmetry_space_group_name_H-M   'P 1'
_cell_length_a   4.34325300
_cell_length_b   4.96119100
_cell_length_c   5.14067800
_cell_angle_alpha   90.00000000
_cell_angle_beta   90.00000000
_cell_angle_gamma   90.00000000
_symmetry_Int_Tables_number   1
_chemical_formula_structural   CaCO3
_chemical_formula_sum   'Ca2 C2 O6'
_cell_volume   110.76982689
_cell_formula_units_Z   2
loop_
 _symmetry_equiv_pos_site_id
 _symmetry_equiv_pos_as_xyz
  1  'x, y, z'
loop_
 _atom_site_type_symbol
 _atom_site_label
 _atom_site_symmetry_multiplicity
 _atom_site_fract_x
 _atom_site_fract_y
 _atom_site_fract_z
 _atom_site_occupancy
  Ca  Ca0  1  0.60752500  0.50000000  0.00000000  1
  Ca  Ca1  1  0.39247500  0.00000000  0.50000000  1
  C  C2  1  0.98984400  0.00000000  0.00000000  1
  C  C3  1  0.01015600  0.50000000  0.50000000  1
  O  O4  1  0.13030800  0.22897100  0.00000000  1
  O  O5  1  0.13030800  0.77102900  0.00000000  1
  O  O6  1  0.31230700  0.50000000  0.50000000  1
  O  O7  1  0.68769300  0.00000000  0.00000000  1
  O  O8  1  0.86969200  0.27102900  0.50000000  1
  O  O9  1  0.86969200  0.72897100  0.50000000  1
