data_image0
_chemical_formula_structural       PaPb2Ta2
_chemical_formula_sum              "Pa1 Pb2 Ta2"
_cell_length_a       7.30303
_cell_length_b       7.30303
_cell_length_c       7.30303
_cell_angle_alpha    146.48
_cell_angle_beta     146.48
_cell_angle_gamma    48.1345

_space_group_name_H-M_alt    "P 1"
_space_group_IT_number       1

loop_
  _space_group_symop_operation_xyz
  'x, y, z'

loop_
  _atom_site_type_symbol
  _atom_site_label
  _atom_site_symmetry_multiplicity
  _atom_site_fract_x
  _atom_site_fract_y
  _atom_site_fract_z
  _atom_site_occupancy
  Pa  Pa1       1.0  0.00000  0.00000  0.00000  1.0000
  Pb  Pb1       1.0  0.39400  0.39400  0.00000  1.0000
  Pb  Pb2       1.0  0.60600  0.60600  0.00000  1.0000
  Ta  Ta1       1.0  0.75000  0.25000  0.50000  1.0000
  Ta  Ta2       1.0  0.25000  0.75000  0.50000  1.0000
