# generated using pymatgen
data_CoO2
_symmetry_space_group_name_H-M   'P 1'
_cell_length_a   2.81745300
_cell_length_b   4.94106581
_cell_length_c   4.83089991
_cell_angle_alpha   90.12399428
_cell_angle_beta   89.99976023
_cell_angle_gamma   89.99846204
_symmetry_Int_Tables_number   1
_chemical_formula_structural   CoO2
_chemical_formula_sum   'Co2 O4'
_cell_volume   67.25186628
_cell_formula_units_Z   2
loop_
 _symmetry_equiv_pos_site_id
 _symmetry_equiv_pos_as_xyz
  1  'x, y, z'
loop_
 _atom_site_type_symbol
 _atom_site_label
 _atom_site_symmetry_multiplicity
 _atom_site_fract_x
 _atom_site_fract_y
 _atom_site_fract_z
 _atom_site_occupancy
  Co  Co0  1  0.50000000  0.50000200  0.99999600  1
  Co  Co1  1  0.00000000  0.00000000  0.99999700  1
  O  O2  1  0.49999400  0.16741000  0.80565500  1
  O  O3  1  0.00000100  0.66739700  0.80563800  1
  O  O4  1  0.00000000  0.33260300  0.19436400  1
  O  O5  1  0.50000600  0.83258900  0.19435200  1
