# generated using pymatgen
data_MoCl4
_symmetry_space_group_name_H-M   'P 1'
_cell_length_a   11.14464700
_cell_length_b   6.39706300
_cell_length_c   13.52836337
_cell_angle_alpha   62.22578398
_cell_angle_beta   90.00000000
_cell_angle_gamma   90.00000000
_symmetry_Int_Tables_number   1
_chemical_formula_structural   MoCl4
_chemical_formula_sum   'Mo6 Cl24'
_cell_volume   853.36099129
_cell_formula_units_Z   6
loop_
 _symmetry_equiv_pos_site_id
 _symmetry_equiv_pos_as_xyz
  1  'x, y, z'
loop_
 _atom_site_type_symbol
 _atom_site_label
 _atom_site_symmetry_multiplicity
 _atom_site_fract_x
 _atom_site_fract_y
 _atom_site_fract_z
 _atom_site_occupancy
  Mo  Mo0  1  0.74634700  0.00000000  0.75000000  1
  Mo  Mo1  1  0.40445600  0.00000000  0.75000000  1
  Mo  Mo2  1  0.25365300  0.00000000  0.25000000  1
  Mo  Mo3  1  0.59554400  0.00000000  0.25000000  1
  Mo  Mo4  1  0.92162200  0.50000000  0.75000000  1
  Mo  Mo5  1  0.07837800  0.50000000  0.25000000  1
  Cl  Cl6  1  0.43079100  0.39842000  0.64562500  1
  Cl  Cl7  1  0.27002500  0.03070000  0.86815900  1
  Cl  Cl8  1  0.58587400  0.02013800  0.86611700  1
  Cl  Cl9  1  0.58587400  0.97986200  0.63388300  1
  Cl  Cl10  1  0.89911700  0.93282100  0.63468200  1
  Cl  Cl11  1  0.56920900  0.39842000  0.14562500  1
  Cl  Cl12  1  0.27002500  0.96930000  0.63184100  1
  Cl  Cl13  1  0.75824800  0.56767000  0.85894600  1
  Cl  Cl14  1  0.72997500  0.03070000  0.36815900  1
  Cl  Cl15  1  0.43079100  0.60158000  0.85437500  1
  Cl  Cl16  1  0.41412600  0.02013800  0.36611700  1
  Cl  Cl17  1  0.05821400  0.52494000  0.86844000  1
  Cl  Cl18  1  0.41412600  0.97986200  0.13388300  1
  Cl  Cl19  1  0.05821400  0.47506000  0.63156000  1
  Cl  Cl20  1  0.10088300  0.93282100  0.13468200  1
  Cl  Cl21  1  0.72997500  0.96930000  0.13184100  1
  Cl  Cl22  1  0.75824800  0.43233000  0.64105400  1
  Cl  Cl23  1  0.24175200  0.56767000  0.35894600  1
  Cl  Cl24  1  0.89911700  0.06717900  0.86531800  1
  Cl  Cl25  1  0.56920900  0.60158000  0.35437500  1
  Cl  Cl26  1  0.94178600  0.52494000  0.36844000  1
  Cl  Cl27  1  0.94178600  0.47506000  0.13156000  1
  Cl  Cl28  1  0.24175200  0.43233000  0.14105400  1
  Cl  Cl29  1  0.10088300  0.06717900  0.36531800  1
