# generated using pymatgen
data_Dy2S3
_symmetry_space_group_name_H-M   'P 1'
_cell_length_a   13.77126274
_cell_length_b   13.77126274
_cell_length_c   13.77126274
_cell_angle_alpha   144.81900589
_cell_angle_beta   144.81900589
_cell_angle_gamma   50.60432883
_symmetry_Int_Tables_number   1
_chemical_formula_structural   Dy2S3
_chemical_formula_sum   'Dy16 S24'
_cell_volume   862.59002037
_cell_formula_units_Z   8
loop_
 _symmetry_equiv_pos_site_id
 _symmetry_equiv_pos_as_xyz
  1  'x, y, z'
loop_
 _atom_site_type_symbol
 _atom_site_label
 _atom_site_symmetry_multiplicity
 _atom_site_fract_x
 _atom_site_fract_y
 _atom_site_fract_z
 _atom_site_occupancy
  Dy  Dy0  1  0.20155000  0.32246600  0.60163900  1
  Dy  Dy1  1  0.41544800  0.91544800  0.50000000  1
  Dy  Dy2  1  0.99378100  0.62500000  0.86878100  1
  Dy  Dy3  1  0.02917300  0.92753400  0.37908400  1
  Dy  Dy4  1  0.33455200  0.33455200  0.00000000  1
  Dy  Dy5  1  0.75621900  0.12500000  0.13121900  1
  Dy  Dy6  1  0.54845000  0.65008900  0.62091600  1
  Dy  Dy7  1  0.34991100  0.97082700  0.89836100  1
  Dy  Dy8  1  0.37500000  0.24378100  0.36878100  1
  Dy  Dy9  1  0.66544800  0.66544800  0.00000000  1
  Dy  Dy10  1  0.87500000  0.00621900  0.63121900  1
  Dy  Dy11  1  0.07246600  0.45155000  0.10163900  1
  Dy  Dy12  1  0.08455200  0.58455200  0.50000000  1
  Dy  Dy13  1  0.67753400  0.27917300  0.87908400  1
  Dy  Dy14  1  0.72082700  0.59991100  0.39836100  1
  Dy  Dy15  1  0.40008900  0.79845000  0.12091600  1
  S  S16  1  0.50071200  0.25439200  0.88663900  1
  S  S17  1  0.71033900  0.82352800  0.74564900  1
  S  S18  1  0.36775300  0.61407300  0.11336100  1
  S  S19  1  0.24928800  0.63592700  0.25368000  1
  S  S20  1  0.38224700  0.99560800  0.74632000  1
  S  S21  1  0.67212200  0.42647200  0.38681200  1
  S  S22  1  0.07787800  0.96469000  0.25435100  1
  S  S23  1  0.84617600  0.59335000  0.90501000  1
  S  S24  1  0.03966100  0.28531000  0.61318800  1
  S  S25  1  0.05883400  0.15382400  0.74717400  1
  S  S26  1  0.68834000  0.94116600  0.09499000  1
  S  S27  1  0.57352800  0.96033900  0.24564900  1
  S  S28  1  0.71469000  0.32787800  0.75435100  1
  S  S29  1  0.00439200  0.75071200  0.38663900  1
  S  S30  1  0.40665000  0.31166000  0.25282600  1
  S  S31  1  0.17647200  0.92212200  0.88681200  1
  S  S32  1  0.36407300  0.61775300  0.61336100  1
  S  S33  1  0.38592700  0.49928800  0.75368000  1
  S  S34  1  0.03531000  0.28966100  0.11318800  1
  S  S35  1  0.90382400  0.30883400  0.24717400  1
  S  S36  1  0.06166000  0.65665000  0.75282600  1
  S  S37  1  0.74560800  0.63224700  0.24632000  1
  S  S38  1  0.34335000  0.09617600  0.40501000  1
  S  S39  1  0.69116600  0.93834000  0.59499000  1
