# generated using pymatgen
data_H11O8
_symmetry_space_group_name_H-M   'P 1'
_cell_length_a   4.38721000
_cell_length_b   4.48885481
_cell_length_c   11.41098734
_cell_angle_alpha   85.82926186
_cell_angle_beta   86.48108070
_cell_angle_gamma   66.84676363
_symmetry_Int_Tables_number   1
_chemical_formula_structural   H11O8
_chemical_formula_sum   'H11 O8'
_cell_volume   205.94397924
_cell_formula_units_Z   1
loop_
 _symmetry_equiv_pos_site_id
 _symmetry_equiv_pos_as_xyz
  1  'x, y, z'
loop_
 _atom_site_type_symbol
 _atom_site_label
 _atom_site_symmetry_multiplicity
 _atom_site_fract_x
 _atom_site_fract_y
 _atom_site_fract_z
 _atom_site_occupancy
  H  H0  1  0.47905100  0.48412500  0.29382700  1
  H  H1  1  0.57668800  0.53079700  0.48760200  1
  H  H2  1  0.56883700  0.55418400  0.00366700  1
  H  H3  1  0.91059600  0.58001200  0.81847300  1
  H  H4  1  0.16336100  0.43028600  0.49840300  1
  H  H5  1  0.13022700  0.44732100  0.01390700  1
  H  H6  1  0.32517100  0.34613000  0.69855600  1
  H  H7  1  0.33423800  0.33149800  0.20417200  1
  H  H8  1  0.48579300  0.11010900  0.50180900  1
  H  H9  1  0.45943500  0.12034900  0.01182500  1
  H  H10  1  0.42352300  0.50845200  0.80278500  1
  O  O11  1  0.72037600  0.70775000  0.34349200  1
  O  O12  1  0.66557600  0.69664500  0.84629700  1
  O  O13  1  0.70900100  0.67580900  0.46396700  1
  O  O14  1  0.69643100  0.69382700  0.97433300  1
  O  O15  1  0.26867300  0.41075100  0.77992400  1
  O  O16  1  0.34584200  0.35196900  0.28919700  1
  O  O17  1  0.35652100  0.33824600  0.04488700  1
  O  O18  1  0.37966100  0.32474100  0.53597900  1
