# generated using pymatgen
data_Pr5Cl12
_symmetry_space_group_name_H-M   'P 1'
_cell_length_a   8.18542303
_cell_length_b   8.18542303
_cell_length_c   23.35209300
_cell_angle_alpha   90.00000000
_cell_angle_beta   90.00000000
_cell_angle_gamma   119.99999213
_symmetry_Int_Tables_number   1
_chemical_formula_structural   Pr5Cl12
_chemical_formula_sum   'Pr15 Cl36'
_cell_volume   1354.99825338
_cell_formula_units_Z   3
loop_
 _symmetry_equiv_pos_site_id
 _symmetry_equiv_pos_as_xyz
  1  'x, y, z'
loop_
 _atom_site_type_symbol
 _atom_site_label
 _atom_site_symmetry_multiplicity
 _atom_site_fract_x
 _atom_site_fract_y
 _atom_site_fract_z
 _atom_site_occupancy
  Pr  Pr0  1  0.33333300  0.66666700  0.78737600  1
  Pr  Pr1  1  0.33333300  0.66666700  0.95629600  1
  Pr  Pr2  1  0.33333300  0.66666700  0.12723700  1
  Pr  Pr3  1  0.33333300  0.66666700  0.29495700  1
  Pr  Pr4  1  0.33333300  0.66666700  0.46196400  1
  Pr  Pr5  1  0.00000000  0.00000000  0.35151000  1
  Pr  Pr6  1  0.33333300  0.66666700  0.62289500  1
  Pr  Pr7  1  0.00000000  0.00000000  0.50000000  1
  Pr  Pr8  1  0.00000000  0.00000000  0.64849000  1
  Pr  Pr9  1  0.66666700  0.33333300  0.87276300  1
  Pr  Pr10  1  0.66666700  0.33333300  0.04370400  1
  Pr  Pr11  1  0.66666700  0.33333300  0.21262400  1
  Pr  Pr12  1  0.66666700  0.33333300  0.37710500  1
  Pr  Pr13  1  0.66666700  0.33333300  0.53803600  1
  Pr  Pr14  1  0.66666700  0.33333300  0.70504300  1
  Cl  Cl15  1  0.30274300  0.90201300  0.87172200  1
  Cl  Cl16  1  0.30307700  0.89850500  0.04245300  1
  Cl  Cl17  1  0.31362100  0.91117400  0.21327700  1
  Cl  Cl18  1  0.30651300  0.92056800  0.37766500  1
  Cl  Cl19  1  0.30378600  0.92528900  0.54051700  1
  Cl  Cl20  1  0.28685800  0.91710800  0.70239500  1
  Cl  Cl21  1  0.09798700  0.40073000  0.87172200  1
  Cl  Cl22  1  0.10149500  0.40457200  0.04245300  1
  Cl  Cl23  1  0.08882600  0.40244800  0.21327700  1
  Cl  Cl24  1  0.07943200  0.38594500  0.37766500  1
  Cl  Cl25  1  0.07471100  0.37849700  0.54051700  1
  Cl  Cl26  1  0.08289200  0.36975000  0.70239500  1
  Cl  Cl27  1  0.40244800  0.31362100  0.78672300  1
  Cl  Cl28  1  0.40457200  0.30307700  0.95754700  1
  Cl  Cl29  1  0.40073000  0.30274300  0.12827800  1
  Cl  Cl30  1  0.36975000  0.28685800  0.29760500  1
  Cl  Cl31  1  0.37849700  0.30378600  0.45948300  1
  Cl  Cl32  1  0.38594500  0.30651300  0.62233500  1
  Cl  Cl33  1  0.59927000  0.69725700  0.87172200  1
  Cl  Cl34  1  0.59542800  0.69692300  0.04245300  1
  Cl  Cl35  1  0.59755200  0.68637900  0.21327700  1
  Cl  Cl36  1  0.61405500  0.69348700  0.37766500  1
  Cl  Cl37  1  0.62150300  0.69621400  0.54051700  1
  Cl  Cl38  1  0.63025000  0.71314200  0.70239500  1
  Cl  Cl39  1  0.91117400  0.59755200  0.78672300  1
  Cl  Cl40  1  0.89850500  0.59542800  0.95754700  1
  Cl  Cl41  1  0.90201300  0.59927000  0.12827800  1
  Cl  Cl42  1  0.91710800  0.63025000  0.29760500  1
  Cl  Cl43  1  0.92528900  0.62150300  0.45948300  1
  Cl  Cl44  1  0.92056800  0.61405500  0.62233500  1
  Cl  Cl45  1  0.68637900  0.08882600  0.78672300  1
  Cl  Cl46  1  0.69692300  0.10149500  0.95754700  1
  Cl  Cl47  1  0.69725700  0.09798700  0.12827800  1
  Cl  Cl48  1  0.71314200  0.08289200  0.29760500  1
  Cl  Cl49  1  0.69621400  0.07471100  0.45948300  1
  Cl  Cl50  1  0.69348700  0.07943200  0.62233500  1
