# generated using pymatgen
data_Tm2S3
_symmetry_space_group_name_H-M   'P 1'
_cell_length_a   13.61010067
_cell_length_b   13.61010067
_cell_length_c   13.61010067
_cell_angle_alpha   144.82025059
_cell_angle_beta   144.82025059
_cell_angle_gamma   50.60247281
_symmetry_Int_Tables_number   1
_chemical_formula_structural   Tm2S3
_chemical_formula_sum   'Tm16 S24'
_cell_volume   832.60826004
_cell_formula_units_Z   8
loop_
 _symmetry_equiv_pos_site_id
 _symmetry_equiv_pos_as_xyz
  1  'x, y, z'
loop_
 _atom_site_type_symbol
 _atom_site_label
 _atom_site_symmetry_multiplicity
 _atom_site_fract_x
 _atom_site_fract_y
 _atom_site_fract_z
 _atom_site_occupancy
  Tm  Tm0  1  0.85082000  0.95084700  0.37865300  1
  Tm  Tm1  1  0.57219400  0.47216800  0.62134700  1
  Tm  Tm2  1  0.16483800  0.16483800  0.00000000  1
  Tm  Tm3  1  0.87500000  0.50803700  0.13303700  1
  Tm  Tm4  1  0.58516200  0.08516200  0.50000000  1
  Tm  Tm5  1  0.17780600  0.29915300  0.39997300  1
  Tm  Tm6  1  0.37500000  0.74196300  0.86696300  1
  Tm  Tm7  1  0.89918000  0.77783200  0.60002700  1
  Tm  Tm8  1  0.22216800  0.82219400  0.12134700  1
  Tm  Tm9  1  0.49196300  0.62500000  0.36696300  1
  Tm  Tm10  1  0.91483800  0.41483800  0.50000000  1
  Tm  Tm11  1  0.70084700  0.10082000  0.87865300  1
  Tm  Tm12  1  0.25803700  0.12500000  0.63303700  1
  Tm  Tm13  1  0.83516200  0.83516200  0.00000000  1
  Tm  Tm14  1  0.52783200  0.14918000  0.10002700  1
  Tm  Tm15  1  0.04915300  0.42780600  0.89997300  1
  S  S16  1  0.07426600  0.82805700  0.61524900  1
  S  S17  1  0.86638600  0.24859800  0.74560600  1
  S  S18  1  0.88361400  0.12922000  0.88221200  1
  S  S19  1  0.50299200  0.12078000  0.25439400  1
  S  S20  1  0.24700800  0.00140200  0.11778800  1
  S  S21  1  0.67573400  0.79098300  0.25379100  1
  S  S22  1  0.21280800  0.45901700  0.38475100  1
  S  S23  1  0.53719200  0.42194300  0.74620900  1
  S  S24  1  0.40380600  0.15814300  0.59725700  1
  S  S25  1  0.19345200  0.59619400  0.75433700  1
  S  S26  1  0.84185700  0.43911500  0.24566300  1
  S  S27  1  0.20901700  0.46280800  0.88475100  1
  S  S28  1  0.57805700  0.32426600  0.11524900  1
  S  S29  1  0.99859800  0.11638600  0.24560600  1
  S  S30  1  0.56088500  0.80654800  0.40274300  1
  S  S31  1  0.87078000  0.75299200  0.75439400  1
  S  S32  1  0.75140200  0.49700800  0.61778800  1
  S  S33  1  0.54098300  0.92573400  0.75379100  1
  S  S34  1  0.17194300  0.78719200  0.24620900  1
  S  S35  1  0.55654800  0.81088500  0.90274300  1
  S  S36  1  0.90814300  0.65380600  0.09725700  1
  S  S37  1  0.34619400  0.44345200  0.25433700  1
  S  S38  1  0.87922000  0.13361400  0.38221200  1
  S  S39  1  0.18911500  0.09185700  0.74566300  1
