# generated using pymatgen
data_Tb5AgS8
_symmetry_space_group_name_H-M   'P 1'
_cell_length_a   7.24185540
_cell_length_b   7.24185540
_cell_length_c   7.24185540
_cell_angle_alpha   109.63077641
_cell_angle_beta   109.63077641
_cell_angle_gamma   109.15257820
_symmetry_Int_Tables_number   1
_chemical_formula_structural   Tb5AgS8
_chemical_formula_sum   'Tb5 Ag1 S8'
_cell_volume   292.35975435
_cell_formula_units_Z   1
loop_
 _symmetry_equiv_pos_site_id
 _symmetry_equiv_pos_as_xyz
  1  'x, y, z'
loop_
 _atom_site_type_symbol
 _atom_site_label
 _atom_site_symmetry_multiplicity
 _atom_site_fract_x
 _atom_site_fract_y
 _atom_site_fract_z
 _atom_site_occupancy
  Tb  Tb0  1  0.37867200  0.76465800  0.88111800  1
  Tb  Tb1  1  0.50244700  0.62132800  0.38598600  1
  Tb  Tb2  1  0.88354000  0.49755300  0.11888200  1
  Tb  Tb3  1  0.75000000  0.25000000  0.50000000  1
  Tb  Tb4  1  0.23534200  0.11646000  0.61401400  1
  Ag  Ag5  1  0.00000000  0.00000000  0.00000000  1
  S  S6  1  0.27158900  0.87974100  0.25216600  1
  S  S7  1  0.75735400  0.86829800  0.25929900  1
  S  S8  1  0.13170200  0.39100100  0.88905600  1
  S  S9  1  0.98057700  0.72841100  0.60815200  1
  S  S10  1  0.12025900  0.37242500  0.39184800  1
  S  S11  1  0.60899900  0.49805400  0.74070100  1
  S  S12  1  0.50194600  0.24264600  0.11094400  1
  S  S13  1  0.62757500  0.01942300  0.74783400  1
