data_image0
_chemical_formula_structural       O6Sr2TaV
_chemical_formula_sum              "O6 Sr2 Ta1 V1"
_cell_length_a       5.61015
_cell_length_b       5.61691
_cell_length_c       5.63214
_cell_angle_alpha    119.378
_cell_angle_beta     90.5028
_cell_angle_gamma    119.913

_space_group_name_H-M_alt    "P 1"
_space_group_IT_number       1

loop_
  _space_group_symop_operation_xyz
  'x, y, z'

loop_
  _atom_site_type_symbol
  _atom_site_label
  _atom_site_symmetry_multiplicity
  _atom_site_fract_x
  _atom_site_fract_y
  _atom_site_fract_z
  _atom_site_occupancy
  O   O1        1.0  0.22700  0.50600  0.22400  1.0000
  O   O2        1.0  0.72100  0.00585  0.22700  1.0000
  O   O3        1.0  0.24900  0.05180  0.30500  1.0000
  O   O4        1.0  0.75100  0.94800  0.69500  1.0000
  O   O5        1.0  0.27900  0.99400  0.77300  1.0000
  O   O6        1.0  0.77300  0.49400  0.77600  1.0000
  Sr  Sr1       1.0  0.74900  0.49600  0.24500  1.0000
  Sr  Sr2       1.0  0.25100  0.50400  0.75500  1.0000
  Ta  Ta1       1.0  0.50000  0.00000  0.50000  1.0000
  V   V1        1.0  0.00000  0.00000  0.00000  1.0000
