# generated using pymatgen
data_SF4
_symmetry_space_group_name_H-M   'P 1'
_cell_length_a   4.93703645
_cell_length_b   4.93703645
_cell_length_c   4.93703645
_cell_angle_alpha   117.98537033
_cell_angle_beta   117.98537033
_cell_angle_gamma   93.52636331
_symmetry_Int_Tables_number   1
_chemical_formula_structural   SF4
_chemical_formula_sum   'S1 F4'
_cell_volume   87.50291596
_cell_formula_units_Z   1
loop_
 _symmetry_equiv_pos_site_id
 _symmetry_equiv_pos_as_xyz
  1  'x, y, z'
loop_
 _atom_site_type_symbol
 _atom_site_label
 _atom_site_symmetry_multiplicity
 _atom_site_fract_x
 _atom_site_fract_y
 _atom_site_fract_z
 _atom_site_occupancy
  S  S0  1  0.00000000  0.00000000  0.00000000  1
  F  F1  1  0.67955300  0.67955300  0.55469700  1
  F  F2  1  0.87514300  0.32044700  0.00000000  1
  F  F3  1  0.32044700  0.87514300  0.00000000  1
  F  F4  1  0.12485700  0.12485700  0.44530300  1
