data_image0
_chemical_formula_structural       AsAu2Si2
_chemical_formula_sum              "As1 Au2 Si2"
_cell_length_a       6.48381
_cell_length_b       6.48381
_cell_length_c       6.48381
_cell_angle_alpha    144.089
_cell_angle_beta     144.089
_cell_angle_gamma    51.6945

_space_group_name_H-M_alt    "P 1"
_space_group_IT_number       1

loop_
  _space_group_symop_operation_xyz
  'x, y, z'

loop_
  _atom_site_type_symbol
  _atom_site_label
  _atom_site_symmetry_multiplicity
  _atom_site_fract_x
  _atom_site_fract_y
  _atom_site_fract_z
  _atom_site_occupancy
  As  As1       1.0  0.00000  0.00000  0.00000  1.0000
  Au  Au1       1.0  0.38500  0.38500  0.00000  1.0000
  Au  Au2       1.0  0.61500  0.61500  0.00000  1.0000
  Si  Si1       1.0  0.75000  0.25000  0.50000  1.0000
  Si  Si2       1.0  0.25000  0.75000  0.50000  1.0000
