# generated using pymatgen
data_BaCeO3
_symmetry_space_group_name_H-M   'P 1'
_cell_length_a   6.27870136
_cell_length_b   6.27870136
_cell_length_c   6.27870136
_cell_angle_alpha   120.05420989
_cell_angle_beta   119.53397785
_cell_angle_gamma   90.35759819
_symmetry_Int_Tables_number   1
_chemical_formula_structural   BaCeO3
_chemical_formula_sum   'Ba2 Ce2 O6'
_cell_volume   175.55926779
_cell_formula_units_Z   2
loop_
 _symmetry_equiv_pos_site_id
 _symmetry_equiv_pos_as_xyz
  1  'x, y, z'
loop_
 _atom_site_type_symbol
 _atom_site_label
 _atom_site_symmetry_multiplicity
 _atom_site_fract_x
 _atom_site_fract_y
 _atom_site_fract_z
 _atom_site_occupancy
  Ba  Ba0  1  0.73975900  0.75000000  0.98975900  1
  Ba  Ba1  1  0.26024100  0.25000000  0.01024100  1
  Ce  Ce2  1  0.00000000  0.50000000  0.50000000  1
  Ce  Ce3  1  0.50000000  0.00000000  0.50000000  1
  O  O4  1  0.29575600  0.79575600  0.00000000  1
  O  O5  1  0.70424400  0.70424400  0.50000000  1
  O  O6  1  0.70424400  0.20424400  0.00000000  1
  O  O7  1  0.29575600  0.29575600  0.50000000  1
  O  O8  1  0.83105200  0.25000000  0.58105200  1
  O  O9  1  0.16894800  0.75000000  0.41894800  1
