data_image0
_chemical_formula_structural       Co2N2O2Re2
_chemical_formula_sum              "Co2 N2 O2 Re2"
_cell_length_a       2.76123
_cell_length_b       5.38599
_cell_length_c       5.68253
_cell_angle_alpha    90
_cell_angle_beta     90
_cell_angle_gamma    90

_space_group_name_H-M_alt    "P 1"
_space_group_IT_number       1

loop_
  _space_group_symop_operation_xyz
  'x, y, z'

loop_
  _atom_site_type_symbol
  _atom_site_label
  _atom_site_symmetry_multiplicity
  _atom_site_fract_x
  _atom_site_fract_y
  _atom_site_fract_z
  _atom_site_occupancy
  Co  Co1       1.0  0.50000  0.05680  0.21900  1.0000
  Co  Co2       1.0  0.50000  0.55700  0.78100  1.0000
  N   N1        1.0  0.00000  0.82200  0.31500  1.0000
  N   N2        1.0  0.00000  0.32200  0.68500  1.0000
  O   O1        1.0  0.50000  0.40500  0.11200  1.0000
  O   O2        1.0  0.50000  0.90500  0.88800  1.0000
  Re  Re1       1.0  0.00000  0.47000  0.37300  1.0000
  Re  Re2       1.0  0.00000  0.97000  0.62700  1.0000
