# generated using pymatgen
data_W2C
_symmetry_space_group_name_H-M   'P 1'
_cell_length_a   3.03365500
_cell_length_b   4.74019500
_cell_length_c   5.29584800
_cell_angle_alpha   90.00000000
_cell_angle_beta   90.00000000
_cell_angle_gamma   90.00000000
_symmetry_Int_Tables_number   1
_chemical_formula_structural   W2C
_chemical_formula_sum   'W4 C2'
_cell_volume   76.15490995
_cell_formula_units_Z   2
loop_
 _symmetry_equiv_pos_site_id
 _symmetry_equiv_pos_as_xyz
  1  'x, y, z'
loop_
 _atom_site_type_symbol
 _atom_site_label
 _atom_site_symmetry_multiplicity
 _atom_site_fract_x
 _atom_site_fract_y
 _atom_site_fract_z
 _atom_site_occupancy
  W  W0  1  0.50000000  0.25735000  0.16001400  1
  W  W1  1  0.00000000  0.75735000  0.33998600  1
  W  W2  1  0.00000000  0.24265000  0.66001400  1
  W  W3  1  0.50000000  0.74265000  0.83998600  1
  C  C4  1  0.00000000  0.00000000  0.00000000  1
  C  C5  1  0.50000000  0.50000000  0.50000000  1
