data_image0
_chemical_formula_structural       Ir2O12Sr4Ta2
_chemical_formula_sum              "Ir2 O12 Sr4 Ta2"
_cell_length_a       5.63003
_cell_length_b       7.99848
_cell_length_c       5.63089
_cell_angle_alpha    90
_cell_angle_beta     90.085
_cell_angle_gamma    90

_space_group_name_H-M_alt    "P 1"
_space_group_IT_number       1

loop_
  _space_group_symop_operation_xyz
  'x, y, z'

loop_
  _atom_site_type_symbol
  _atom_site_label
  _atom_site_symmetry_multiplicity
  _atom_site_fract_x
  _atom_site_fract_y
  _atom_site_fract_z
  _atom_site_occupancy
  Ir  Ir1       1.0  0.00000  0.00000  0.00000  1.0000
  Ir  Ir2       1.0  0.00000  0.50000  0.00000  1.0000
  O   O1        1.0  0.04010  0.25000  0.09250  1.0000
  O   O2        1.0  0.27800  0.53400  0.23200  1.0000
  O   O3        1.0  0.27800  0.96600  0.23200  1.0000
  O   O4        1.0  0.76700  0.52100  0.27800  1.0000
  O   O5        1.0  0.76700  0.97900  0.27800  1.0000
  O   O6        1.0  0.49600  0.25000  0.45000  1.0000
  O   O7        1.0  0.50400  0.75000  0.55000  1.0000
  O   O8        1.0  0.23300  0.02080  0.72200  1.0000
  O   O9        1.0  0.23300  0.47900  0.72200  1.0000
  O   O10       1.0  0.72200  0.03380  0.76800  1.0000
  O   O11       1.0  0.72200  0.46600  0.76800  1.0000
  O   O12       1.0  0.96000  0.75000  0.90700  1.0000
  Sr  Sr1       1.0  0.47500  0.25000  0.00243  1.0000
  Sr  Sr2       1.0  0.01360  0.75000  0.48500  1.0000
  Sr  Sr3       1.0  0.98600  0.25000  0.51500  1.0000
  Sr  Sr4       1.0  0.52500  0.75000  0.99800  1.0000
  Ta  Ta1       1.0  0.50000  0.00000  0.50000  1.0000
  Ta  Ta2       1.0  0.50000  0.50000  0.50000  1.0000
