data_image0
_chemical_formula_structural       B2BaOs2
_chemical_formula_sum              "B2 Ba1 Os2"
_cell_length_a       6.30708
_cell_length_b       6.30708
_cell_length_c       6.30708
_cell_angle_alpha    142.38
_cell_angle_beta     142.38
_cell_angle_gamma    54.2575

_space_group_name_H-M_alt    "P 1"
_space_group_IT_number       1

loop_
  _space_group_symop_operation_xyz
  'x, y, z'

loop_
  _atom_site_type_symbol
  _atom_site_label
  _atom_site_symmetry_multiplicity
  _atom_site_fract_x
  _atom_site_fract_y
  _atom_site_fract_z
  _atom_site_occupancy
  B   B1        1.0  0.30200  0.30200  0.00000  1.0000
  B   B2        1.0  0.69800  0.69800  0.00000  1.0000
  Ba  Ba1       1.0  0.00000  0.00000  0.00000  1.0000
  Os  Os1       1.0  0.75000  0.25000  0.50000  1.0000
  Os  Os2       1.0  0.25000  0.75000  0.50000  1.0000
