data_image0
_chemical_formula_structural       HfHg2Pb2
_chemical_formula_sum              "Hf1 Hg2 Pb2"
_cell_length_a       4.1
_cell_length_b       4.1
_cell_length_c       8.29656
_cell_angle_alpha    104.305
_cell_angle_beta     104.305
_cell_angle_gamma    90

_space_group_name_H-M_alt    "P 1"
_space_group_IT_number       1

loop_
  _space_group_symop_operation_xyz
  'x, y, z'

loop_
  _atom_site_type_symbol
  _atom_site_label
  _atom_site_symmetry_multiplicity
  _atom_site_fract_x
  _atom_site_fract_y
  _atom_site_fract_z
  _atom_site_occupancy
  Hf  Hf1       1.0  0.00000  0.00000  0.00000  1.0000
  Hg  Hg1       1.0  0.75000  0.25000  0.50000  1.0000
  Hg  Hg2       1.0  0.25000  0.75000  0.50000  1.0000
  Pb  Pb1       1.0  0.59500  0.59500  0.19100  1.0000
  Pb  Pb2       1.0  0.40500  0.40500  0.80900  1.0000
