data_image0
_chemical_formula_structural       Mo2Os2Tb
_chemical_formula_sum              "Mo2 Os2 Tb1"
_cell_length_a       6.08198
_cell_length_b       6.08198
_cell_length_c       6.08198
_cell_angle_alpha    138.577
_cell_angle_beta     138.577
_cell_angle_gamma    60.0211

_space_group_name_H-M_alt    "P 1"
_space_group_IT_number       1

loop_
  _space_group_symop_operation_xyz
  'x, y, z'

loop_
  _atom_site_type_symbol
  _atom_site_label
  _atom_site_symmetry_multiplicity
  _atom_site_fract_x
  _atom_site_fract_y
  _atom_site_fract_z
  _atom_site_occupancy
  Mo  Mo1       1.0  0.37600  0.37600  0.00000  1.0000
  Mo  Mo2       1.0  0.62400  0.62400  0.00000  1.0000
  Os  Os1       1.0  0.75000  0.25000  0.50000  1.0000
  Os  Os2       1.0  0.25000  0.75000  0.50000  1.0000
  Tb  Tb1       1.0  0.00000  0.00000  0.00000  1.0000
