data_image0
_chemical_formula_structural       BaCu2Rh2
_chemical_formula_sum              "Ba1 Cu2 Rh2"
_cell_length_a       6.1317
_cell_length_b       6.1317
_cell_length_c       6.1317
_cell_angle_alpha    139.588
_cell_angle_beta     139.588
_cell_angle_gamma    58.4799

_space_group_name_H-M_alt    "P 1"
_space_group_IT_number       1

loop_
  _space_group_symop_operation_xyz
  'x, y, z'

loop_
  _atom_site_type_symbol
  _atom_site_label
  _atom_site_symmetry_multiplicity
  _atom_site_fract_x
  _atom_site_fract_y
  _atom_site_fract_z
  _atom_site_occupancy
  Ba  Ba1       1.0  0.00000  0.00000  0.00000  1.0000
  Cu  Cu1       1.0  0.38100  0.38100  0.00000  1.0000
  Cu  Cu2       1.0  0.61900  0.61900  0.00000  1.0000
  Rh  Rh1       1.0  0.75000  0.25000  0.50000  1.0000
  Rh  Rh2       1.0  0.25000  0.75000  0.50000  1.0000
