data_image0
_chemical_formula_structural       Mn2PaPb2
_chemical_formula_sum              "Mn2 Pa1 Pb2"
_cell_length_a       6.21296
_cell_length_b       6.21296
_cell_length_c       6.21296
_cell_angle_alpha    138.41
_cell_angle_beta     138.41
_cell_angle_gamma    60.2751

_space_group_name_H-M_alt    "P 1"
_space_group_IT_number       1

loop_
  _space_group_symop_operation_xyz
  'x, y, z'

loop_
  _atom_site_type_symbol
  _atom_site_label
  _atom_site_symmetry_multiplicity
  _atom_site_fract_x
  _atom_site_fract_y
  _atom_site_fract_z
  _atom_site_occupancy
  Mn  Mn1       1.0  0.41300  0.41300  0.00000  1.0000
  Mn  Mn2       1.0  0.58700  0.58700  0.00000  1.0000
  Pa  Pa1       1.0  0.00000  0.00000  0.00000  1.0000
  Pb  Pb1       1.0  0.75000  0.25000  0.50000  1.0000
  Pb  Pb2       1.0  0.25000  0.75000  0.50000  1.0000
