data_image0
_chemical_formula_structural       Ag2BSi2
_chemical_formula_sum              "Ag2 B1 Si2"
_cell_length_a       6.3691
_cell_length_b       6.3691
_cell_length_c       6.3691
_cell_angle_alpha    144.803
_cell_angle_beta     144.803
_cell_angle_gamma    50.6278

_space_group_name_H-M_alt    "P 1"
_space_group_IT_number       1

loop_
  _space_group_symop_operation_xyz
  'x, y, z'

loop_
  _atom_site_type_symbol
  _atom_site_label
  _atom_site_symmetry_multiplicity
  _atom_site_fract_x
  _atom_site_fract_y
  _atom_site_fract_z
  _atom_site_occupancy
  Ag  Ag1       1.0  0.75000  0.25000  0.50000  1.0000
  Ag  Ag2       1.0  0.25000  0.75000  0.50000  1.0000
  B   B1        1.0  0.00000  0.00000  0.00000  1.0000
  Si  Si1       1.0  0.40300  0.40300  0.00000  1.0000
  Si  Si2       1.0  0.59700  0.59700  0.00000  1.0000
