data_image0
_chemical_formula_structural       Nb2Sc2Tb
_chemical_formula_sum              "Nb2 Sc2 Tb1"
_cell_length_a       7.18252
_cell_length_b       7.18252
_cell_length_c       7.18252
_cell_angle_alpha    145.471
_cell_angle_beta     145.471
_cell_angle_gamma    49.6339

_space_group_name_H-M_alt    "P 1"
_space_group_IT_number       1

loop_
  _space_group_symop_operation_xyz
  'x, y, z'

loop_
  _atom_site_type_symbol
  _atom_site_label
  _atom_site_symmetry_multiplicity
  _atom_site_fract_x
  _atom_site_fract_y
  _atom_site_fract_z
  _atom_site_occupancy
  Nb  Nb1       1.0  0.40800  0.40800  0.00000  1.0000
  Nb  Nb2       1.0  0.59200  0.59200  0.00000  1.0000
  Sc  Sc1       1.0  0.75000  0.25000  0.50000  1.0000
  Sc  Sc2       1.0  0.25000  0.75000  0.50000  1.0000
  Tb  Tb1       1.0  0.00000  0.00000  0.00000  1.0000
