data_image0
_chemical_formula_structural       AcSc2Sr2
_chemical_formula_sum              "Ac1 Sc2 Sr2"
_cell_length_a       7.78122
_cell_length_b       7.78122
_cell_length_c       7.78122
_cell_angle_alpha    140.3
_cell_angle_beta     140.3
_cell_angle_gamma    57.3978

_space_group_name_H-M_alt    "P 1"
_space_group_IT_number       1

loop_
  _space_group_symop_operation_xyz
  'x, y, z'

loop_
  _atom_site_type_symbol
  _atom_site_label
  _atom_site_symmetry_multiplicity
  _atom_site_fract_x
  _atom_site_fract_y
  _atom_site_fract_z
  _atom_site_occupancy
  Ac  Ac1       1.0  0.00000  0.00000  0.00000  1.0000
  Sc  Sc1       1.0  0.75000  0.25000  0.50000  1.0000
  Sc  Sc2       1.0  0.25000  0.75000  0.50000  1.0000
  Sr  Sr1       1.0  0.37900  0.37900  0.00000  1.0000
  Sr  Sr2       1.0  0.62100  0.62100  0.00000  1.0000
