data_image0
_chemical_formula_structural       F6NiSr
_chemical_formula_sum              "F6 Ni1 Sr1"
_cell_length_a       4.57237
_cell_length_b       4.57237
_cell_length_c       4.57237
_cell_angle_alpha    99.1084
_cell_angle_beta     99.1084
_cell_angle_gamma    99.1084

_space_group_name_H-M_alt    "P 1"
_space_group_IT_number       1

loop_
  _space_group_symop_operation_xyz
  'x, y, z'

loop_
  _atom_site_type_symbol
  _atom_site_label
  _atom_site_symmetry_multiplicity
  _atom_site_fract_x
  _atom_site_fract_y
  _atom_site_fract_z
  _atom_site_occupancy
  F   F1        1.0  0.71600  0.71600  0.07010  1.0000
  F   F2        1.0  0.93000  0.28400  0.28400  1.0000
  F   F3        1.0  0.28400  0.93000  0.28400  1.0000
  F   F4        1.0  0.71600  0.07010  0.71600  1.0000
  F   F5        1.0  0.07010  0.71600  0.71600  1.0000
  F   F6        1.0  0.28400  0.28400  0.93000  1.0000
  Ni  Ni1       1.0  0.00000  0.00000  0.00000  1.0000
  Sr  Sr1       1.0  0.50000  0.50000  0.50000  1.0000
