data_image0
_chemical_formula_structural       AcSc2Y2
_chemical_formula_sum              "Ac1 Sc2 Y2"
_cell_length_a       5.0371
_cell_length_b       5.0371
_cell_length_c       7.43297
_cell_angle_alpha    109.806
_cell_angle_beta     109.806
_cell_angle_gamma    90

_space_group_name_H-M_alt    "P 1"
_space_group_IT_number       1

loop_
  _space_group_symop_operation_xyz
  'x, y, z'

loop_
  _atom_site_type_symbol
  _atom_site_label
  _atom_site_symmetry_multiplicity
  _atom_site_fract_x
  _atom_site_fract_y
  _atom_site_fract_z
  _atom_site_occupancy
  Ac  Ac1       1.0  0.00000  0.00000  0.00000  1.0000
  Sc  Sc1       1.0  0.75000  0.25000  0.50000  1.0000
  Sc  Sc2       1.0  0.25000  0.75000  0.50000  1.0000
  Y   Y1        1.0  0.61800  0.61800  0.23600  1.0000
  Y   Y2        1.0  0.38200  0.38200  0.76400  1.0000
