data_image0
_chemical_formula_structural       AcBa2Sr2
_chemical_formula_sum              "Ac1 Ba2 Sr2"
_cell_length_a       5.35221
_cell_length_b       5.35221
_cell_length_c       10.3343
_cell_angle_alpha    105.008
_cell_angle_beta     105.008
_cell_angle_gamma    90

_space_group_name_H-M_alt    "P 1"
_space_group_IT_number       1

loop_
  _space_group_symop_operation_xyz
  'x, y, z'

loop_
  _atom_site_type_symbol
  _atom_site_label
  _atom_site_symmetry_multiplicity
  _atom_site_fract_x
  _atom_site_fract_y
  _atom_site_fract_z
  _atom_site_occupancy
  Ac  Ac1       1.0  0.00000  0.00000  0.00000  1.0000
  Ba  Ba1       1.0  0.75000  0.25000  0.50000  1.0000
  Ba  Ba2       1.0  0.25000  0.75000  0.50000  1.0000
  Sr  Sr1       1.0  0.59300  0.59300  0.18600  1.0000
  Sr  Sr2       1.0  0.40700  0.40700  0.81400  1.0000
