data_image0
_chemical_formula_structural       K2Na2O12V4
_chemical_formula_sum              "K2 Na2 O12 V4"
_cell_length_a       7.00101
_cell_length_b       7.00101
_cell_length_c       5.66584
_cell_angle_alpha    79.507
_cell_angle_beta     100.493
_cell_angle_gamma    94.7851

_space_group_name_H-M_alt    "P 1"
_space_group_IT_number       1

loop_
  _space_group_symop_operation_xyz
  'x, y, z'

loop_
  _atom_site_type_symbol
  _atom_site_label
  _atom_site_symmetry_multiplicity
  _atom_site_fract_x
  _atom_site_fract_y
  _atom_site_fract_z
  _atom_site_occupancy
  K   K1        1.0  0.30800  0.30800  0.25000  1.0000
  K   K2        1.0  0.69200  0.69200  0.75000  1.0000
  Na  Na1       1.0  0.90400  0.90400  0.25000  1.0000
  Na  Na2       1.0  0.09600  0.09600  0.75000  1.0000
  O   O1        1.0  0.37800  0.66800  0.98400  1.0000
  O   O2        1.0  0.66800  0.37800  0.51600  1.0000
  O   O3        1.0  0.62200  0.33200  0.01570  1.0000
  O   O4        1.0  0.33200  0.62200  0.48400  1.0000
  O   O5        1.0  0.59000  0.91800  0.30100  1.0000
  O   O6        1.0  0.91800  0.59000  0.19900  1.0000
  O   O7        1.0  0.41000  0.08180  0.69900  1.0000
  O   O8        1.0  0.08180  0.41000  0.80100  1.0000
  O   O9        1.0  0.20500  0.96700  0.14700  1.0000
  O   O10       1.0  0.96700  0.20500  0.35300  1.0000
  O   O11       1.0  0.79500  0.03310  0.85300  1.0000
  O   O12       1.0  0.03310  0.79500  0.64700  1.0000
  V   V1        1.0  0.37600  0.80600  0.22500  1.0000
  V   V2        1.0  0.80600  0.37600  0.27500  1.0000
  V   V3        1.0  0.62400  0.19400  0.77500  1.0000
  V   V4        1.0  0.19400  0.62400  0.72500  1.0000
