data_image0
_chemical_formula_structural       CrNb2W2
_chemical_formula_sum              "Cr1 Nb2 W2"
_cell_length_a       3.51503
_cell_length_b       3.51503
_cell_length_c       7.74157
_cell_angle_alpha    103.122
_cell_angle_beta     103.122
_cell_angle_gamma    90

_space_group_name_H-M_alt    "P 1"
_space_group_IT_number       1

loop_
  _space_group_symop_operation_xyz
  'x, y, z'

loop_
  _atom_site_type_symbol
  _atom_site_label
  _atom_site_symmetry_multiplicity
  _atom_site_fract_x
  _atom_site_fract_y
  _atom_site_fract_z
  _atom_site_occupancy
  Cr  Cr1       1.0  0.00000  0.00000  0.00000  1.0000
  Nb  Nb1       1.0  0.59200  0.59200  0.18400  1.0000
  Nb  Nb2       1.0  0.40800  0.40800  0.81600  1.0000
  W   W1        1.0  0.75000  0.25000  0.50000  1.0000
  W   W2        1.0  0.25000  0.75000  0.50000  1.0000
