# generated using pymatgen
data_Ba(LaS2)2
_symmetry_space_group_name_H-M   'P 1'
_cell_length_a   7.76535075
_cell_length_b   7.76535075
_cell_length_c   7.76535075
_cell_angle_alpha   109.28662957
_cell_angle_beta   109.28662957
_cell_angle_gamma   109.84103691
_symmetry_Int_Tables_number   1
_chemical_formula_structural   Ba(LaS2)2
_chemical_formula_sum   'Ba2 La4 S8'
_cell_volume   360.45226627
_cell_formula_units_Z   2
loop_
 _symmetry_equiv_pos_site_id
 _symmetry_equiv_pos_as_xyz
  1  'x, y, z'
loop_
 _atom_site_type_symbol
 _atom_site_label
 _atom_site_symmetry_multiplicity
 _atom_site_fract_x
 _atom_site_fract_y
 _atom_site_fract_z
 _atom_site_occupancy
  Ba  Ba0  1  0.50000000  0.50000000  0.00000000  1
  Ba  Ba1  1  0.75000000  0.25000000  0.50000000  1
  La  La2  1  0.62500000  0.00077900  0.87577900  1
  La  La3  1  0.99922100  0.87500000  0.62422100  1
  La  La4  1  0.12500000  0.74922100  0.12422100  1
  La  La5  1  0.25077900  0.37500000  0.37577900  1
  S  S6  1  0.89039000  0.98193600  0.24537000  1
  S  S7  1  0.73656600  0.64501900  0.75463000  1
  S  S8  1  0.51343400  0.76806400  0.40845400  1
  S  S9  1  0.89501900  0.48656600  0.25463000  1
  S  S10  1  0.23193600  0.64039000  0.74537000  1
  S  S11  1  0.35498100  0.10961000  0.09154600  1
  S  S12  1  0.01806400  0.26343400  0.90845400  1
  S  S13  1  0.35961000  0.10498100  0.59154600  1
