data_image0
_chemical_formula_structural       RhRu2Tc2
_chemical_formula_sum              "Rh1 Ru2 Tc2"
_cell_length_a       3.75349
_cell_length_b       3.75349
_cell_length_c       6.22473
_cell_angle_alpha    107.548
_cell_angle_beta     107.548
_cell_angle_gamma    90

_space_group_name_H-M_alt    "P 1"
_space_group_IT_number       1

loop_
  _space_group_symop_operation_xyz
  'x, y, z'

loop_
  _atom_site_type_symbol
  _atom_site_label
  _atom_site_symmetry_multiplicity
  _atom_site_fract_x
  _atom_site_fract_y
  _atom_site_fract_z
  _atom_site_occupancy
  Rh  Rh1       1.0  0.00000  0.00000  0.00000  1.0000
  Ru  Ru1       1.0  0.60200  0.60200  0.20500  1.0000
  Ru  Ru2       1.0  0.39800  0.39800  0.79500  1.0000
  Tc  Tc1       1.0  0.75000  0.25000  0.50000  1.0000
  Tc  Tc2       1.0  0.25000  0.75000  0.50000  1.0000
