data_image0
_chemical_formula_structural       Pd2Rh2Tc
_chemical_formula_sum              "Pd2 Rh2 Tc1"
_cell_length_a       3.56907
_cell_length_b       3.56907
_cell_length_c       6.70121
_cell_angle_alpha    105.444
_cell_angle_beta     105.444
_cell_angle_gamma    90

_space_group_name_H-M_alt    "P 1"
_space_group_IT_number       1

loop_
  _space_group_symop_operation_xyz
  'x, y, z'

loop_
  _atom_site_type_symbol
  _atom_site_label
  _atom_site_symmetry_multiplicity
  _atom_site_fract_x
  _atom_site_fract_y
  _atom_site_fract_z
  _atom_site_occupancy
  Pd  Pd1       1.0  0.59800  0.59800  0.19700  1.0000
  Pd  Pd2       1.0  0.40200  0.40200  0.80300  1.0000
  Rh  Rh1       1.0  0.75000  0.25000  0.50000  1.0000
  Rh  Rh2       1.0  0.25000  0.75000  0.50000  1.0000
  Tc  Tc1       1.0  0.00000  0.00000  0.00000  1.0000
