data_image0
_chemical_formula_structural       Ba2Sr2Th
_chemical_formula_sum              "Ba2 Sr2 Th1"
_cell_length_a       5.07433
_cell_length_b       5.07433
_cell_length_c       10.2429
_cell_angle_alpha    104.341
_cell_angle_beta     104.341
_cell_angle_gamma    90

_space_group_name_H-M_alt    "P 1"
_space_group_IT_number       1

loop_
  _space_group_symop_operation_xyz
  'x, y, z'

loop_
  _atom_site_type_symbol
  _atom_site_label
  _atom_site_symmetry_multiplicity
  _atom_site_fract_x
  _atom_site_fract_y
  _atom_site_fract_z
  _atom_site_occupancy
  Ba  Ba1       1.0  0.75000  0.25000  0.50000  1.0000
  Ba  Ba2       1.0  0.25000  0.75000  0.50000  1.0000
  Sr  Sr1       1.0  0.58900  0.58900  0.17800  1.0000
  Sr  Sr2       1.0  0.41100  0.41100  0.82200  1.0000
  Th  Th1       1.0  0.00000  0.00000  0.00000  1.0000
