data_image0
_chemical_formula_structural       Nb2Sr2Tb
_chemical_formula_sum              "Nb2 Sr2 Tb1"
_cell_length_a       4.69276
_cell_length_b       4.69276
_cell_length_c       8.00175
_cell_angle_alpha    107.052
_cell_angle_beta     107.052
_cell_angle_gamma    90

_space_group_name_H-M_alt    "P 1"
_space_group_IT_number       1

loop_
  _space_group_symop_operation_xyz
  'x, y, z'

loop_
  _atom_site_type_symbol
  _atom_site_label
  _atom_site_symmetry_multiplicity
  _atom_site_fract_x
  _atom_site_fract_y
  _atom_site_fract_z
  _atom_site_occupancy
  Nb  Nb1       1.0  0.57600  0.57600  0.15200  1.0000
  Nb  Nb2       1.0  0.42400  0.42400  0.84800  1.0000
  Sr  Sr1       1.0  0.75000  0.25000  0.50000  1.0000
  Sr  Sr2       1.0  0.25000  0.75000  0.50000  1.0000
  Tb  Tb1       1.0  0.00000  0.00000  0.00000  1.0000
