data_image0
_chemical_formula_structural       Ag2CuPd2
_chemical_formula_sum              "Ag2 Cu1 Pd2"
_cell_length_a       6.89718
_cell_length_b       6.89718
_cell_length_c       6.89718
_cell_angle_alpha    148.714
_cell_angle_beta     148.714
_cell_angle_gamma    44.8323

_space_group_name_H-M_alt    "P 1"
_space_group_IT_number       1

loop_
  _space_group_symop_operation_xyz
  'x, y, z'

loop_
  _atom_site_type_symbol
  _atom_site_label
  _atom_site_symmetry_multiplicity
  _atom_site_fract_x
  _atom_site_fract_y
  _atom_site_fract_z
  _atom_site_occupancy
  Ag  Ag1       1.0  0.40200  0.40200  0.00000  1.0000
  Ag  Ag2       1.0  0.59800  0.59800  0.00000  1.0000
  Cu  Cu1       1.0  0.00000  0.00000  0.00000  1.0000
  Pd  Pd1       1.0  0.75000  0.25000  0.50000  1.0000
  Pd  Pd2       1.0  0.25000  0.75000  0.50000  1.0000
