# generated using pymatgen
data_Tb10Ti6O27
_symmetry_space_group_name_H-M   'P 1'
_cell_length_a   7.46916874
_cell_length_b   7.46916874
_cell_length_c   12.61817088
_cell_angle_alpha   72.00396158
_cell_angle_beta   72.00396158
_cell_angle_gamma   58.58101655
_symmetry_Int_Tables_number   1
_chemical_formula_structural   Tb10Ti6O27
_chemical_formula_sum   'Tb10 Ti6 O27'
_cell_volume   561.77925937
_cell_formula_units_Z   1
loop_
 _symmetry_equiv_pos_site_id
 _symmetry_equiv_pos_as_xyz
  1  'x, y, z'
loop_
 _atom_site_type_symbol
 _atom_site_label
 _atom_site_symmetry_multiplicity
 _atom_site_fract_x
 _atom_site_fract_y
 _atom_site_fract_z
 _atom_site_occupancy
  Tb  Tb0  1  0.78024600  0.27243100  0.23080300  1
  Tb  Tb1  1  0.27243100  0.78024600  0.23080300  1
  Tb  Tb2  1  0.01933800  0.01933800  0.49727800  1
  Tb  Tb3  1  0.48114700  0.48114700  0.49095400  1
  Tb  Tb4  1  0.24915600  0.75735200  0.75338600  1
  Tb  Tb5  1  0.75735200  0.24915600  0.75338600  1
  Tb  Tb6  1  0.75000100  0.75000100  0.26743700  1
  Tb  Tb7  1  0.01728100  0.01728100  0.00282700  1
  Tb  Tb8  1  0.75700900  0.75700900  0.77567300  1
  Tb  Tb9  1  0.24584600  0.24584600  0.73319600  1
  Ti  Ti10  1  0.02020500  0.50862000  0.99445900  1
  Ti  Ti11  1  0.50862000  0.02020500  0.99445900  1
  Ti  Ti12  1  0.50165400  0.50165400  0.00668900  1
  Ti  Ti13  1  0.24846500  0.24846500  0.25800300  1
  Ti  Ti14  1  0.52229900  0.99540100  0.50403200  1
  Ti  Ti15  1  0.99540100  0.52229900  0.50403200  1
  O  O16  1  0.42225900  0.05736900  0.36222000  1
  O  O17  1  0.76770500  0.76770500  0.95803100  1
  O  O18  1  0.93244400  0.93244400  0.18958800  1
  O  O19  1  0.78135900  0.37990200  0.03746100  1
  O  O20  1  0.05736900  0.42225900  0.36222000  1
  O  O21  1  0.12557000  0.69778900  0.44388300  1
  O  O22  1  0.10637800  0.52617200  0.81774200  1
  O  O23  1  0.40490000  0.40490000  0.17314400  1
  O  O24  1  0.28781600  0.28781600  0.54002100  1
  O  O25  1  0.37990200  0.78135900  0.03746100  1
  O  O26  1  0.08816300  0.08816300  0.29591200  1
  O  O27  1  0.47453300  0.96389500  0.15934900  1
  O  O28  1  0.33339000  0.77658800  0.56491000  1
  O  O29  1  0.56422300  0.56422300  0.31121000  1
  O  O30  1  0.69778900  0.12557000  0.44388300  1
  O  O31  1  0.52617200  0.10637800  0.81774200  1
  O  O32  1  0.93623400  0.93623400  0.68788100  1
  O  O33  1  0.64213300  0.17959200  0.97645100  1
  O  O34  1  0.55919400  0.55919400  0.84298800  1
  O  O35  1  0.77658800  0.33339000  0.56491000  1
  O  O36  1  0.73733400  0.73733400  0.45225900  1
  O  O37  1  0.96389500  0.47453300  0.15934900  1
  O  O38  1  0.92343000  0.49982000  0.66268900  1
  O  O39  1  0.07048200  0.07048200  0.81474900  1
  O  O40  1  0.17959200  0.64213300  0.97645100  1
  O  O41  1  0.49982000  0.92343000  0.66268900  1
  O  O42  1  0.19735200  0.19735200  0.99988700  1
