# generated using pymatgen
data_Tm2MnS4
_symmetry_space_group_name_H-M   'P 1'
_cell_length_a   7.10519725
_cell_length_b   7.10519725
_cell_length_c   7.10519725
_cell_angle_alpha   110.61970007
_cell_angle_beta   110.61970007
_cell_angle_gamma   107.19790090
_symmetry_Int_Tables_number   1
_chemical_formula_structural   Tm2MnS4
_chemical_formula_sum   'Tm4 Mn2 S8'
_cell_volume   275.80110246
_cell_formula_units_Z   2
loop_
 _symmetry_equiv_pos_site_id
 _symmetry_equiv_pos_as_xyz
  1  'x, y, z'
loop_
 _atom_site_type_symbol
 _atom_site_label
 _atom_site_symmetry_multiplicity
 _atom_site_fract_x
 _atom_site_fract_y
 _atom_site_fract_z
 _atom_site_occupancy
  Tm  Tm0  1  0.87500000  0.48813400  0.11313400  1
  Tm  Tm1  1  0.23813400  0.12500000  0.61313400  1
  Tm  Tm2  1  0.37500000  0.76186600  0.88686600  1
  Tm  Tm3  1  0.51186600  0.62500000  0.38686600  1
  Mn  Mn4  1  0.75000000  0.25000000  0.50000000  1
  Mn  Mn5  1  0.00000000  0.00000000  0.00000000  1
  S  S6  1  0.63421500  0.00069700  0.76590200  1
  S  S7  1  0.61831300  0.48479500  0.73409800  1
  S  S8  1  0.51520500  0.24930300  0.13351800  1
  S  S9  1  0.13168700  0.36578500  0.36648200  1
  S  S10  1  0.75069700  0.88421500  0.26590200  1
  S  S11  1  0.11578500  0.38168700  0.86648200  1
  S  S12  1  0.99930300  0.76520500  0.63351800  1
  S  S13  1  0.23479500  0.86831300  0.23409800  1
