# generated using pymatgen
data_Zn(FeO2)2
_symmetry_space_group_name_H-M   'P 1'
_cell_length_a   6.06594075
_cell_length_b   6.06594075
_cell_length_c   14.85353300
_cell_angle_alpha   90.00000000
_cell_angle_beta   90.00000000
_cell_angle_gamma   120.00000814
_symmetry_Int_Tables_number   1
_chemical_formula_structural   Zn(FeO2)2
_chemical_formula_sum   'Zn6 Fe12 O24'
_cell_volume   473.32199781
_cell_formula_units_Z   6
loop_
 _symmetry_equiv_pos_site_id
 _symmetry_equiv_pos_as_xyz
  1  'x, y, z'
loop_
 _atom_site_type_symbol
 _atom_site_label
 _atom_site_symmetry_multiplicity
 _atom_site_fract_x
 _atom_site_fract_y
 _atom_site_fract_z
 _atom_site_occupancy
  Zn  Zn0  1  0.66666700  0.33333300  0.95566600  1
  Zn  Zn1  1  0.00000000  0.00000000  0.62143400  1
  Zn  Zn2  1  0.33333300  0.66666700  0.66526300  1
  Zn  Zn3  1  0.33333300  0.66666700  0.29196700  1
  Zn  Zn4  1  0.00000000  0.00000000  0.99923900  1
  Zn  Zn5  1  0.00000000  0.00000000  0.37701000  1
  Fe  Fe6  1  0.16387000  0.83613000  0.83381200  1
  Fe  Fe7  1  0.16387000  0.32774100  0.83381200  1
  Fe  Fe8  1  0.49798300  0.50201700  0.50082500  1
  Fe  Fe9  1  0.67225900  0.83613000  0.83381200  1
  Fe  Fe10  1  0.49798300  0.99596600  0.50082500  1
  Fe  Fe11  1  0.66666700  0.33333300  0.33560800  1
  Fe  Fe12  1  0.66666700  0.33333300  0.71162900  1
  Fe  Fe13  1  0.83221700  0.16778300  0.16753800  1
  Fe  Fe14  1  0.00403400  0.50201700  0.50082500  1
  Fe  Fe15  1  0.83221700  0.66443500  0.16753800  1
  Fe  Fe16  1  0.33556500  0.16778300  0.16753800  1
  Fe  Fe17  1  0.33333300  0.66666700  0.04291600  1
  O  O18  1  0.84475500  0.15524500  0.90944100  1
  O  O19  1  0.00000000  0.00000000  0.75839000  1
  O  O20  1  0.84475500  0.68950900  0.90944100  1
  O  O21  1  0.31049100  0.15524500  0.90944100  1
  O  O22  1  0.17754400  0.82245600  0.57524300  1
  O  O23  1  0.01560700  0.50780300  0.75582800  1
  O  O24  1  0.33333300  0.66666700  0.42539700  1
  O  O25  1  0.49219700  0.98439300  0.75582800  1
  O  O26  1  0.33333300  0.66666700  0.91056500  1
  O  O27  1  0.17754400  0.35508800  0.57524300  1
  O  O28  1  0.64491200  0.82245600  0.57524300  1
  O  O29  1  0.49219700  0.50780300  0.75582800  1
  O  O30  1  0.51425200  0.48574800  0.24635000  1
  O  O31  1  0.36316700  0.18158300  0.41998600  1
  O  O32  1  0.81841700  0.63683300  0.41998600  1
  O  O33  1  0.66666700  0.33333300  0.09283200  1
  O  O34  1  0.66666700  0.33333300  0.57923200  1
  O  O35  1  0.51425200  0.02850300  0.24635000  1
  O  O36  1  0.97149700  0.48574800  0.24635000  1
  O  O37  1  0.81841700  0.18158300  0.41998600  1
  O  O38  1  0.67907400  0.83953700  0.08903400  1
  O  O39  1  0.16046300  0.32092600  0.08903400  1
  O  O40  1  0.00000000  0.00000000  0.23850000  1
  O  O41  1  0.16046300  0.83953700  0.08903400  1
