# generated using pymatgen
data_La5AgSe8
_symmetry_space_group_name_H-M   'P 1'
_cell_length_a   7.86342995
_cell_length_b   7.86342995
_cell_length_c   7.86342995
_cell_angle_alpha   109.83466735
_cell_angle_beta   109.83466735
_cell_angle_gamma   108.74674723
_symmetry_Int_Tables_number   1
_chemical_formula_structural   La5AgSe8
_chemical_formula_sum   'La5 Ag1 Se8'
_cell_volume   374.25031559
_cell_formula_units_Z   1
loop_
 _symmetry_equiv_pos_site_id
 _symmetry_equiv_pos_as_xyz
  1  'x, y, z'
loop_
 _atom_site_type_symbol
 _atom_site_label
 _atom_site_symmetry_multiplicity
 _atom_site_fract_x
 _atom_site_fract_y
 _atom_site_fract_z
 _atom_site_occupancy
  La  La0  1  0.63207700  0.74914600  0.61961300  1
  La  La1  1  0.98753600  0.36792300  0.11706900  1
  La  La2  1  0.12953300  0.01246400  0.38038700  1
  La  La3  1  0.50000000  0.50000000  0.00000000  1
  La  La4  1  0.25085400  0.87046700  0.88293100  1
  Ag  Ag5  1  0.75000000  0.25000000  0.50000000  1
  Se  Se6  1  0.24536900  0.48664900  0.60420300  1
  Se  Se7  1  0.86455400  0.61460800  0.88730600  1
  Se  Se8  1  0.51335100  0.11755400  0.75872000  1
  Se  Se9  1  0.88244600  0.64116600  0.39579700  1
  Se  Se10  1  0.72730200  0.97724800  0.11269400  1
  Se  Se11  1  0.38539200  0.27269800  0.24994500  1
  Se  Se12  1  0.02275200  0.13544600  0.75005500  1
  Se  Se13  1  0.35883400  0.75463100  0.24128000  1
