# generated using pymatgen
data_Gd2Zr2O7
_symmetry_space_group_name_H-M   'P 1'
_cell_length_a   7.56035200
_cell_length_b   7.58168000
_cell_length_c   10.59337200
_cell_angle_alpha   90.00000000
_cell_angle_beta   90.00000000
_cell_angle_gamma   90.00000000
_symmetry_Int_Tables_number   1
_chemical_formula_structural   Gd2Zr2O7
_chemical_formula_sum   'Gd8 Zr8 O28'
_cell_volume   607.21387916
_cell_formula_units_Z   4
loop_
 _symmetry_equiv_pos_site_id
 _symmetry_equiv_pos_as_xyz
  1  'x, y, z'
loop_
 _atom_site_type_symbol
 _atom_site_label
 _atom_site_symmetry_multiplicity
 _atom_site_fract_x
 _atom_site_fract_y
 _atom_site_fract_z
 _atom_site_occupancy
  Gd  Gd0  1  0.50000000  0.00000000  0.50000000  1
  Gd  Gd1  1  0.50000000  0.50000000  0.00000000  1
  Gd  Gd2  1  0.73933700  0.75000000  0.25000000  1
  Gd  Gd3  1  0.00000000  0.00000000  0.00000000  1
  Gd  Gd4  1  0.73933700  0.25000000  0.25000000  1
  Gd  Gd5  1  0.26066300  0.25000000  0.75000000  1
  Gd  Gd6  1  0.00000000  0.50000000  0.50000000  1
  Gd  Gd7  1  0.26066300  0.75000000  0.75000000  1
  Zr  Zr8  1  0.25381300  0.75000000  0.25000000  1
  Zr  Zr9  1  0.74618700  0.25000000  0.75000000  1
  Zr  Zr10  1  0.25381300  0.25000000  0.25000000  1
  Zr  Zr11  1  0.50000000  0.50000000  0.50000000  1
  Zr  Zr12  1  0.00000000  0.50000000  0.00000000  1
  Zr  Zr13  1  0.74618700  0.75000000  0.75000000  1
  Zr  Zr14  1  0.50000000  0.00000000  0.00000000  1
  Zr  Zr15  1  0.00000000  0.00000000  0.50000000  1
  O  O16  1  0.47674200  0.74913500  0.37727700  1
  O  O17  1  0.52325800  0.25086500  0.62272300  1
  O  O18  1  0.47674200  0.25086500  0.37727700  1
  O  O19  1  0.94885200  0.28732000  0.87906100  1
  O  O20  1  0.52325800  0.24913500  0.87727700  1
  O  O21  1  0.24138100  0.50000000  0.89297500  1
  O  O22  1  0.75295100  0.50000000  0.66796800  1
  O  O23  1  0.75861900  0.50000000  0.10702500  1
  O  O24  1  0.25909600  0.50000000  0.61071300  1
  O  O25  1  0.52325800  0.75086500  0.87727700  1
  O  O26  1  0.47674200  0.75086500  0.12272300  1
  O  O27  1  0.94885200  0.71268000  0.87906100  1
  O  O28  1  0.05114800  0.71268000  0.12093900  1
  O  O29  1  0.52325800  0.74913500  0.62272300  1
  O  O30  1  0.05114800  0.78732000  0.37906100  1
  O  O31  1  0.75295100  0.00000000  0.83203200  1
  O  O32  1  0.24704900  0.00000000  0.16796800  1
  O  O33  1  0.75861900  0.00000000  0.39297500  1
  O  O34  1  0.24138100  0.00000000  0.60702500  1
  O  O35  1  0.74090400  0.00000000  0.11071300  1
  O  O36  1  0.05114800  0.21268000  0.37906100  1
  O  O37  1  0.94885200  0.21268000  0.62093900  1
  O  O38  1  0.47674200  0.24913500  0.12272300  1
  O  O39  1  0.05114800  0.28732000  0.12093900  1
  O  O40  1  0.24704900  0.50000000  0.33203200  1
  O  O41  1  0.74090400  0.50000000  0.38928700  1
  O  O42  1  0.94885200  0.78732000  0.62093900  1
  O  O43  1  0.25909600  0.00000000  0.88928700  1
