# generated using pymatgen
data_Na2SO3
_symmetry_space_group_name_H-M   'P 1'
_cell_length_a   5.58944957
_cell_length_b   5.58944957
_cell_length_c   7.14374000
_cell_angle_alpha   90.00000000
_cell_angle_beta   90.00000000
_cell_angle_gamma   116.14665839
_symmetry_Int_Tables_number   1
_chemical_formula_structural   Na2SO3
_chemical_formula_sum   'Na4 S2 O6'
_cell_volume   200.34566947
_cell_formula_units_Z   2
loop_
 _symmetry_equiv_pos_site_id
 _symmetry_equiv_pos_as_xyz
  1  'x, y, z'
loop_
 _atom_site_type_symbol
 _atom_site_label
 _atom_site_symmetry_multiplicity
 _atom_site_fract_x
 _atom_site_fract_y
 _atom_site_fract_z
 _atom_site_occupancy
  Na  Na0  1  0.32925000  0.67075000  0.25000000  1
  Na  Na1  1  0.94864400  0.94864400  0.50000000  1
  Na  Na2  1  0.05135600  0.05135600  0.00000000  1
  Na  Na3  1  0.67075000  0.32925000  0.75000000  1
  S  S4  1  0.30765700  0.69234300  0.75000000  1
  S  S5  1  0.69234300  0.30765700  0.25000000  1
  O  O6  1  0.14555100  0.85444900  0.75000000  1
  O  O7  1  0.09302900  0.44613800  0.87644300  1
  O  O8  1  0.55386200  0.90697100  0.62355700  1
  O  O9  1  0.44613800  0.09302900  0.12355700  1
  O  O10  1  0.90697100  0.55386200  0.37644300  1
  O  O11  1  0.85444900  0.14555100  0.25000000  1
