# generated using pymatgen
data_MgSiO3
_symmetry_space_group_name_H-M   'P 1'
_cell_length_a   8.94334000
_cell_length_b   5.23783600
_cell_length_c   9.47282433
_cell_angle_alpha   77.01981876
_cell_angle_beta   90.00000000
_cell_angle_gamma   90.00000000
_symmetry_Int_Tables_number   1
_chemical_formula_structural   MgSiO3
_chemical_formula_sum   'Mg8 Si8 O24'
_cell_volume   432.40400622
_cell_formula_units_Z   8
loop_
 _symmetry_equiv_pos_site_id
 _symmetry_equiv_pos_as_xyz
  1  'x, y, z'
loop_
 _atom_site_type_symbol
 _atom_site_label
 _atom_site_symmetry_multiplicity
 _atom_site_fract_x
 _atom_site_fract_y
 _atom_site_fract_z
 _atom_site_occupancy
  Mg  Mg0  1  0.65226100  0.96844800  0.25101200  1
  Mg  Mg1  1  0.15226100  0.53155200  0.74898800  1
  Mg  Mg2  1  0.34773900  0.03155200  0.74898800  1
  Mg  Mg3  1  0.84773900  0.46844800  0.25101200  1
  Mg  Mg4  1  0.01127300  0.96189000  0.25429500  1
  Mg  Mg5  1  0.51127300  0.53811000  0.74570500  1
  Mg  Mg6  1  0.98872700  0.03811000  0.74570500  1
  Mg  Mg7  1  0.48872700  0.46189000  0.25429500  1
  Si  Si8  1  0.34038400  0.25191200  0.04366700  1
  Si  Si9  1  0.84038400  0.24808800  0.95633300  1
  Si  Si10  1  0.65961600  0.74808800  0.95633300  1
  Si  Si11  1  0.15961600  0.75191200  0.04366700  1
  Si  Si12  1  0.83719200  0.68057000  0.55205500  1
  Si  Si13  1  0.33719200  0.81943000  0.44794500  1
  Si  Si14  1  0.16280800  0.31943000  0.44794500  1
  Si  Si15  1  0.66280800  0.18057000  0.55205500  1
  O  O16  1  0.80409400  0.35488700  0.60351400  1
  O  O17  1  0.30409400  0.14511300  0.39648600  1
  O  O18  1  0.19590600  0.64511300  0.39648600  1
  O  O19  1  0.69590600  0.85488700  0.60351400  1
  O  O20  1  0.51763000  0.25414800  0.63474400  1
  O  O21  1  0.01763000  0.24585200  0.36525600  1
  O  O22  1  0.48237000  0.74585200  0.36525600  1
  O  O23  1  0.98237000  0.75414800  0.63474400  1
  O  O24  1  0.65961000  0.25190900  0.37463500  1
  O  O25  1  0.15961000  0.24809100  0.62536500  1
  O  O26  1  0.34039000  0.74809100  0.62536500  1
  O  O27  1  0.84039000  0.75190900  0.37463500  1
  O  O28  1  0.21919900  0.01062900  0.10585100  1
  O  O29  1  0.71919900  0.48937100  0.89414900  1
  O  O30  1  0.78080100  0.98937100  0.89414900  1
  O  O31  1  0.28080100  0.51062900  0.10585100  1
  O  O32  1  0.33932200  0.31686900  0.86702100  1
  O  O33  1  0.83932200  0.18313100  0.13297900  1
  O  O34  1  0.66067800  0.68313100  0.13297900  1
  O  O35  1  0.16067800  0.81686900  0.86702100  1
  O  O36  1  0.49924500  0.20000200  0.12383600  1
  O  O37  1  0.99924500  0.29999800  0.87616400  1
  O  O38  1  0.50075500  0.79999800  0.87616400  1
  O  O39  1  0.00075500  0.70000200  0.12383600  1
