# generated using pymatgen
data_Na3(WO3)4
_symmetry_space_group_name_H-M   'P 1'
_cell_length_a   6.82475996
_cell_length_b   6.82475996
_cell_length_c   6.82475996
_cell_angle_alpha   109.47122063
_cell_angle_beta   109.47122063
_cell_angle_gamma   109.47122063
_symmetry_Int_Tables_number   1
_chemical_formula_structural   Na3(WO3)4
_chemical_formula_sum   'Na3 W4 O12'
_cell_volume   244.70354007
_cell_formula_units_Z   1
loop_
 _symmetry_equiv_pos_site_id
 _symmetry_equiv_pos_as_xyz
  1  'x, y, z'
loop_
 _atom_site_type_symbol
 _atom_site_label
 _atom_site_symmetry_multiplicity
 _atom_site_fract_x
 _atom_site_fract_y
 _atom_site_fract_z
 _atom_site_occupancy
  Na  Na0  1  0.50000000  0.50000000  0.00000000  1
  Na  Na1  1  0.00000000  0.50000000  0.50000000  1
  Na  Na2  1  0.50000000  0.00000000  0.50000000  1
  W  W3  1  0.00000000  0.50000000  0.00000000  1
  W  W4  1  0.50000000  0.00000000  0.00000000  1
  W  W5  1  0.00000000  0.00000000  0.50000000  1
  W  W6  1  0.50000000  0.50000000  0.50000000  1
  O  O7  1  0.74744700  0.00000000  0.25255300  1
  O  O8  1  0.25255300  0.50510500  0.25255300  1
  O  O9  1  0.25255300  0.74744700  0.00000000  1
  O  O10  1  0.74744700  0.25255300  0.00000000  1
  O  O11  1  0.00000000  0.74744700  0.25255300  1
  O  O12  1  0.50510500  0.25255300  0.25255300  1
  O  O13  1  0.25255300  0.00000000  0.74744700  1
  O  O14  1  0.74744700  0.49489500  0.74744700  1
  O  O15  1  0.25255300  0.25255300  0.50510500  1
  O  O16  1  0.74744700  0.74744700  0.49489500  1
  O  O17  1  0.49489500  0.74744700  0.74744700  1
  O  O18  1  0.00000000  0.25255300  0.74744700  1
