# generated using pymatgen
data_V(FeO2)2
_symmetry_space_group_name_H-M   'P 1'
_cell_length_a   6.08083793
_cell_length_b   6.08083793
_cell_length_c   6.08083793
_cell_angle_alpha   120.49123373
_cell_angle_beta   119.56983766
_cell_angle_gamma   89.94897263
_symmetry_Int_Tables_number   1
_chemical_formula_structural   V(FeO2)2
_chemical_formula_sum   'V2 Fe4 O8'
_cell_volume   158.90569734
_cell_formula_units_Z   2
loop_
 _symmetry_equiv_pos_site_id
 _symmetry_equiv_pos_as_xyz
  1  'x, y, z'
loop_
 _atom_site_type_symbol
 _atom_site_label
 _atom_site_symmetry_multiplicity
 _atom_site_fract_x
 _atom_site_fract_y
 _atom_site_fract_z
 _atom_site_occupancy
  V  V0  1  0.00000000  0.50000000  0.50000000  1
  V  V1  1  0.50000000  0.50000000  0.00000000  1
  Fe  Fe2  1  0.62039500  0.87039500  0.75000000  1
  Fe  Fe3  1  0.37960500  0.12960500  0.25000000  1
  Fe  Fe4  1  0.00000000  0.00000000  0.50000000  1
  Fe  Fe5  1  0.00000000  0.50000000  0.00000000  1
  O  O6  1  0.25149600  0.26508900  0.51359300  1
  O  O7  1  0.25149600  0.73790300  0.98640700  1
  O  O8  1  0.76702700  0.26345000  0.50357700  1
  O  O9  1  0.25987300  0.26345000  0.99642300  1
  O  O10  1  0.74012700  0.73655000  0.00357700  1
  O  O11  1  0.74850400  0.26209700  0.01359300  1
  O  O12  1  0.23297300  0.73655000  0.49642300  1
  O  O13  1  0.74850400  0.73491100  0.48640700  1
