# generated using pymatgen
data_Mn2NiO4
_symmetry_space_group_name_H-M   'P 1'
_cell_length_a   5.99010334
_cell_length_b   6.02942768
_cell_length_c   6.01754143
_cell_angle_alpha   119.93497121
_cell_angle_beta   89.99988146
_cell_angle_gamma   119.78493474
_symmetry_Int_Tables_number   1
_chemical_formula_structural   Mn2NiO4
_chemical_formula_sum   'Mn4 Ni2 O8'
_cell_volume   154.32721205
_cell_formula_units_Z   2
loop_
 _symmetry_equiv_pos_site_id
 _symmetry_equiv_pos_as_xyz
  1  'x, y, z'
loop_
 _atom_site_type_symbol
 _atom_site_label
 _atom_site_symmetry_multiplicity
 _atom_site_fract_x
 _atom_site_fract_y
 _atom_site_fract_z
 _atom_site_occupancy
  Mn  Mn0  1  0.99004300  0.98008000  0.99004000  1
  Mn  Mn1  1  0.75994800  0.51990200  0.25995100  1
  Mn  Mn2  1  0.37499500  0.24999000  0.62499700  1
  Mn  Mn3  1  0.87500600  0.25001100  0.62500300  1
  Ni  Ni4  1  0.37500300  0.75000500  0.62500200  1
  Ni  Ni5  1  0.37500200  0.75000500  0.12500300  1
  O  O6  1  0.16847700  0.79888500  0.39944300  1
  O  O7  1  0.63040300  0.79888500  0.39944300  1
  O  O8  1  0.11959900  0.70111600  0.85055800  1
  O  O9  1  0.58152100  0.70111600  0.85055800  1
  O  O10  1  0.62246600  0.24493500  0.83978700  1
  O  O11  1  0.62246600  0.24493500  0.40514800  1
  O  O12  1  0.12753500  0.25506800  0.84485400  1
  O  O13  1  0.12753500  0.25506700  0.41021300  1
