# generated using pymatgen
data_La2CdSe4
_symmetry_space_group_name_H-M   'P 1'
_cell_length_a   7.87427868
_cell_length_b   7.87427868
_cell_length_c   7.87427868
_cell_angle_alpha   110.88918497
_cell_angle_beta   110.88918497
_cell_angle_gamma   106.67106014
_symmetry_Int_Tables_number   1
_chemical_formula_structural   La2CdSe4
_chemical_formula_sum   'La4 Cd2 Se8'
_cell_volume   375.17733592
_cell_formula_units_Z   2
loop_
 _symmetry_equiv_pos_site_id
 _symmetry_equiv_pos_as_xyz
  1  'x, y, z'
loop_
 _atom_site_type_symbol
 _atom_site_label
 _atom_site_symmetry_multiplicity
 _atom_site_fract_x
 _atom_site_fract_y
 _atom_site_fract_z
 _atom_site_occupancy
  La  La0  1  0.37500000  0.98695700  0.11195700  1
  La  La1  1  0.73695700  0.62500000  0.61195700  1
  La  La2  1  0.87500000  0.26304300  0.88804300  1
  La  La3  1  0.01304300  0.12500000  0.38804300  1
  Cd  Cd4  1  0.25000000  0.75000000  0.50000000  1
  Cd  Cd5  1  0.50000000  0.50000000  0.00000000  1
  Se  Se6  1  0.00543300  0.74116900  0.12547600  1
  Se  Se7  1  0.62995700  0.86569400  0.37452400  1
  Se  Se8  1  0.25883100  0.38430600  0.26426300  1
  Se  Se9  1  0.61569400  0.87995700  0.87452400  1
  Se  Se10  1  0.49116900  0.25543300  0.62547600  1
  Se  Se11  1  0.13430600  0.50883100  0.76426300  1
  Se  Se12  1  0.74456700  0.37004300  0.23573700  1
  Se  Se13  1  0.12004300  0.99456700  0.73573700  1
