# generated using pymatgen
data_Mg(InTe2)2
_symmetry_space_group_name_H-M   'P 1'
_cell_length_a   7.78159140
_cell_length_b   7.78159140
_cell_length_c   7.78159140
_cell_angle_alpha   131.92613531
_cell_angle_beta   131.92613531
_cell_angle_gamma   70.34571318
_symmetry_Int_Tables_number   1
_chemical_formula_structural   Mg(InTe2)2
_chemical_formula_sum   'Mg1 In2 Te4'
_cell_volume   255.61858646
_cell_formula_units_Z   1
loop_
 _symmetry_equiv_pos_site_id
 _symmetry_equiv_pos_as_xyz
  1  'x, y, z'
loop_
 _atom_site_type_symbol
 _atom_site_label
 _atom_site_symmetry_multiplicity
 _atom_site_fract_x
 _atom_site_fract_y
 _atom_site_fract_z
 _atom_site_occupancy
  Mg  Mg0  1  0.00000000  0.00000000  0.00000000  1
  In  In1  1  0.25000000  0.75000000  0.50000000  1
  In  In2  1  0.75000000  0.25000000  0.50000000  1
  Te  Te3  1  0.61485000  0.61485000  0.45324800  1
  Te  Te4  1  0.83839800  0.38515000  0.00000000  1
  Te  Te5  1  0.16160200  0.16160200  0.54675200  1
  Te  Te6  1  0.38515000  0.83839800  0.00000000  1
