# generated using pymatgen
data_Nd5CuSe8
_symmetry_space_group_name_H-M   'P 1'
_cell_length_a   7.70051197
_cell_length_b   7.70051197
_cell_length_c   7.70051197
_cell_angle_alpha   110.31459797
_cell_angle_beta   110.31459797
_cell_angle_gamma   107.79732210
_symmetry_Int_Tables_number   1
_chemical_formula_structural   Nd5CuSe8
_chemical_formula_sum   'Nd5 Cu1 Se8'
_cell_volume   351.28516635
_cell_formula_units_Z   1
loop_
 _symmetry_equiv_pos_site_id
 _symmetry_equiv_pos_as_xyz
  1  'x, y, z'
loop_
 _atom_site_type_symbol
 _atom_site_label
 _atom_site_symmetry_multiplicity
 _atom_site_fract_x
 _atom_site_fract_y
 _atom_site_fract_z
 _atom_site_occupancy
  Nd  Nd0  1  0.37927300  0.76060500  0.87739600  1
  Nd  Nd1  1  0.49812300  0.62072700  0.38133200  1
  Nd  Nd2  1  0.88320900  0.50187700  0.12260400  1
  Nd  Nd3  1  0.75000000  0.25000000  0.50000000  1
  Nd  Nd4  1  0.23939500  0.11679100  0.61866800  1
  Cu  Cu5  1  0.00000000  0.00000000  0.00000000  1
  Se  Se6  1  0.26199800  0.89088600  0.24004900  1
  Se  Se7  1  0.76140700  0.86548500  0.25894200  1
  Se  Se8  1  0.13451500  0.39345700  0.89592300  1
  Se  Se9  1  0.97805100  0.73800200  0.62888800  1
  Se  Se10  1  0.60654300  0.50246500  0.74105800  1
  Se  Se11  1  0.49753500  0.23859300  0.10407700  1
  Se  Se12  1  0.10911400  0.34916300  0.37111200  1
  Se  Se13  1  0.65083700  0.02194900  0.75995100  1
