# generated using pymatgen
data_Ho(Mo3S4)2
_symmetry_space_group_name_H-M   'P 1'
_cell_length_a   6.48975264
_cell_length_b   6.48975264
_cell_length_c   6.48975290
_cell_angle_alpha   89.36886355
_cell_angle_beta   89.36886355
_cell_angle_gamma   89.36886211
_symmetry_Int_Tables_number   1
_chemical_formula_structural   Ho(Mo3S4)2
_chemical_formula_sum   'Ho1 Mo6 S8'
_cell_volume   273.27881949
_cell_formula_units_Z   1
loop_
 _symmetry_equiv_pos_site_id
 _symmetry_equiv_pos_as_xyz
  1  'x, y, z'
loop_
 _atom_site_type_symbol
 _atom_site_label
 _atom_site_symmetry_multiplicity
 _atom_site_fract_x
 _atom_site_fract_y
 _atom_site_fract_z
 _atom_site_occupancy
  Ho  Ho0  1  0.00000000  0.00000000  0.00000000  1
  Mo  Mo1  1  0.41999500  0.22264300  0.56043900  1
  Mo  Mo2  1  0.22264300  0.56043900  0.41999500  1
  Mo  Mo3  1  0.58000500  0.77735700  0.43956200  1
  Mo  Mo4  1  0.56043900  0.41999500  0.22264300  1
  Mo  Mo5  1  0.77735700  0.43956200  0.58000500  1
  Mo  Mo6  1  0.43956200  0.58000500  0.77735700  1
  S  S7  1  0.24657000  0.87199900  0.63156200  1
  S  S8  1  0.36843800  0.75343000  0.12800100  1
  S  S9  1  0.75343000  0.12800100  0.36843800  1
  S  S10  1  0.76214500  0.76214500  0.76214500  1
  S  S11  1  0.87199900  0.63156200  0.24657000  1
  S  S12  1  0.63156200  0.24657000  0.87199900  1
  S  S13  1  0.23785500  0.23785500  0.23785500  1
  S  S14  1  0.12800100  0.36843800  0.75343000  1
