# generated using pymatgen
data_La2CdS4
_symmetry_space_group_name_H-M   'P 1'
_cell_length_a   7.56303873
_cell_length_b   7.56303873
_cell_length_c   7.56303873
_cell_angle_alpha   110.77568689
_cell_angle_beta   110.77568689
_cell_angle_gamma   106.89265386
_symmetry_Int_Tables_number   1
_chemical_formula_structural   La2CdS4
_chemical_formula_sum   'La4 Cd2 S8'
_cell_volume   332.51451350
_cell_formula_units_Z   2
loop_
 _symmetry_equiv_pos_site_id
 _symmetry_equiv_pos_as_xyz
  1  'x, y, z'
loop_
 _atom_site_type_symbol
 _atom_site_label
 _atom_site_symmetry_multiplicity
 _atom_site_fract_x
 _atom_site_fract_y
 _atom_site_fract_z
 _atom_site_occupancy
  La  La0  1  0.23254600  0.62500000  0.10754600  1
  La  La1  1  0.37500000  0.48254600  0.60754600  1
  La  La2  1  0.51745400  0.12500000  0.89245400  1
  La  La3  1  0.87500000  0.76745400  0.39245400  1
  Cd  Cd4  1  0.75000000  0.25000000  0.50000000  1
  Cd  Cd5  1  0.00000000  0.00000000  0.00000000  1
  S  S6  1  0.13145100  0.75977900  0.76583400  1
  S  S7  1  0.11561800  0.24394600  0.73416600  1
  S  S8  1  0.24022100  0.00605400  0.37167200  1
  S  S9  1  0.50977900  0.38145100  0.26583400  1
  S  S10  1  0.61854900  0.88438200  0.12832800  1
  S  S11  1  0.75605400  0.49022100  0.87167200  1
  S  S12  1  0.63438200  0.86854900  0.62832800  1
  S  S13  1  0.99394600  0.36561800  0.23416600  1
