# generated using pymatgen
data_La2PbS4
_symmetry_space_group_name_H-M   'P 1'
_cell_length_a   7.63233639
_cell_length_b   7.63233639
_cell_length_c   7.63233639
_cell_angle_alpha   109.33877959
_cell_angle_beta   109.33877959
_cell_angle_gamma   109.73642869
_symmetry_Int_Tables_number   1
_chemical_formula_structural   La2PbS4
_chemical_formula_sum   'La4 Pb2 S8'
_cell_volume   342.25014154
_cell_formula_units_Z   2
loop_
 _symmetry_equiv_pos_site_id
 _symmetry_equiv_pos_as_xyz
  1  'x, y, z'
loop_
 _atom_site_type_symbol
 _atom_site_label
 _atom_site_symmetry_multiplicity
 _atom_site_fract_x
 _atom_site_fract_y
 _atom_site_fract_z
 _atom_site_occupancy
  La  La0  1  0.62500000  0.00967400  0.88467400  1
  La  La1  1  0.12500000  0.74032600  0.11532600  1
  La  La2  1  0.99032600  0.87500000  0.61532600  1
  La  La3  1  0.25967400  0.37500000  0.38467400  1
  Pb  Pb4  1  0.50000000  0.50000000  0.00000000  1
  Pb  Pb5  1  0.75000000  0.25000000  0.50000000  1
  S  S6  1  0.51627700  0.76887400  0.40181800  1
  S  S7  1  0.88294400  0.98112600  0.24740300  1
  S  S8  1  0.73372300  0.63554100  0.75259700  1
  S  S9  1  0.01887400  0.26627700  0.90181800  1
  S  S10  1  0.88554100  0.48372300  0.25259700  1
  S  S11  1  0.36445900  0.11705600  0.09818200  1
  S  S12  1  0.23112600  0.63294400  0.74740300  1
  S  S13  1  0.36705600  0.11445900  0.59818200  1
