# generated using pymatgen
data_Y2(WO4)3
_symmetry_space_group_name_H-M   'P 1'
_cell_length_a   10.30873700
_cell_length_b   10.40004700
_cell_length_c   14.47027800
_cell_angle_alpha   90.00000000
_cell_angle_beta   90.00000000
_cell_angle_gamma   90.00000000
_symmetry_Int_Tables_number   1
_chemical_formula_structural   Y2(WO4)3
_chemical_formula_sum   'Y8 W12 O48'
_cell_volume   1551.37802928
_cell_formula_units_Z   4
loop_
 _symmetry_equiv_pos_site_id
 _symmetry_equiv_pos_as_xyz
  1  'x, y, z'
loop_
 _atom_site_type_symbol
 _atom_site_label
 _atom_site_symmetry_multiplicity
 _atom_site_fract_x
 _atom_site_fract_y
 _atom_site_fract_z
 _atom_site_occupancy
  Y  Y0  1  0.24966400  0.46875800  0.38344700  1
  Y  Y1  1  0.24966400  0.03124200  0.61655300  1
  Y  Y2  1  0.25033600  0.96875800  0.11655300  1
  Y  Y3  1  0.25033600  0.53124200  0.88344700  1
  Y  Y4  1  0.75033600  0.53124200  0.61655300  1
  Y  Y5  1  0.75033600  0.96875800  0.38344700  1
  Y  Y6  1  0.74966400  0.03124200  0.88344700  1
  Y  Y7  1  0.74966400  0.46875800  0.11655300  1
  W  W8  1  0.97210200  0.25000000  0.50000000  1
  W  W9  1  0.52789800  0.75000000  0.00000000  1
  W  W10  1  0.02789800  0.75000000  0.50000000  1
  W  W11  1  0.47210200  0.25000000  0.00000000  1
  W  W12  1  0.38904200  0.11169600  0.35697500  1
  W  W13  1  0.38904200  0.38830400  0.64302500  1
  W  W14  1  0.11095800  0.61169600  0.14302500  1
  W  W15  1  0.11095800  0.88830400  0.85697500  1
  W  W16  1  0.61095800  0.88830400  0.64302500  1
  W  W17  1  0.61095800  0.61169600  0.35697500  1
  W  W18  1  0.88904200  0.38830400  0.85697500  1
  W  W19  1  0.88904200  0.11169600  0.14302500  1
  O  O20  1  0.85676000  0.28013600  0.15841800  1
  O  O21  1  0.85676000  0.21986400  0.84158200  1
  O  O22  1  0.64324000  0.78013600  0.34158200  1
  O  O23  1  0.64324000  0.71986400  0.65841800  1
  O  O24  1  0.14324000  0.71986400  0.84158200  1
  O  O25  1  0.14324000  0.78013600  0.15841800  1
  O  O26  1  0.35676000  0.21986400  0.65841800  1
  O  O27  1  0.35676000  0.28013600  0.34158200  1
  O  O28  1  0.81994600  0.06083300  0.03540400  1
  O  O29  1  0.81994600  0.43916700  0.96459600  1
  O  O30  1  0.68005400  0.56083300  0.46459600  1
  O  O31  1  0.68005400  0.93916700  0.53540400  1
  O  O32  1  0.18005400  0.93916700  0.96459600  1
  O  O33  1  0.18005400  0.56083300  0.03540400  1
  O  O34  1  0.31994600  0.43916700  0.53540400  1
  O  O35  1  0.31994600  0.06083300  0.46459600  1
  O  O36  1  0.42684300  0.66139500  0.92146400  1
  O  O37  1  0.57315700  0.33860500  0.07853600  1
  O  O38  1  0.92684300  0.83860500  0.42146400  1
  O  O39  1  0.92684300  0.66139500  0.57853600  1
  O  O40  1  0.06110900  0.08510800  0.14053600  1
  O  O41  1  0.06110900  0.41489200  0.85946400  1
  O  O42  1  0.43889100  0.58510800  0.35946400  1
  O  O43  1  0.43889100  0.91489200  0.64053600  1
  O  O44  1  0.93889100  0.91489200  0.85946400  1
  O  O45  1  0.93889100  0.58510800  0.14053600  1
  O  O46  1  0.56110900  0.41489200  0.64053600  1
  O  O47  1  0.56110900  0.08510800  0.35946400  1
  O  O48  1  0.37151500  0.14147500  0.06441400  1
  O  O49  1  0.37151500  0.35852500  0.93558600  1
  O  O50  1  0.12848500  0.64147500  0.43558600  1
  O  O51  1  0.12848500  0.85852500  0.56441400  1
  O  O52  1  0.62848500  0.85852500  0.93558600  1
  O  O53  1  0.62848500  0.64147500  0.06441400  1
  O  O54  1  0.87151500  0.35852500  0.56441400  1
  O  O55  1  0.87151500  0.14147500  0.43558600  1
  O  O56  1  0.31827700  0.02077200  0.26420300  1
  O  O57  1  0.31827700  0.47922800  0.73579700  1
  O  O58  1  0.18172300  0.52077200  0.23579700  1
  O  O59  1  0.18172300  0.97922800  0.76420300  1
  O  O60  1  0.68172300  0.97922800  0.73579700  1
  O  O61  1  0.68172300  0.52077200  0.26420300  1
  O  O62  1  0.81827700  0.47922800  0.76420300  1
  O  O63  1  0.81827700  0.02077200  0.23579700  1
  O  O64  1  0.07315700  0.33860500  0.42146400  1
  O  O65  1  0.07315700  0.16139500  0.57853600  1
  O  O66  1  0.42684300  0.83860500  0.07853600  1
  O  O67  1  0.57315700  0.16139500  0.92146400  1
