# generated using pymatgen
data_SrAl2O4
_symmetry_space_group_name_H-M   'P 1'
_cell_length_a   5.19050372
_cell_length_b   5.19050372
_cell_length_c   25.38105400
_cell_angle_alpha   90.00000000
_cell_angle_beta   90.00000000
_cell_angle_gamma   119.99999644
_symmetry_Int_Tables_number   1
_chemical_formula_structural   SrAl2O4
_chemical_formula_sum   'Sr6 Al12 O24'
_cell_volume   592.18760606
_cell_formula_units_Z   6
loop_
 _symmetry_equiv_pos_site_id
 _symmetry_equiv_pos_as_xyz
  1  'x, y, z'
loop_
 _atom_site_type_symbol
 _atom_site_label
 _atom_site_symmetry_multiplicity
 _atom_site_fract_x
 _atom_site_fract_y
 _atom_site_fract_z
 _atom_site_occupancy
  Sr  Sr0  1  0.99770600  0.99541200  0.25000000  1
  Sr  Sr1  1  0.00229400  0.00458800  0.75000000  1
  Sr  Sr2  1  0.00458800  0.00229400  0.58333300  1
  Sr  Sr3  1  0.99770600  0.00229400  0.91666700  1
  Sr  Sr4  1  0.99541200  0.99770600  0.08333300  1
  Sr  Sr5  1  0.00229400  0.99770600  0.41666700  1
  Al  Al6  1  0.34983500  0.64214400  0.85130200  1
  Al  Al7  1  0.34983500  0.70769100  0.31536400  1
  Al  Al8  1  0.35785600  0.70769100  0.18463600  1
  Al  Al9  1  0.29230900  0.64214400  0.64869800  1
  Al  Al10  1  0.29230900  0.65016500  0.51796900  1
  Al  Al11  1  0.35785600  0.65016500  0.98203100  1
  Al  Al12  1  0.70769100  0.35785600  0.14869800  1
  Al  Al13  1  0.64214400  0.34983500  0.48203100  1
  Al  Al14  1  0.65016500  0.29230900  0.81536400  1
  Al  Al15  1  0.64214400  0.29230900  0.68463600  1
  Al  Al16  1  0.70769100  0.34983500  0.01796900  1
  Al  Al17  1  0.65016500  0.35785600  0.35130200  1
  O  O18  1  0.84508500  0.42254300  0.08333300  1
  O  O19  1  0.57745700  0.15491500  0.75000000  1
  O  O20  1  0.57745700  0.42254300  0.41666700  1
  O  O21  1  0.63731200  0.00840800  0.35115300  1
  O  O22  1  0.62890300  0.99159200  0.64884700  1
  O  O23  1  0.37109700  0.36268800  0.01782000  1
  O  O24  1  0.36268800  0.37109700  0.31551400  1
  O  O25  1  0.34042800  0.34042800  0.66666700  1
  O  O26  1  0.63731200  0.62890300  0.81551400  1
  O  O27  1  0.65957200  0.65957200  0.16666700  1
  O  O28  1  0.62890300  0.63731200  0.51782000  1
  O  O29  1  0.36268800  0.99159200  0.85115300  1
  O  O30  1  0.37109700  0.00840800  0.14884700  1
  O  O31  1  0.34042800  0.00000000  0.50000000  1
  O  O32  1  0.42254300  0.57745700  0.91666700  1
  O  O33  1  0.42254300  0.84508500  0.25000000  1
  O  O34  1  0.15491500  0.57745700  0.58333300  1
  O  O35  1  0.65957200  0.00000000  0.00000000  1
  O  O36  1  0.00840800  0.63731200  0.98218000  1
  O  O37  1  0.00000000  0.65957200  0.33333300  1
  O  O38  1  0.99159200  0.62890300  0.68448600  1
  O  O39  1  0.00000000  0.34042800  0.83333300  1
  O  O40  1  0.00840800  0.37109700  0.18448600  1
  O  O41  1  0.99159200  0.36268800  0.48218000  1
