# generated using pymatgen
data_Cd(Ga3Te5)2
_symmetry_space_group_name_H-M   'P 1'
_cell_length_a   7.53412824
_cell_length_b   7.53412824
_cell_length_c   13.38282310
_cell_angle_alpha   88.94261389
_cell_angle_beta   88.94261389
_cell_angle_gamma   48.34680029
_symmetry_Int_Tables_number   1
_chemical_formula_structural   Cd(Ga3Te5)2
_chemical_formula_sum   'Cd1 Ga6 Te10'
_cell_volume   567.48042695
_cell_formula_units_Z   1
loop_
 _symmetry_equiv_pos_site_id
 _symmetry_equiv_pos_as_xyz
  1  'x, y, z'
loop_
 _atom_site_type_symbol
 _atom_site_label
 _atom_site_symmetry_multiplicity
 _atom_site_fract_x
 _atom_site_fract_y
 _atom_site_fract_z
 _atom_site_occupancy
  Cd  Cd0  1  0.89973500  0.10026500  0.50000000  1
  Ga  Ga1  1  0.00327600  0.19238500  0.80148800  1
  Ga  Ga2  1  0.71393900  0.89367100  0.89877600  1
  Ga  Ga3  1  0.80761500  0.99672400  0.19851200  1
  Ga  Ga4  1  0.10632900  0.28606100  0.10122400  1
  Ga  Ga5  1  0.20124900  0.39563400  0.39972700  1
  Ga  Ga6  1  0.60436600  0.79875100  0.60027300  1
  Te  Te7  1  0.78268900  0.50710800  0.95425000  1
  Te  Te8  1  0.10509000  0.79338200  0.84392800  1
  Te  Te9  1  0.20661800  0.89491000  0.15607200  1
  Te  Te10  1  0.49289200  0.21731100  0.04575000  1
  Te  Te11  1  0.57463500  0.33817500  0.33675800  1
  Te  Te12  1  0.87668000  0.60558900  0.25119900  1
  Te  Te13  1  0.03129900  0.66223000  0.56488200  1
  Te  Te14  1  0.33777000  0.96870100  0.43511800  1
  Te  Te15  1  0.39441100  0.12332000  0.74880100  1
  Te  Te16  1  0.66182500  0.42536500  0.66324200  1
