# generated using pymatgen
data_Y(AgCl2)3
_symmetry_space_group_name_H-M   'P 1'
_cell_length_a   7.38330899
_cell_length_b   7.38330899
_cell_length_c   7.38330857
_cell_angle_alpha   56.56391989
_cell_angle_beta   56.56391989
_cell_angle_gamma   56.56392481
_symmetry_Int_Tables_number   1
_chemical_formula_structural   Y(AgCl2)3
_chemical_formula_sum   'Y1 Ag3 Cl6'
_cell_volume   262.00585303
_cell_formula_units_Z   1
loop_
 _symmetry_equiv_pos_site_id
 _symmetry_equiv_pos_as_xyz
  1  'x, y, z'
loop_
 _atom_site_type_symbol
 _atom_site_label
 _atom_site_symmetry_multiplicity
 _atom_site_fract_x
 _atom_site_fract_y
 _atom_site_fract_z
 _atom_site_occupancy
  Y  Y0  1  0.00000000  0.00000000  0.00000000  1
  Ag  Ag1  1  0.20749600  0.20749600  0.20749600  1
  Ag  Ag2  1  0.50000000  0.50000000  0.50000000  1
  Ag  Ag3  1  0.79250400  0.79250400  0.79250400  1
  Cl  Cl4  1  0.77016100  0.38266000  0.10301100  1
  Cl  Cl5  1  0.10301100  0.77016100  0.38266000  1
  Cl  Cl6  1  0.38266000  0.10301100  0.77016100  1
  Cl  Cl7  1  0.61734000  0.89698900  0.22983900  1
  Cl  Cl8  1  0.89698900  0.22983900  0.61734000  1
  Cl  Cl9  1  0.22983900  0.61734000  0.89698900  1
