# generated using pymatgen
data_CaGe2O5
_symmetry_space_group_name_H-M   'P 1'
_cell_length_a   5.56154154
_cell_length_b   5.56154154
_cell_length_c   6.98504281
_cell_angle_alpha   76.12672259
_cell_angle_beta   76.12672259
_cell_angle_gamma   106.31914531
_symmetry_Int_Tables_number   1
_chemical_formula_structural   CaGe2O5
_chemical_formula_sum   'Ca2 Ge4 O10'
_cell_volume   190.04676820
_cell_formula_units_Z   2
loop_
 _symmetry_equiv_pos_site_id
 _symmetry_equiv_pos_as_xyz
  1  'x, y, z'
loop_
 _atom_site_type_symbol
 _atom_site_label
 _atom_site_symmetry_multiplicity
 _atom_site_fract_x
 _atom_site_fract_y
 _atom_site_fract_z
 _atom_site_occupancy
  Ca  Ca0  1  0.32851800  0.67148200  0.75000000  1
  Ca  Ca1  1  0.67148200  0.32851800  0.25000000  1
  Ge  Ge2  1  0.31544600  0.68455400  0.25000000  1
  Ge  Ge3  1  0.68455400  0.31544600  0.75000000  1
  Ge  Ge4  1  0.00000000  0.00000000  0.00000000  1
  Ge  Ge5  1  0.00000000  0.00000000  0.50000000  1
  O  O6  1  0.90194200  0.30815900  0.89856100  1
  O  O7  1  0.69184100  0.09805800  0.60143900  1
  O  O8  1  0.09805800  0.69184100  0.10143900  1
  O  O9  1  0.30815900  0.90194200  0.39856100  1
  O  O10  1  0.63432400  0.75088100  0.07481300  1
  O  O11  1  0.24911900  0.36567600  0.42518700  1
  O  O12  1  0.07010400  0.92989600  0.75000000  1
  O  O13  1  0.92989600  0.07010400  0.25000000  1
  O  O14  1  0.75088100  0.63432400  0.57481300  1
  O  O15  1  0.36567600  0.24911900  0.92518700  1
