# generated using pymatgen
data_TaBi3O7
_symmetry_space_group_name_H-M   'P 1'
_cell_length_a   3.93526121
_cell_length_b   3.93526121
_cell_length_c   12.90335265
_cell_angle_alpha   80.91185019
_cell_angle_beta   80.91185019
_cell_angle_gamma   57.25073346
_symmetry_Int_Tables_number   1
_chemical_formula_structural   TaBi3O7
_chemical_formula_sum   'Ta1 Bi3 O7'
_cell_volume   165.31850872
_cell_formula_units_Z   1
loop_
 _symmetry_equiv_pos_site_id
 _symmetry_equiv_pos_as_xyz
  1  'x, y, z'
loop_
 _atom_site_type_symbol
 _atom_site_label
 _atom_site_symmetry_multiplicity
 _atom_site_fract_x
 _atom_site_fract_y
 _atom_site_fract_z
 _atom_site_occupancy
  Ta  Ta0  1  0.45284700  0.45284700  0.50570800  1
  Bi  Bi1  1  0.99544600  0.99544600  0.01453400  1
  Bi  Bi2  1  0.75035100  0.75035100  0.73768400  1
  Bi  Bi3  1  0.24545600  0.24545600  0.27439000  1
  O  O4  1  0.46699400  0.46699400  0.65980700  1
  O  O5  1  0.18464400  0.18464400  0.46971300  1
  O  O6  1  0.07639300  0.07639300  0.82450600  1
  O  O7  1  0.93972800  0.93972800  0.19746600  1
  O  O8  1  0.83821300  0.83821300  0.54543500  1
  O  O9  1  0.54669100  0.54669100  0.35319500  1
  O  O10  1  0.31643500  0.31643500  0.03018800  1
