# generated using pymatgen
data_UNb3O10
_symmetry_space_group_name_H-M   'P 1'
_cell_length_a   10.39014005
_cell_length_b   8.92000734
_cell_length_c   7.53025286
_cell_angle_alpha   77.83189836
_cell_angle_beta   57.05776101
_cell_angle_gamma   45.11034062
_symmetry_Int_Tables_number   1
_chemical_formula_structural   UNb3O10
_chemical_formula_sum   'U2 Nb6 O20'
_cell_volume   396.99215158
_cell_formula_units_Z   2
loop_
 _symmetry_equiv_pos_site_id
 _symmetry_equiv_pos_as_xyz
  1  'x, y, z'
loop_
 _atom_site_type_symbol
 _atom_site_label
 _atom_site_symmetry_multiplicity
 _atom_site_fract_x
 _atom_site_fract_y
 _atom_site_fract_z
 _atom_site_occupancy
  U  U0  1  0.00000000  0.00000000  0.00000000  1
  U  U1  1  0.25000000  0.25000000  0.25000000  1
  Nb  Nb2  1  0.73873500  0.73873500  0.26126500  1
  Nb  Nb3  1  0.26126500  0.26126500  0.73873500  1
  Nb  Nb4  1  0.51126500  0.51126500  0.98873500  1
  Nb  Nb5  1  0.98873500  0.98873500  0.51126500  1
  Nb  Nb6  1  0.50000000  0.50000000  0.50000000  1
  Nb  Nb7  1  0.75000000  0.75000000  0.75000000  1
  O  O8  1  0.79692900  0.20307100  0.79692900  1
  O  O9  1  0.20307100  0.79692900  0.20307100  1
  O  O10  1  0.45307100  0.04692900  0.45307100  1
  O  O11  1  0.04692900  0.45307100  0.04692900  1
  O  O12  1  0.88421100  0.88421100  0.11578900  1
  O  O13  1  0.11578900  0.11578900  0.88421100  1
  O  O14  1  0.36578900  0.36578900  0.13421100  1
  O  O15  1  0.13421100  0.13421100  0.36578900  1
  O  O16  1  0.84999300  0.65446800  0.44792700  1
  O  O17  1  0.04761300  0.44792700  0.65446800  1
  O  O18  1  0.44792700  0.04761300  0.84999300  1
  O  O19  1  0.65446800  0.84999300  0.04761300  1
  O  O20  1  0.40000700  0.59553200  0.80207300  1
  O  O21  1  0.20238700  0.80207300  0.59553200  1
  O  O22  1  0.80207300  0.20238700  0.40000700  1
  O  O23  1  0.59553200  0.40000700  0.20238700  1
  O  O24  1  0.87393500  0.87393500  0.62606500  1
  O  O25  1  0.62606500  0.62606500  0.87393500  1
  O  O26  1  0.37606500  0.37606500  0.62393500  1
  O  O27  1  0.62393500  0.62393500  0.37606500  1
