data_image0
_chemical_formula_structural       Al2K2Te4
_chemical_formula_sum              "Al2 K2 Te4"
_cell_length_a       7.0167
_cell_length_b       7.08885
_cell_length_c       7.08885
_cell_angle_alpha    104.178
_cell_angle_beta     60.3361
_cell_angle_gamma    119.664

_space_group_name_H-M_alt    "P 1"
_space_group_IT_number       1

loop_
  _space_group_symop_operation_xyz
  'x, y, z'

loop_
  _atom_site_type_symbol
  _atom_site_label
  _atom_site_symmetry_multiplicity
  _atom_site_fract_x
  _atom_site_fract_y
  _atom_site_fract_z
  _atom_site_occupancy
  Al  Al1       1.0  0.25000  0.50000  0.50000  1.0000
  Al  Al2       1.0  0.75000  0.50000  0.50000  1.0000
  K   K1        1.0  0.25000  0.00000  0.00000  1.0000
  K   K2        1.0  0.75000  0.00000  0.00000  1.0000
  Te  Te1       1.0  0.16400  0.50000  0.17300  1.0000
  Te  Te2       1.0  0.33600  0.17300  0.50000  1.0000
  Te  Te3       1.0  0.66400  0.82700  0.50000  1.0000
  Te  Te4       1.0  0.83600  0.50000  0.82700  1.0000
