# generated using pymatgen
data_NaCN
_symmetry_space_group_name_H-M   'P 1'
_cell_length_a   4.13482767
_cell_length_b   4.13482767
_cell_length_c   4.13482767
_cell_angle_alpha   127.06579813
_cell_angle_beta   108.53092434
_cell_angle_gamma   94.55705447
_symmetry_Int_Tables_number   1
_chemical_formula_structural   NaCN
_chemical_formula_sum   'Na1 C1 N1'
_cell_volume   49.93476924
_cell_formula_units_Z   1
loop_
 _symmetry_equiv_pos_site_id
 _symmetry_equiv_pos_as_xyz
  1  'x, y, z'
loop_
 _atom_site_type_symbol
 _atom_site_label
 _atom_site_symmetry_multiplicity
 _atom_site_fract_x
 _atom_site_fract_y
 _atom_site_fract_z
 _atom_site_occupancy
  Na  Na0  1  0.98858200  0.00000000  0.98858200  1
  C  C1  1  0.38386900  0.50000000  0.88386900  1
  N  N2  1  0.62754900  0.50000000  0.12754900  1
