# generated using pymatgen
data_Eu(YS2)2
_symmetry_space_group_name_H-M   'P 1'
_cell_length_a   7.32026000
_cell_length_b   7.32026000
_cell_length_c   7.32026000
_cell_angle_alpha   109.27287947
_cell_angle_beta   109.27287947
_cell_angle_gamma   109.86863539
_symmetry_Int_Tables_number   1
_chemical_formula_structural   Eu(YS2)2
_chemical_formula_sum   'Eu2 Y4 S8'
_cell_volume   301.95480559
_cell_formula_units_Z   2
loop_
 _symmetry_equiv_pos_site_id
 _symmetry_equiv_pos_as_xyz
  1  'x, y, z'
loop_
 _atom_site_type_symbol
 _atom_site_label
 _atom_site_symmetry_multiplicity
 _atom_site_fract_x
 _atom_site_fract_y
 _atom_site_fract_z
 _atom_site_occupancy
  Eu  Eu0  1  0.50000000  0.50000000  0.00000000  1
  Eu  Eu1  1  0.75000000  0.25000000  0.50000000  1
  Y  Y2  1  0.00040800  0.37500000  0.12540800  1
  Y  Y3  1  0.12500000  0.99959200  0.37459200  1
  Y  Y4  1  0.24959200  0.87500000  0.87459200  1
  Y  Y5  1  0.62500000  0.75040800  0.62540800  1
  S  S6  1  0.88413400  0.63635300  0.89892200  1
  S  S7  1  0.88635300  0.63413400  0.39892200  1
  S  S8  1  0.01478800  0.11586600  0.75221800  1
  S  S9  1  0.23521200  0.48743100  0.60107800  1
  S  S10  1  0.36586600  0.76478800  0.25221800  1
  S  S11  1  0.51256900  0.11364700  0.74778200  1
  S  S12  1  0.36364700  0.26256900  0.24778200  1
  S  S13  1  0.73743100  0.98521200  0.10107800  1
