# generated using pymatgen
data_Cd(InSe2)2
_symmetry_space_group_name_H-M   'P 1'
_cell_length_a   6.89561133
_cell_length_b   6.89561133
_cell_length_c   6.89561133
_cell_angle_alpha   130.58662721
_cell_angle_beta   130.58662721
_cell_angle_gamma   72.47067002
_symmetry_Int_Tables_number   1
_chemical_formula_structural   Cd(InSe2)2
_chemical_formula_sum   'Cd1 In2 Se4'
_cell_volume   184.81235024
_cell_formula_units_Z   1
loop_
 _symmetry_equiv_pos_site_id
 _symmetry_equiv_pos_as_xyz
  1  'x, y, z'
loop_
 _atom_site_type_symbol
 _atom_site_label
 _atom_site_symmetry_multiplicity
 _atom_site_fract_x
 _atom_site_fract_y
 _atom_site_fract_z
 _atom_site_occupancy
  Cd  Cd0  1  0.75000000  0.25000000  0.50000000  1
  In  In1  1  0.25000000  0.75000000  0.50000000  1
  In  In2  1  0.50000000  0.50000000  0.00000000  1
  Se  Se3  1  0.73950800  0.73950800  0.00000000  1
  Se  Se4  1  0.49068100  0.99068100  0.50000000  1
  Se  Se5  1  0.00931900  0.50931900  0.50000000  1
  Se  Se6  1  0.26049200  0.26049200  0.00000000  1
