# generated using pymatgen
data_Na3(WO3)4
_symmetry_space_group_name_H-M   'P 1'
_cell_length_a   6.81324880
_cell_length_b   6.81324880
_cell_length_c   6.81324880
_cell_angle_alpha   109.58610178
_cell_angle_beta   109.42993577
_cell_angle_gamma   109.39768707
_symmetry_Int_Tables_number   1
_chemical_formula_structural   Na3(WO3)4
_chemical_formula_sum   'Na3 W4 O12'
_cell_volume   243.46666694
_cell_formula_units_Z   1
loop_
 _symmetry_equiv_pos_site_id
 _symmetry_equiv_pos_as_xyz
  1  'x, y, z'
loop_
 _atom_site_type_symbol
 _atom_site_label
 _atom_site_symmetry_multiplicity
 _atom_site_fract_x
 _atom_site_fract_y
 _atom_site_fract_z
 _atom_site_occupancy
  Na  Na0  1  0.50000000  0.00000000  0.50000000  1
  Na  Na1  1  0.50000000  0.50000000  0.00000000  1
  Na  Na2  1  0.00000000  0.50000000  0.50000000  1
  W  W3  1  0.50000000  0.00000000  0.00000000  1
  W  W4  1  0.00000000  0.50000000  0.00000000  1
  W  W5  1  0.50000000  0.50000000  0.50000000  1
  W  W6  1  0.00000000  0.00000000  0.50000000  1
  O  O7  1  0.74512800  0.25428800  0.99941600  1
  O  O8  1  0.01743200  0.25094200  0.76648900  1
  O  O9  1  0.74934600  0.02082400  0.27147800  1
  O  O10  1  0.25487200  0.74571200  0.00058400  1
  O  O11  1  0.25487200  0.25428800  0.50915900  1
  O  O12  1  0.25065400  0.52213200  0.27147800  1
  O  O13  1  0.51554700  0.74905800  0.76648900  1
  O  O14  1  0.48445300  0.25094200  0.23351100  1
  O  O15  1  0.74934600  0.47786800  0.72852200  1
  O  O16  1  0.74512800  0.74571200  0.49084100  1
  O  O17  1  0.98256800  0.74905800  0.23351100  1
  O  O18  1  0.25065400  0.97917600  0.72852200  1
