# generated using pymatgen
data_Li3Cr4P5O24
_symmetry_space_group_name_H-M   'P 1'
_cell_length_a   8.27263400
_cell_length_b   9.18604801
_cell_length_c   13.76238444
_cell_angle_alpha   93.10573311
_cell_angle_beta   107.49077725
_cell_angle_gamma   63.23819435
_symmetry_Int_Tables_number   1
_chemical_formula_structural   Li3Cr4P5O24
_chemical_formula_sum   'Li6 Cr8 P10 O48'
_cell_volume   886.59002533
_cell_formula_units_Z   2
loop_
 _symmetry_equiv_pos_site_id
 _symmetry_equiv_pos_as_xyz
  1  'x, y, z'
loop_
 _atom_site_type_symbol
 _atom_site_label
 _atom_site_symmetry_multiplicity
 _atom_site_fract_x
 _atom_site_fract_y
 _atom_site_fract_z
 _atom_site_occupancy
  Li  Li0  1  0.95581400  0.99395000  0.26841100  1
  Li  Li1  1  0.31864800  0.49395000  0.76841100  1
  Li  Li2  1  0.68194400  0.50497300  0.23763500  1
  Li  Li3  1  0.98499500  0.54129500  0.05144500  1
  Li  Li4  1  0.05071800  0.00497300  0.73763500  1
  Li  Li5  1  0.52515500  0.04129500  0.55144500  1
  Cr  Cr6  1  0.52955600  0.98893400  0.18065900  1
  Cr  Cr7  1  0.18468700  0.71691000  0.97816100  1
  Cr  Cr8  1  0.92494300  0.77995300  0.52119600  1
  Cr  Cr9  1  0.66217000  0.48893400  0.68065900  1
  Cr  Cr10  1  0.34369500  0.51123500  0.32098900  1
  Cr  Cr11  1  0.07656400  0.21691000  0.47816100  1
  Cr  Cr12  1  0.81630000  0.27995300  0.02119600  1
  Cr  Cr13  1  0.46605900  0.01123500  0.82098900  1
  P  P14  1  0.28903300  0.87488300  0.60688600  1
  P  P15  1  0.80232600  0.94401900  0.04079000  1
  P  P16  1  0.84584600  0.75241500  0.74902300  1
  P  P17  1  0.56021700  0.62371800  0.89580400  1
  P  P18  1  0.71031200  0.55398200  0.46103500  1
  P  P19  1  0.29444400  0.44401900  0.54079000  1
  P  P20  1  0.44297000  0.37488300  0.10688600  1
  P  P21  1  0.15076300  0.25241500  0.24902300  1
  P  P22  1  0.19674200  0.05398200  0.96103500  1
  P  P23  1  0.71186800  0.12371800  0.39580400  1
  O  O24  1  0.10652300  0.93689300  0.91718300  1
  O  O25  1  0.29220500  0.99097700  0.52887300  1
  O  O26  1  0.30204900  0.94594600  0.71388100  1
  O  O27  1  0.67413700  0.90141900  0.76757100  1
  O  O28  1  0.37522100  0.96280500  0.05277800  1
  O  O29  1  0.09168800  0.87911100  0.58333500  1
  O  O30  1  0.54938900  0.79208400  0.89388300  1
  O  O31  1  0.75354700  0.89575700  0.12968500  1
  O  O32  1  0.87375700  0.82165700  0.65852800  1
  O  O33  1  0.59890800  0.80989000  0.23348800  1
  O  O34  1  0.95795900  0.76200400  0.41120300  1
  O  O35  1  0.03279000  0.69101900  0.83900400  1
  O  O36  1  0.44864200  0.70659800  0.60903600  1
  O  O37  1  0.95106800  0.77888400  0.01637300  1
  O  O38  1  0.72634900  0.71339400  0.48870500  1
  O  O39  1  0.38719700  0.61889800  0.91614300  1
  O  O40  1  0.30502400  0.74183000  0.08776800  1
  O  O41  1  0.17863900  0.68949600  0.26708600  1
  O  O42  1  0.81083700  0.60127900  0.72721700  1
  O  O43  1  0.54352500  0.55061500  0.79001700  1
  O  O44  1  0.75208900  0.51147500  0.97886700  1
  O  O45  1  0.52402400  0.60286900  0.37190000  1
  O  O46  1  0.12783800  0.56022800  0.58248800  1
  O  O47  1  0.28470300  0.53451200  0.44722300  1
  O  O48  1  0.71475200  0.46280500  0.55277800  1
  O  O49  1  0.87376600  0.43689300  0.41718300  1
  O  O50  1  0.48038100  0.39575700  0.62968500  1
  O  O51  1  0.24569000  0.49097700  0.02887300  1
  O  O52  1  0.46588700  0.44594600  0.21388100  1
  O  O53  1  0.19201300  0.40141900  0.26757100  1
  O  O54  1  0.82469000  0.30989000  0.73348800  1
  O  O55  1  0.69124000  0.26200400  0.91120300  1
  O  O56  1  0.61253600  0.37911100  0.08333500  1
  O  O57  1  0.28642000  0.27888400  0.51637300  1
  O  O58  1  0.04896200  0.21339400  0.98870500  1
  O  O59  1  0.55241100  0.29208400  0.39388300  1
  O  O60  1  0.96311500  0.32165700  0.15852800  1
  O  O61  1  0.04091600  0.24183000  0.58776800  1
  O  O62  1  0.39895000  0.18949600  0.76708600  1
  O  O63  1  0.11519600  0.19101900  0.33900400  1
  O  O64  1  0.24500700  0.10286900  0.87190000  1
  O  O65  1  0.45379700  0.20659800  0.10903600  1
  O  O66  1  0.91004800  0.11889800  0.41614300  1
  O  O67  1  0.62800900  0.03451200  0.94722300  1
  O  O68  1  0.31510100  0.10127900  0.22721700  1
  O  O69  1  0.69587700  0.05061500  0.29001700  1
  O  O70  1  0.71530300  0.01147500  0.47886700  1
  O  O71  1  0.89442000  0.06022800  0.08248800  1
