# generated using pymatgen
data_Sm2AsSe
_symmetry_space_group_name_H-M   'P 1'
_cell_length_a   7.27622474
_cell_length_b   7.27622474
_cell_length_c   7.27622474
_cell_angle_alpha   131.90705072
_cell_angle_beta   131.90705072
_cell_angle_gamma   70.37586984
_symmetry_Int_Tables_number   1
_chemical_formula_structural   Sm2AsSe
_chemical_formula_sum   'Sm4 As2 Se2'
_cell_volume   209.09766426
_cell_formula_units_Z   2
loop_
 _symmetry_equiv_pos_site_id
 _symmetry_equiv_pos_as_xyz
  1  'x, y, z'
loop_
 _atom_site_type_symbol
 _atom_site_label
 _atom_site_symmetry_multiplicity
 _atom_site_fract_x
 _atom_site_fract_y
 _atom_site_fract_z
 _atom_site_occupancy
  Sm  Sm0  1  0.74466000  0.74466000  0.00000000  1
  Sm  Sm1  1  0.49466000  0.99466000  0.50000000  1
  Sm  Sm2  1  0.25534000  0.25534000  0.00000000  1
  Sm  Sm3  1  0.00534000  0.50534000  0.50000000  1
  As  As4  1  0.50000000  0.50000000  0.00000000  1
  As  As5  1  0.25000000  0.75000000  0.50000000  1
  Se  Se6  1  0.00000000  0.00000000  0.00000000  1
  Se  Se7  1  0.75000000  0.25000000  0.50000000  1
