# generated using pymatgen
data_Pr6Fe13Ag
_symmetry_space_group_name_H-M   'P 1'
_cell_length_a   13.04773110
_cell_length_b   13.04773110
_cell_length_c   13.04773110
_cell_angle_alpha   143.94720864
_cell_angle_beta   143.94720864
_cell_angle_gamma   51.90624118
_symmetry_Int_Tables_number   1
_chemical_formula_structural   Pr6Fe13Ag
_chemical_formula_sum   'Pr12 Fe26 Ag2'
_cell_volume   765.05667022
_cell_formula_units_Z   2
loop_
 _symmetry_equiv_pos_site_id
 _symmetry_equiv_pos_as_xyz
  1  'x, y, z'
loop_
 _atom_site_type_symbol
 _atom_site_label
 _atom_site_symmetry_multiplicity
 _atom_site_fract_x
 _atom_site_fract_y
 _atom_site_fract_z
 _atom_site_occupancy
  Pr  Pr0  1  0.34721900  0.84721900  0.82552400  1
  Pr  Pr1  1  0.47830500  0.65278100  0.50000000  1
  Pr  Pr2  1  0.15278100  0.97830500  0.50000000  1
  Pr  Pr3  1  0.97830500  0.47830500  0.82552400  1
  Pr  Pr4  1  0.65278100  0.15278100  0.17447600  1
  Pr  Pr5  1  0.52169500  0.34721900  0.50000000  1
  Pr  Pr6  1  0.02169500  0.52169500  0.17447600  1
  Pr  Pr7  1  0.84721900  0.02169500  0.50000000  1
  Pr  Pr8  1  0.10513000  0.10513000  0.00000000  1
  Pr  Pr9  1  0.39487000  0.39487000  0.00000000  1
  Pr  Pr10  1  0.89487000  0.89487000  0.00000000  1
  Pr  Pr11  1  0.60513000  0.60513000  0.00000000  1
  Fe  Fe12  1  0.20999300  0.93347900  0.14347200  1
  Fe  Fe13  1  0.12047100  0.62047100  0.85731400  1
  Fe  Fe14  1  0.20700800  0.47964000  0.50000000  1
  Fe  Fe15  1  0.79299200  0.52036000  0.50000000  1
  Fe  Fe16  1  0.02036000  0.29299200  0.50000000  1
  Fe  Fe17  1  0.29299200  0.79299200  0.27263200  1
  Fe  Fe18  1  0.52036000  0.02036000  0.72736800  1
  Fe  Fe19  1  0.47964000  0.97964000  0.27263200  1
  Fe  Fe20  1  0.70700800  0.20700800  0.72736800  1
  Fe  Fe21  1  0.97964000  0.70700800  0.50000000  1
  Fe  Fe22  1  0.37952900  0.23684200  0.50000000  1
  Fe  Fe23  1  0.62047100  0.76315800  0.50000000  1
  Fe  Fe24  1  0.50000000  0.00000000  0.50000000  1
  Fe  Fe25  1  0.76315800  0.26315800  0.14268600  1
  Fe  Fe26  1  0.56652100  0.29000700  0.85652800  1
  Fe  Fe27  1  0.29000700  0.43347900  0.72348600  1
  Fe  Fe28  1  0.70999300  0.56652100  0.27651400  1
  Fe  Fe29  1  0.93347900  0.79000700  0.72348600  1
  Fe  Fe30  1  0.06652100  0.20999300  0.27651400  1
  Fe  Fe31  1  0.79000700  0.06652100  0.85652800  1
  Fe  Fe32  1  0.00000000  0.50000000  0.50000000  1
  Fe  Fe33  1  0.43347900  0.70999300  0.14347200  1
  Fe  Fe34  1  0.73684200  0.87952900  0.50000000  1
  Fe  Fe35  1  0.87952900  0.37952900  0.14268600  1
  Fe  Fe36  1  0.23684200  0.73684200  0.85731400  1
  Fe  Fe37  1  0.26315800  0.12047100  0.50000000  1
  Ag  Ag38  1  0.75000000  0.75000000  0.00000000  1
  Ag  Ag39  1  0.25000000  0.25000000  0.00000000  1
