# generated using pymatgen
data_Y2U3O11
_symmetry_space_group_name_H-M   'P 1'
_cell_length_a   9.96308327
_cell_length_b   9.96308327
_cell_length_c   9.96308327
_cell_angle_alpha   158.10934254
_cell_angle_beta   148.28672455
_cell_angle_gamma   38.86867135
_symmetry_Int_Tables_number   1
_chemical_formula_structural   Y2U3O11
_chemical_formula_sum   'Y2 U3 O11'
_cell_volume   193.53328241
_cell_formula_units_Z   1
loop_
 _symmetry_equiv_pos_site_id
 _symmetry_equiv_pos_as_xyz
  1  'x, y, z'
loop_
 _atom_site_type_symbol
 _atom_site_label
 _atom_site_symmetry_multiplicity
 _atom_site_fract_x
 _atom_site_fract_y
 _atom_site_fract_z
 _atom_site_occupancy
  Y  Y0  1  0.79709500  0.79709500  0.00000000  1
  Y  Y1  1  0.20290500  0.20290500  0.00000000  1
  U  U2  1  0.59817300  0.59817300  0.00000000  1
  U  U3  1  0.00000000  0.00000000  0.00000000  1
  U  U4  1  0.40182700  0.40182700  0.00000000  1
  O  O5  1  0.07073200  0.30750800  0.76322400  1
  O  O6  1  0.45571500  0.69249200  0.76322400  1
  O  O7  1  0.54428500  0.30750800  0.23677600  1
  O  O8  1  0.86234600  0.10064600  0.76170100  1
  O  O9  1  0.92926800  0.69249200  0.23677600  1
  O  O10  1  0.21933300  0.50000000  0.71933300  1
  O  O11  1  0.33894500  0.10064600  0.23829900  1
  O  O12  1  0.50000000  0.00000000  0.50000000  1
  O  O13  1  0.66105500  0.89935400  0.76170100  1
  O  O14  1  0.78066700  0.50000000  0.28066700  1
  O  O15  1  0.13765400  0.89935400  0.23829900  1
