# generated using pymatgen
data_Co2NiO4
_symmetry_space_group_name_H-M   'P 1'
_cell_length_a   5.79206259
_cell_length_b   5.79206259
_cell_length_c   5.79206259
_cell_angle_alpha   119.73983846
_cell_angle_beta   119.65165883
_cell_angle_gamma   90.52780841
_symmetry_Int_Tables_number   1
_chemical_formula_structural   Co2NiO4
_chemical_formula_sum   'Co4 Ni2 O8'
_cell_volume   138.02479321
_cell_formula_units_Z   2
loop_
 _symmetry_equiv_pos_site_id
 _symmetry_equiv_pos_as_xyz
  1  'x, y, z'
loop_
 _atom_site_type_symbol
 _atom_site_label
 _atom_site_symmetry_multiplicity
 _atom_site_fract_x
 _atom_site_fract_y
 _atom_site_fract_z
 _atom_site_occupancy
  Co  Co0  1  0.38298800  0.13298800  0.25000000  1
  Co  Co1  1  0.00000000  0.50000000  0.50000000  1
  Co  Co2  1  0.50000000  0.50000000  0.00000000  1
  Co  Co3  1  0.61701200  0.86701200  0.75000000  1
  Ni  Ni4  1  0.00000000  0.00000000  0.50000000  1
  Ni  Ni5  1  0.00000000  0.50000000  0.00000000  1
  O  O6  1  0.77547700  0.26469700  0.51077900  1
  O  O7  1  0.24983700  0.27568300  0.52584600  1
  O  O8  1  0.25391800  0.26469700  0.98922100  1
  O  O9  1  0.24983700  0.72399100  0.97415400  1
  O  O10  1  0.75016300  0.27600900  0.02584600  1
  O  O11  1  0.74608200  0.73530300  0.01077900  1
  O  O12  1  0.75016300  0.72431700  0.47415400  1
  O  O13  1  0.22452300  0.73530300  0.48922100  1
