data_image0
_chemical_formula_structural       Ca4Ni2O12Os2
_chemical_formula_sum              "Ca4 Ni2 O12 Os2"
_cell_length_a       5.33936
_cell_length_b       5.54227
_cell_length_c       7.61634
_cell_angle_alpha    90
_cell_angle_beta     90.3408
_cell_angle_gamma    90

_space_group_name_H-M_alt    "P 1"
_space_group_IT_number       1

loop_
  _space_group_symop_operation_xyz
  'x, y, z'

loop_
  _atom_site_type_symbol
  _atom_site_label
  _atom_site_symmetry_multiplicity
  _atom_site_fract_x
  _atom_site_fract_y
  _atom_site_fract_z
  _atom_site_occupancy
  Ca  Ca1       1.0  0.51500  0.55900  0.24800  1.0000
  Ca  Ca2       1.0  0.98500  0.05890  0.25200  1.0000
  Ca  Ca3       1.0  0.01480  0.94100  0.74800  1.0000
  Ca  Ca4       1.0  0.48500  0.44100  0.75200  1.0000
  Ni  Ni1       1.0  0.50000  0.00000  1.00000  1.0000
  Ni  Ni2       1.0  0.00000  0.50000  0.50000  1.0000
  O   O1        1.0  0.70600  0.30600  0.04780  1.0000
  O   O2        1.0  0.81100  0.79100  0.05040  1.0000
  O   O3        1.0  0.09490  0.47200  0.24400  1.0000
  O   O4        1.0  0.40500  0.97200  0.25600  1.0000
  O   O5        1.0  0.68900  0.29100  0.45000  1.0000
  O   O6        1.0  0.79400  0.80600  0.45200  1.0000
  O   O7        1.0  0.20600  0.19400  0.54800  1.0000
  O   O8        1.0  0.31100  0.70900  0.55000  1.0000
  O   O9        1.0  0.59500  0.02830  0.74400  1.0000
  O   O10       1.0  0.90500  0.52800  0.75600  1.0000
  O   O11       1.0  0.18900  0.20900  0.95000  1.0000
  O   O12       1.0  0.29400  0.69400  0.95200  1.0000
  Os  Os1       1.0  0.00000  0.50000  0.00000  1.0000
  Os  Os2       1.0  0.50000  0.00000  0.50000  1.0000
