# generated using pymatgen
data_Ca5P3ClO12
_symmetry_space_group_name_H-M   'P 1'
_cell_length_a   9.82756393
_cell_length_b   9.82756393
_cell_length_c   6.76295900
_cell_angle_alpha   90.00000000
_cell_angle_beta   90.00000000
_cell_angle_gamma   119.99999953
_symmetry_Int_Tables_number   1
_chemical_formula_structural   Ca5P3ClO12
_chemical_formula_sum   'Ca10 P6 Cl2 O24'
_cell_volume   565.66478588
_cell_formula_units_Z   2
loop_
 _symmetry_equiv_pos_site_id
 _symmetry_equiv_pos_as_xyz
  1  'x, y, z'
loop_
 _atom_site_type_symbol
 _atom_site_label
 _atom_site_symmetry_multiplicity
 _atom_site_fract_x
 _atom_site_fract_y
 _atom_site_fract_z
 _atom_site_occupancy
  Ca  Ca0  1  0.24932100  0.98355200  0.24796100  1
  Ca  Ca1  1  0.01644800  0.26576900  0.24796100  1
  Ca  Ca2  1  0.33333300  0.66666700  0.99507300  1
  Ca  Ca3  1  0.33333300  0.66666700  0.50352400  1
  Ca  Ca4  1  0.26576900  0.24932100  0.74796100  1
  Ca  Ca5  1  0.73423100  0.75067900  0.24796100  1
  Ca  Ca6  1  0.66666700  0.33333300  0.49507300  1
  Ca  Ca7  1  0.66666700  0.33333300  0.00352400  1
  Ca  Ca8  1  0.98355200  0.73423100  0.74796100  1
  Ca  Ca9  1  0.75067900  0.01644800  0.74796100  1
  P  P10  1  0.03209900  0.62272800  0.25169800  1
  P  P11  1  0.59062900  0.96790100  0.25169800  1
  P  P12  1  0.37727200  0.40937100  0.25169800  1
  P  P13  1  0.62272800  0.59062900  0.75169800  1
  P  P14  1  0.40937100  0.03209900  0.75169800  1
  P  P15  1  0.96790100  0.37727200  0.75169800  1
  Cl  Cl16  1  0.00000000  0.00000000  0.43188800  1
  Cl  Cl17  1  0.00000000  0.00000000  0.93188800  1
  O  O18  1  0.08123000  0.73406300  0.06941200  1
  O  O19  1  0.08830200  0.72880000  0.43880700  1
  O  O20  1  0.13030200  0.53665000  0.24513900  1
  O  O21  1  0.14607600  0.49682500  0.75332100  1
  O  O22  1  0.35074900  0.85392400  0.75332100  1
  O  O23  1  0.40634900  0.86969800  0.24513900  1
  O  O24  1  0.27120000  0.35950200  0.43880700  1
  O  O25  1  0.26593700  0.34716700  0.06941200  1
  O  O26  1  0.46335000  0.59365100  0.24513900  1
  O  O27  1  0.50317500  0.64925100  0.75332100  1
  O  O28  1  0.64049800  0.91169800  0.43880700  1
  O  O29  1  0.65283300  0.91877000  0.06941200  1
  O  O30  1  0.35950200  0.08830200  0.93880700  1
  O  O31  1  0.34716700  0.08123000  0.56941200  1
  O  O32  1  0.49682500  0.35074900  0.25332100  1
  O  O33  1  0.53665000  0.40634900  0.74513900  1
  O  O34  1  0.72880000  0.64049800  0.93880700  1
  O  O35  1  0.73406300  0.65283300  0.56941200  1
  O  O36  1  0.59365100  0.13030200  0.74513900  1
  O  O37  1  0.64925100  0.14607600  0.25332100  1
  O  O38  1  0.85392400  0.50317500  0.25332100  1
  O  O39  1  0.86969800  0.46335000  0.74513900  1
  O  O40  1  0.91877000  0.26593700  0.56941200  1
  O  O41  1  0.91169800  0.27120000  0.93880700  1
