# generated using pymatgen
data_K3Ba7Ti10(O9F)3
_symmetry_space_group_name_H-M   'P 1'
_cell_length_a   3.99204300
_cell_length_b   3.99204300
_cell_length_c   40.86762300
_cell_angle_alpha   90.00000000
_cell_angle_beta   90.00000000
_cell_angle_gamma   90.00000000
_symmetry_Int_Tables_number   1
_chemical_formula_structural   K3Ba7Ti10(O9F)3
_chemical_formula_sum   'K3 Ba7 Ti10 O27 F3'
_cell_volume   651.28308608
_cell_formula_units_Z   1
loop_
 _symmetry_equiv_pos_site_id
 _symmetry_equiv_pos_as_xyz
  1  'x, y, z'
loop_
 _atom_site_type_symbol
 _atom_site_label
 _atom_site_symmetry_multiplicity
 _atom_site_fract_x
 _atom_site_fract_y
 _atom_site_fract_z
 _atom_site_occupancy
  K  K0  1  0.00000000  0.00000000  0.60006800  1
  K  K1  1  0.00000000  0.00000000  0.80075400  1
  K  K2  1  0.00000000  0.00000000  0.89915100  1
  Ba  Ba3  1  0.00000000  0.00000000  0.99928700  1
  Ba  Ba4  1  0.00000000  0.00000000  0.09998500  1
  Ba  Ba5  1  0.00000000  0.00000000  0.20000900  1
  Ba  Ba6  1  0.00000000  0.00000000  0.29998400  1
  Ba  Ba7  1  0.00000000  0.00000000  0.40003400  1
  Ba  Ba8  1  0.00000000  0.00000000  0.50074000  1
  Ba  Ba9  1  0.00000000  0.00000000  0.69997000  1
  Ti  Ti10  1  0.50000000  0.50000000  0.05077800  1
  Ti  Ti11  1  0.50000000  0.50000000  0.24998400  1
  Ti  Ti12  1  0.50000000  0.50000000  0.15020800  1
  Ti  Ti13  1  0.50000000  0.50000000  0.44929700  1
  Ti  Ti14  1  0.50000000  0.50000000  0.34978400  1
  Ti  Ti15  1  0.50000000  0.50000000  0.54736900  1
  Ti  Ti16  1  0.50000000  0.50000000  0.74772300  1
  Ti  Ti17  1  0.50000000  0.50000000  0.65178100  1
  Ti  Ti18  1  0.50000000  0.50000000  0.85009400  1
  Ti  Ti19  1  0.50000000  0.50000000  0.95290300  1
  O  O20  1  0.00000000  0.50000000  0.05048000  1
  O  O21  1  0.00000000  0.50000000  0.15011200  1
  O  O22  1  0.00000000  0.50000000  0.25000000  1
  O  O23  1  0.00000000  0.50000000  0.34990400  1
  O  O24  1  0.00000000  0.50000000  0.44959400  1
  O  O25  1  0.00000000  0.50000000  0.54883400  1
  O  O26  1  0.00000000  0.50000000  0.65064400  1
  O  O27  1  0.00000000  0.50000000  0.74904200  1
  O  O28  1  0.00000000  0.50000000  0.85006400  1
  O  O29  1  0.00000000  0.50000000  0.95133800  1
  O  O30  1  0.50000000  0.00000000  0.05048000  1
  O  O31  1  0.50000000  0.50000000  0.00051200  1
  O  O32  1  0.50000000  0.00000000  0.15011200  1
  O  O33  1  0.50000000  0.00000000  0.25000000  1
  O  O34  1  0.50000000  0.50000000  0.20002300  1
  O  O35  1  0.50000000  0.50000000  0.10017400  1
  O  O36  1  0.50000000  0.00000000  0.34990400  1
  O  O37  1  0.50000000  0.00000000  0.44959400  1
  O  O38  1  0.50000000  0.50000000  0.39988400  1
  O  O39  1  0.50000000  0.50000000  0.30000300  1
  O  O40  1  0.50000000  0.00000000  0.54883400  1
  O  O41  1  0.50000000  0.50000000  0.49962400  1
  O  O42  1  0.50000000  0.00000000  0.74904200  1
  O  O43  1  0.50000000  0.50000000  0.69984000  1
  O  O44  1  0.50000000  0.00000000  0.65064400  1
  O  O45  1  0.50000000  0.00000000  0.85006400  1
  O  O46  1  0.50000000  0.00000000  0.95133800  1
  F  F47  1  0.50000000  0.50000000  0.59982800  1
  F  F48  1  0.50000000  0.50000000  0.79984700  1
  F  F49  1  0.50000000  0.50000000  0.90033600  1
