# generated using pymatgen
data_NbAg7S6
_symmetry_space_group_name_H-M   'P 1'
_cell_length_a   7.45306800
_cell_length_b   7.73605100
_cell_length_c   13.35381871
_cell_angle_alpha   55.23089818
_cell_angle_beta   90.00000000
_cell_angle_gamma   90.00000000
_symmetry_Int_Tables_number   1
_chemical_formula_structural   NbAg7S6
_chemical_formula_sum   'Nb2 Ag14 S12'
_cell_volume   632.47686615
_cell_formula_units_Z   2
loop_
 _symmetry_equiv_pos_site_id
 _symmetry_equiv_pos_as_xyz
  1  'x, y, z'
loop_
 _atom_site_type_symbol
 _atom_site_label
 _atom_site_symmetry_multiplicity
 _atom_site_fract_x
 _atom_site_fract_y
 _atom_site_fract_z
 _atom_site_occupancy
  Nb  Nb0  1  0.24418800  0.99334900  0.50336800  1
  Nb  Nb1  1  0.75581200  0.99334900  0.00336800  1
  Ag  Ag2  1  0.87936200  0.89422700  0.41008100  1
  Ag  Ag3  1  0.12063800  0.89422700  0.91008100  1
  Ag  Ag4  1  0.95709000  0.51954200  0.15133100  1
  Ag  Ag5  1  0.04291000  0.51954200  0.65133100  1
  Ag  Ag6  1  0.60075400  0.08461400  0.19481300  1
  Ag  Ag7  1  0.39924600  0.08461400  0.69481300  1
  Ag  Ag8  1  0.78346200  0.68888600  0.28172900  1
  Ag  Ag9  1  0.21653800  0.68888600  0.78172900  1
  Ag  Ag10  1  0.68057900  0.30233000  0.73272700  1
  Ag  Ag11  1  0.31942100  0.30233000  0.23272700  1
  Ag  Ag12  1  0.48677700  0.69226900  0.99008800  1
  Ag  Ag13  1  0.51322300  0.69226900  0.49008800  1
  Ag  Ag14  1  0.58500600  0.28114800  0.45458400  1
  Ag  Ag15  1  0.41499400  0.28114800  0.95458400  1
  S  S16  1  0.21450600  0.48929800  0.01281100  1
  S  S17  1  0.78549400  0.48929800  0.51281100  1
  S  S18  1  0.26765700  0.25174800  0.78406300  1
  S  S19  1  0.73234300  0.25174800  0.28406300  1
  S  S20  1  0.49840100  0.85119100  0.63197900  1
  S  S21  1  0.50159900  0.85119100  0.13197900  1
  S  S22  1  0.97737900  0.88092400  0.61449800  1
  S  S23  1  0.02262100  0.88092400  0.11449800  1
  S  S24  1  0.24514700  0.89221300  0.36735800  1
  S  S25  1  0.75485300  0.89221300  0.86735800  1
  S  S26  1  0.24235300  0.35526100  0.39856800  1
  S  S27  1  0.75764700  0.35526100  0.89856800  1
