# generated using pymatgen
data_NdTi3Fe(CuO4)3
_symmetry_space_group_name_H-M   'P 1'
_cell_length_a   6.49069480
_cell_length_b   6.49069480
_cell_length_c   6.49069509
_cell_angle_alpha   109.49715971
_cell_angle_beta   109.49715971
_cell_angle_gamma   109.49715239
_symmetry_Int_Tables_number   1
_chemical_formula_structural   NdTi3Fe(CuO4)3
_chemical_formula_sum   'Nd1 Ti3 Fe1 Cu3 O12'
_cell_volume   210.29742161
_cell_formula_units_Z   1
loop_
 _symmetry_equiv_pos_site_id
 _symmetry_equiv_pos_as_xyz
  1  'x, y, z'
loop_
 _atom_site_type_symbol
 _atom_site_label
 _atom_site_symmetry_multiplicity
 _atom_site_fract_x
 _atom_site_fract_y
 _atom_site_fract_z
 _atom_site_occupancy
  Nd  Nd0  1  0.00000000  0.00000000  0.00000000  1
  Ti  Ti1  1  0.00000000  0.50000000  0.00000000  1
  Ti  Ti2  1  0.00000000  0.00000000  0.50000000  1
  Ti  Ti3  1  0.50000000  0.00000000  0.00000000  1
  Fe  Fe4  1  0.50000000  0.50000000  0.50000000  1
  Cu  Cu5  1  0.50000000  0.00000000  0.50000000  1
  Cu  Cu6  1  0.50000000  0.50000000  0.00000000  1
  Cu  Cu7  1  0.00000000  0.50000000  0.50000000  1
  O  O8  1  0.47591000  0.16862400  0.29577500  1
  O  O9  1  0.30083800  0.12488800  0.82520800  1
  O  O10  1  0.87511200  0.17479200  0.69916200  1
  O  O11  1  0.16862400  0.29577500  0.47591000  1
  O  O12  1  0.70422500  0.52409000  0.83137600  1
  O  O13  1  0.82520800  0.30083800  0.12488800  1
  O  O14  1  0.17479200  0.69916200  0.87511200  1
  O  O15  1  0.29577500  0.47591000  0.16862400  1
  O  O16  1  0.83137600  0.70422500  0.52409000  1
  O  O17  1  0.12488800  0.82520800  0.30083800  1
  O  O18  1  0.69916200  0.87511200  0.17479200  1
  O  O19  1  0.52409000  0.83137600  0.70422500  1
