# generated using pymatgen
data_BaSm4Si3SeO12
_symmetry_space_group_name_H-M   'P 1'
_cell_length_a   10.04316609
_cell_length_b   10.04316609
_cell_length_c   6.97645700
_cell_angle_alpha   90.00000000
_cell_angle_beta   90.00000000
_cell_angle_gamma   120.00000063
_symmetry_Int_Tables_number   1
_chemical_formula_structural   BaSm4Si3SeO12
_chemical_formula_sum   'Ba2 Sm8 Si6 Se2 O24'
_cell_volume   609.40616168
_cell_formula_units_Z   2
loop_
 _symmetry_equiv_pos_site_id
 _symmetry_equiv_pos_as_xyz
  1  'x, y, z'
loop_
 _atom_site_type_symbol
 _atom_site_label
 _atom_site_symmetry_multiplicity
 _atom_site_fract_x
 _atom_site_fract_y
 _atom_site_fract_z
 _atom_site_occupancy
  Ba  Ba0  1  0.33333300  0.66666700  0.50304700  1
  Ba  Ba1  1  0.66666700  0.33333300  0.00304700  1
  Sm  Sm2  1  0.01535900  0.75779000  0.24682900  1
  Sm  Sm3  1  0.33333300  0.66666700  0.99712700  1
  Sm  Sm4  1  0.24221000  0.25756900  0.24682900  1
  Sm  Sm5  1  0.74243100  0.98464100  0.24682900  1
  Sm  Sm6  1  0.25756900  0.01535900  0.74682900  1
  Sm  Sm7  1  0.75779000  0.74243100  0.74682900  1
  Sm  Sm8  1  0.66666700  0.33333300  0.49712700  1
  Sm  Sm9  1  0.98464100  0.24221000  0.74682900  1
  Si  Si10  1  0.02771300  0.40449200  0.25149000  1
  Si  Si11  1  0.37677900  0.97228700  0.25149000  1
  Si  Si12  1  0.40449200  0.37677900  0.75149000  1
  Si  Si13  1  0.59550800  0.62322100  0.25149000  1
  Si  Si14  1  0.62322100  0.02771300  0.75149000  1
  Si  Si15  1  0.97228700  0.59550800  0.75149000  1
  Se  Se16  1  0.00000000  0.00000000  0.99920300  1
  Se  Se17  1  0.00000000  0.00000000  0.49920300  1
  O  O18  1  0.25691100  0.89853400  0.43506200  1
  O  O19  1  0.26401100  0.91532700  0.06054800  1
  O  O20  1  0.15691100  0.67110000  0.77924300  1
  O  O21  1  0.11707300  0.59479900  0.22703500  1
  O  O22  1  0.08467300  0.34868300  0.06054800  1
  O  O23  1  0.10146600  0.35837700  0.43506200  1
  O  O24  1  0.47772600  0.88292700  0.22703500  1
  O  O25  1  0.51418900  0.84308900  0.77924300  1
  O  O26  1  0.32890000  0.48581100  0.77924300  1
  O  O27  1  0.40520100  0.52227400  0.22703500  1
  O  O28  1  0.34868300  0.26401100  0.56054800  1
  O  O29  1  0.35837700  0.25691100  0.93506200  1
  O  O30  1  0.65131700  0.73598900  0.06054800  1
  O  O31  1  0.64162300  0.74308900  0.43506200  1
  O  O32  1  0.59479900  0.47772600  0.72703500  1
  O  O33  1  0.67110000  0.51418900  0.27924300  1
  O  O34  1  0.48581100  0.15691100  0.27924300  1
  O  O35  1  0.52227400  0.11707300  0.72703500  1
  O  O36  1  0.91532700  0.65131700  0.56054800  1
  O  O37  1  0.89853400  0.64162300  0.93506200  1
  O  O38  1  0.88292700  0.40520100  0.72703500  1
  O  O39  1  0.84308900  0.32890000  0.27924300  1
  O  O40  1  0.74308900  0.10146600  0.93506200  1
  O  O41  1  0.73598900  0.08467300  0.56054800  1
