# generated using pymatgen
data_SrLaMnWO6
_symmetry_space_group_name_H-M   'P 1'
_cell_length_a   5.76094015
_cell_length_b   5.76094015
_cell_length_c   5.76094015
_cell_angle_alpha   119.60901713
_cell_angle_beta   119.60901713
_cell_angle_gamma   90.67854681
_symmetry_Int_Tables_number   1
_chemical_formula_structural   SrLaMnWO6
_chemical_formula_sum   'Sr1 La1 Mn1 W1 O6'
_cell_volume   135.98503435
_cell_formula_units_Z   1
loop_
 _symmetry_equiv_pos_site_id
 _symmetry_equiv_pos_as_xyz
  1  'x, y, z'
loop_
 _atom_site_type_symbol
 _atom_site_label
 _atom_site_symmetry_multiplicity
 _atom_site_fract_x
 _atom_site_fract_y
 _atom_site_fract_z
 _atom_site_occupancy
  Sr  Sr0  1  0.75000000  0.25000000  0.50000000  1
  La  La1  1  0.25000000  0.75000000  0.50000000  1
  Mn  Mn2  1  0.00000000  0.00000000  0.00000000  1
  W  W3  1  0.50000000  0.50000000  0.00000000  1
  O  O4  1  0.26126900  0.26126900  0.00000000  1
  O  O5  1  0.30760600  0.18248600  0.51740200  1
  O  O6  1  0.81751400  0.33491600  0.12512000  1
  O  O7  1  0.73873100  0.73873100  0.00000000  1
  O  O8  1  0.20979600  0.69239400  0.87488000  1
  O  O9  1  0.66508400  0.79020400  0.48259800  1
