data_image0
_chemical_formula_structural       CuK5Sb2
_chemical_formula_sum              "Cu1 K5 Sb2"
_cell_length_a       5.96816
_cell_length_b       5.96816
_cell_length_c       10.0464
_cell_angle_alpha    72.7207
_cell_angle_beta     107.279
_cell_angle_gamma    120

_space_group_name_H-M_alt    "P 1"
_space_group_IT_number       1

loop_
  _space_group_symop_operation_xyz
  'x, y, z'

loop_
  _atom_site_type_symbol
  _atom_site_label
  _atom_site_symmetry_multiplicity
  _atom_site_fract_x
  _atom_site_fract_y
  _atom_site_fract_z
  _atom_site_occupancy
  Cu  Cu1       1.0  0.00000  0.00000  0.00000  1.0000
  K   K1        1.0  0.36500  0.63500  0.09370  1.0000
  K   K2        1.0  0.78300  0.21700  0.35000  1.0000
  K   K3        1.0  0.50000  0.50000  0.50000  1.0000
  K   K4        1.0  0.21700  0.78300  0.65000  1.0000
  K   K5        1.0  0.63500  0.36500  0.90600  1.0000
  Sb  Sb1       1.0  0.08840  0.91200  0.26500  1.0000
  Sb  Sb2       1.0  0.91200  0.08840  0.73500  1.0000
