# generated using pymatgen
data_Fe3H10S2NO14
_symmetry_space_group_name_H-M   'P 1'
_cell_length_a   7.29690697
_cell_length_b   7.29690697
_cell_length_c   7.29690671
_cell_angle_alpha   61.32429384
_cell_angle_beta   61.32429384
_cell_angle_gamma   61.32429012
_symmetry_Int_Tables_number   1
_chemical_formula_structural   Fe3H10S2NO14
_chemical_formula_sum   'Fe3 H10 S2 N1 O14'
_cell_volume   282.90384925
_cell_formula_units_Z   1
loop_
 _symmetry_equiv_pos_site_id
 _symmetry_equiv_pos_as_xyz
  1  'x, y, z'
loop_
 _atom_site_type_symbol
 _atom_site_label
 _atom_site_symmetry_multiplicity
 _atom_site_fract_x
 _atom_site_fract_y
 _atom_site_fract_z
 _atom_site_occupancy
  Fe  Fe0  1  0.99934400  0.49870200  0.99934400  1
  Fe  Fe1  1  0.99934400  0.99934400  0.49870200  1
  Fe  Fe2  1  0.49870200  0.99934400  0.99934400  1
  H  H3  1  0.09569300  0.09569300  0.87185100  1
  H  H4  1  0.87185100  0.09569300  0.09569300  1
  H  H5  1  0.31370700  0.31370700  0.71574400  1
  H  H6  1  0.71574400  0.31370700  0.31370700  1
  H  H7  1  0.69645200  0.27800900  0.69645200  1
  H  H8  1  0.09569300  0.87185100  0.09569300  1
  H  H9  1  0.31370700  0.71574400  0.31370700  1
  H  H10  1  0.27800900  0.69645200  0.69645200  1
  H  H11  1  0.69645200  0.69645200  0.27800900  1
  H  H12  1  0.94265500  0.94265500  0.94265500  1
  S  S13  1  0.30527700  0.30527700  0.30527700  1
  S  S14  1  0.69402000  0.69402000  0.69402000  1
  N  N15  1  0.00068400  0.00068400  0.00068400  1
  O  O16  1  0.16710400  0.16710400  0.49550400  1
  O  O17  1  0.49550400  0.16710400  0.16710400  1
  O  O18  1  0.16710400  0.49550400  0.16710400  1
  O  O19  1  0.38853400  0.38853400  0.38853400  1
  O  O20  1  0.26420100  0.26420100  0.87800400  1
  O  O21  1  0.87800400  0.26420100  0.26420100  1
  O  O22  1  0.73399100  0.11828200  0.73399100  1
  O  O23  1  0.26420100  0.87800400  0.26420100  1
  O  O24  1  0.73399100  0.73399100  0.11828200  1
  O  O25  1  0.11828200  0.73399100  0.73399100  1
  O  O26  1  0.61078400  0.61078400  0.61078400  1
  O  O27  1  0.83205600  0.50385400  0.83205600  1
  O  O28  1  0.50385400  0.83205600  0.83205600  1
  O  O29  1  0.83205600  0.83205600  0.50385400  1
