# generated using pymatgen
data_Na3Sr7Ta3Ti7O30
_symmetry_space_group_name_H-M   'P 1'
_cell_length_a   3.95631700
_cell_length_b   7.94250700
_cell_length_c   19.81127548
_cell_angle_alpha   89.94700264
_cell_angle_beta   90.00000000
_cell_angle_gamma   90.00000000
_symmetry_Int_Tables_number   1
_chemical_formula_structural   Na3Sr7Ta3Ti7O30
_chemical_formula_sum   'Na3 Sr7 Ta3 Ti7 O30'
_cell_volume   622.53093803
_cell_formula_units_Z   1
loop_
 _symmetry_equiv_pos_site_id
 _symmetry_equiv_pos_as_xyz
  1  'x, y, z'
loop_
 _atom_site_type_symbol
 _atom_site_label
 _atom_site_symmetry_multiplicity
 _atom_site_fract_x
 _atom_site_fract_y
 _atom_site_fract_z
 _atom_site_occupancy
  Na  Na0  1  0.00000000  0.49389500  0.00895700  1
  Na  Na1  1  0.00000000  0.52035500  0.79140100  1
  Na  Na2  1  0.00000000  0.98029700  0.79326500  1
  Sr  Sr3  1  0.00000000  0.99505400  0.00572800  1
  Sr  Sr4  1  0.00000000  0.49389200  0.19836600  1
  Sr  Sr5  1  0.00000000  0.49532000  0.39779200  1
  Sr  Sr6  1  0.00000000  0.99214800  0.19882400  1
  Sr  Sr7  1  0.00000000  0.99581000  0.39788000  1
  Sr  Sr8  1  0.00000000  0.50538600  0.59630800  1
  Sr  Sr9  1  0.00000000  0.99195800  0.59644700  1
  Ta  Ta10  1  0.50000000  0.24978300  0.70088500  1
  Ta  Ta11  1  0.50000000  0.74783600  0.89738100  1
  Ta  Ta12  1  0.50000000  0.25247800  0.90092800  1
  Ti  Ti13  1  0.50000000  0.73638700  0.09793400  1
  Ti  Ti14  1  0.50000000  0.24201100  0.29828700  1
  Ti  Ti15  1  0.50000000  0.74174500  0.29729100  1
  Ti  Ti16  1  0.50000000  0.24322100  0.10039600  1
  Ti  Ti17  1  0.50000000  0.74423300  0.49646200  1
  Ti  Ti18  1  0.50000000  0.74961900  0.69729300  1
  Ti  Ti19  1  0.50000000  0.24410100  0.49715900  1
  O  O20  1  0.00000000  0.75622400  0.10303500  1
  O  O21  1  0.00000000  0.75583800  0.90273300  1
  O  O22  1  0.00000000  0.24634900  0.90321800  1
  O  O23  1  0.50000000  0.75359200  0.20182000  1
  O  O24  1  0.50000000  0.50361800  0.10328400  1
  O  O25  1  0.50000000  0.24474400  0.00174300  1
  O  O26  1  0.50000000  0.00576700  0.10284400  1
  O  O27  1  0.50000000  0.76069800  0.00193200  1
  O  O28  1  0.50000000  0.50458700  0.30151300  1
  O  O29  1  0.50000000  0.25538200  0.20173400  1
  O  O30  1  0.50000000  0.75194200  0.59998100  1
  O  O31  1  0.50000000  0.50402500  0.50015200  1
  O  O32  1  0.50000000  0.25354700  0.40080400  1
  O  O33  1  0.50000000  0.00491600  0.30114200  1
  O  O34  1  0.50000000  0.75420300  0.40093500  1
  O  O35  1  0.50000000  0.50083800  0.69774700  1
  O  O36  1  0.50000000  0.25229700  0.59990900  1
  O  O37  1  0.50000000  0.50087000  0.90269500  1
  O  O38  1  0.50000000  0.25169500  0.80082900  1
  O  O39  1  0.50000000  0.00099300  0.69778000  1
  O  O40  1  0.50000000  0.75032100  0.80035600  1
  O  O41  1  0.50000000  0.00360200  0.50030300  1
  O  O42  1  0.50000000  0.00091300  0.90305300  1
  O  O43  1  0.00000000  0.75440800  0.30154700  1
  O  O44  1  0.00000000  0.75305500  0.50036400  1
  O  O45  1  0.00000000  0.25114100  0.10285100  1
  O  O46  1  0.00000000  0.75048300  0.69734700  1
  O  O47  1  0.00000000  0.25442300  0.30134000  1
  O  O48  1  0.00000000  0.25312900  0.50021800  1
  O  O49  1  0.00000000  0.25087100  0.69780500  1
