# generated using pymatgen
data_KBa4Ti5O14F
_symmetry_space_group_name_H-M   'P 1'
_cell_length_a   4.00890400
_cell_length_b   4.00890400
_cell_length_c   20.33079200
_cell_angle_alpha   90.00000000
_cell_angle_beta   90.00000000
_cell_angle_gamma   90.00000000
_symmetry_Int_Tables_number   1
_chemical_formula_structural   KBa4Ti5O14F
_chemical_formula_sum   'K1 Ba4 Ti5 O14 F1'
_cell_volume   326.74248683
_cell_formula_units_Z   1
loop_
 _symmetry_equiv_pos_site_id
 _symmetry_equiv_pos_as_xyz
  1  'x, y, z'
loop_
 _atom_site_type_symbol
 _atom_site_label
 _atom_site_symmetry_multiplicity
 _atom_site_fract_x
 _atom_site_fract_y
 _atom_site_fract_z
 _atom_site_occupancy
  K  K0  1  0.00000000  0.00000000  0.50000000  1
  Ba  Ba1  1  0.00000000  0.00000000  0.69772900  1
  Ba  Ba2  1  0.00000000  0.00000000  0.89960100  1
  Ba  Ba3  1  0.00000000  0.00000000  0.10039900  1
  Ba  Ba4  1  0.00000000  0.00000000  0.30227100  1
  Ti  Ti5  1  0.50000000  0.50000000  0.80075100  1
  Ti  Ti6  1  0.50000000  0.50000000  0.19924900  1
  Ti  Ti7  1  0.50000000  0.50000000  0.00000000  1
  Ti  Ti8  1  0.50000000  0.50000000  0.60441200  1
  Ti  Ti9  1  0.50000000  0.50000000  0.39558800  1
  O  O10  1  0.00000000  0.50000000  0.80020300  1
  O  O11  1  0.00000000  0.50000000  0.00000000  1
  O  O12  1  0.00000000  0.50000000  0.19979700  1
  O  O13  1  0.00000000  0.50000000  0.39850300  1
  O  O14  1  0.00000000  0.50000000  0.60149700  1
  O  O15  1  0.50000000  0.00000000  0.80020300  1
  O  O16  1  0.50000000  0.50000000  0.70005700  1
  O  O17  1  0.50000000  0.00000000  0.00000000  1
  O  O18  1  0.50000000  0.00000000  0.19979700  1
  O  O19  1  0.50000000  0.50000000  0.10004500  1
  O  O20  1  0.50000000  0.50000000  0.89995500  1
  O  O21  1  0.50000000  0.00000000  0.39850300  1
  O  O22  1  0.50000000  0.00000000  0.60149700  1
  O  O23  1  0.50000000  0.50000000  0.29994300  1
  F  F24  1  0.50000000  0.50000000  0.50000000  1
