# generated using pymatgen
data_Ca3Ti2O7
_symmetry_space_group_name_H-M   'P 1'
_cell_length_a   10.11364521
_cell_length_b   10.11364521
_cell_length_c   5.53728700
_cell_angle_alpha   90.00000000
_cell_angle_beta   90.00000000
_cell_angle_gamma   148.66161928
_symmetry_Int_Tables_number   1
_chemical_formula_structural   Ca3Ti2O7
_chemical_formula_sum   'Ca6 Ti4 O14'
_cell_volume   294.57243959
_cell_formula_units_Z   2
loop_
 _symmetry_equiv_pos_site_id
 _symmetry_equiv_pos_as_xyz
  1  'x, y, z'
loop_
 _atom_site_type_symbol
 _atom_site_label
 _atom_site_symmetry_multiplicity
 _atom_site_fract_x
 _atom_site_fract_y
 _atom_site_fract_z
 _atom_site_occupancy
  Ca  Ca0  1  0.25358600  0.25358600  0.96118400  1
  Ca  Ca1  1  0.74641400  0.74641400  0.46118400  1
  Ca  Ca2  1  0.55381800  0.92912800  0.54402300  1
  Ca  Ca3  1  0.44618200  0.07087200  0.04402300  1
  Ca  Ca4  1  0.92912800  0.55381800  0.54402300  1
  Ca  Ca5  1  0.07087200  0.44618200  0.04402300  1
  Ti  Ti6  1  0.15120300  0.35123300  0.51147700  1
  Ti  Ti7  1  0.84879700  0.64876700  0.01147700  1
  Ti  Ti8  1  0.64876700  0.84879700  0.01147700  1
  Ti  Ti9  1  0.35123300  0.15120300  0.51147700  1
  O  O10  1  0.15504300  0.92823600  0.78489700  1
  O  O11  1  0.84495700  0.07176400  0.28489700  1
  O  O12  1  0.07176400  0.84495700  0.28489700  1
  O  O13  1  0.92823600  0.15504300  0.78489700  1
  O  O14  1  0.62266600  0.45507600  0.70298400  1
  O  O15  1  0.37733400  0.54492400  0.20298400  1
  O  O16  1  0.54492400  0.37733400  0.20298400  1
  O  O17  1  0.45507600  0.62266600  0.70298400  1
  O  O18  1  0.87953300  0.48403100  0.97387100  1
  O  O19  1  0.12046700  0.51596900  0.47387100  1
  O  O20  1  0.82435000  0.82435000  0.01271200  1
  O  O21  1  0.17565000  0.17565000  0.51271200  1
  O  O22  1  0.48403100  0.87953300  0.97387100  1
  O  O23  1  0.51596900  0.12046700  0.47387100  1
