# generated using pymatgen
data_SrAl3P2(HO2)7
_symmetry_space_group_name_H-M   'P 1'
_cell_length_a   6.84120114
_cell_length_b   6.84120114
_cell_length_c   6.84120051
_cell_angle_alpha   63.26834916
_cell_angle_beta   63.26834916
_cell_angle_gamma   63.26835291
_symmetry_Int_Tables_number   1
_chemical_formula_structural   SrAl3P2(HO2)7
_chemical_formula_sum   'Sr1 Al3 P2 H7 O14'
_cell_volume   242.79611964
_cell_formula_units_Z   1
loop_
 _symmetry_equiv_pos_site_id
 _symmetry_equiv_pos_as_xyz
  1  'x, y, z'
loop_
 _atom_site_type_symbol
 _atom_site_label
 _atom_site_symmetry_multiplicity
 _atom_site_fract_x
 _atom_site_fract_y
 _atom_site_fract_z
 _atom_site_occupancy
  Sr  Sr0  1  0.00030600  0.00030600  0.00030600  1
  Al  Al1  1  0.99794300  0.99794300  0.50402100  1
  Al  Al2  1  0.50402100  0.99794300  0.99794300  1
  Al  Al3  1  0.99794300  0.50402100  0.99794300  1
  P  P4  1  0.69009000  0.69009000  0.69009000  1
  P  P5  1  0.30539700  0.30539700  0.30539700  1
  H  H6  1  0.69511100  0.69511100  0.28651000  1
  H  H7  1  0.28651000  0.69511100  0.69511100  1
  H  H8  1  0.29292300  0.72930800  0.29292300  1
  H  H9  1  0.69511100  0.28651000  0.69511100  1
  H  H10  1  0.46263700  0.46263700  0.46263700  1
  H  H11  1  0.29292300  0.29292300  0.72930800  1
  H  H12  1  0.72930800  0.29292300  0.29292300  1
  O  O13  1  0.84101500  0.84101500  0.48739900  1
  O  O14  1  0.48739900  0.84101500  0.84101500  1
  O  O15  1  0.84101500  0.48739900  0.84101500  1
  O  O16  1  0.59553400  0.59553400  0.59553400  1
  O  O17  1  0.11564500  0.74041200  0.74041200  1
  O  O18  1  0.74041200  0.74041200  0.11564500  1
  O  O19  1  0.25904700  0.89348900  0.25904700  1
  O  O20  1  0.74041200  0.11564500  0.74041200  1
  O  O21  1  0.25904700  0.25904700  0.89348900  1
  O  O22  1  0.89348900  0.25904700  0.25904700  1
  O  O23  1  0.40286400  0.40286400  0.40286400  1
  O  O24  1  0.16081800  0.51526700  0.16081800  1
  O  O25  1  0.16081800  0.16081800  0.51526700  1
  O  O26  1  0.51526700  0.16081800  0.16081800  1
