# generated using pymatgen
data_NaGdTiNbO6F
_symmetry_space_group_name_H-M   'P 1'
_cell_length_a   7.35546300
_cell_length_b   7.35546300
_cell_length_c   10.41017100
_cell_angle_alpha   90.00000000
_cell_angle_beta   90.00000000
_cell_angle_gamma   90.00000000
_symmetry_Int_Tables_number   1
_chemical_formula_structural   NaGdTiNbO6F
_chemical_formula_sum   'Na4 Gd4 Ti4 Nb4 O24 F4'
_cell_volume   563.21977377
_cell_formula_units_Z   4
loop_
 _symmetry_equiv_pos_site_id
 _symmetry_equiv_pos_as_xyz
  1  'x, y, z'
loop_
 _atom_site_type_symbol
 _atom_site_label
 _atom_site_symmetry_multiplicity
 _atom_site_fract_x
 _atom_site_fract_y
 _atom_site_fract_z
 _atom_site_occupancy
  Na  Na0  1  0.76936500  0.00000000  0.25000000  1
  Na  Na1  1  0.00000000  0.76936500  0.00000000  1
  Na  Na2  1  0.00000000  0.23063500  0.50000000  1
  Na  Na3  1  0.23063500  0.00000000  0.75000000  1
  Gd  Gd4  1  0.50000000  0.78358100  0.00000000  1
  Gd  Gd5  1  0.21641900  0.50000000  0.75000000  1
  Gd  Gd6  1  0.50000000  0.21641900  0.50000000  1
  Gd  Gd7  1  0.78358100  0.50000000  0.25000000  1
  Ti  Ti8  1  0.50000000  0.26711200  0.00000000  1
  Ti  Ti9  1  0.50000000  0.73288800  0.50000000  1
  Ti  Ti10  1  0.26711200  0.50000000  0.25000000  1
  Ti  Ti11  1  0.73288800  0.50000000  0.75000000  1
  Nb  Nb12  1  0.74029500  0.00000000  0.75000000  1
  Nb  Nb13  1  0.00000000  0.74029500  0.50000000  1
  Nb  Nb14  1  0.00000000  0.25970500  0.00000000  1
  Nb  Nb15  1  0.25970500  0.00000000  0.25000000  1
  O  O16  1  0.06419200  0.93580800  0.37500000  1
  O  O17  1  0.25096900  0.72329500  0.57401900  1
  O  O18  1  0.45189100  0.94683500  0.38295100  1
  O  O19  1  0.54810900  0.05316500  0.88295100  1
  O  O20  1  0.54506000  0.45494000  0.87500000  1
  O  O21  1  0.54810900  0.94683500  0.61704900  1
  O  O22  1  0.74903100  0.27670500  0.07401900  1
  O  O23  1  0.72329500  0.74903100  0.82401900  1
  O  O24  1  0.74903100  0.72329500  0.42598100  1
  O  O25  1  0.72329500  0.25096900  0.67598100  1
  O  O26  1  0.93580800  0.93580800  0.62500000  1
  O  O27  1  0.93580800  0.06419200  0.87500000  1
  O  O28  1  0.94683500  0.45189100  0.86704900  1
  O  O29  1  0.05316500  0.45189100  0.13295100  1
  O  O30  1  0.05316500  0.54810900  0.36704900  1
  O  O31  1  0.06419200  0.06419200  0.12500000  1
  O  O32  1  0.25096900  0.27670500  0.92598100  1
  O  O33  1  0.27670500  0.25096900  0.32401900  1
  O  O34  1  0.27670500  0.74903100  0.17598100  1
  O  O35  1  0.45189100  0.05316500  0.11704900  1
  O  O36  1  0.45494000  0.54506000  0.37500000  1
  O  O37  1  0.45494000  0.45494000  0.12500000  1
  O  O38  1  0.54506000  0.54506000  0.62500000  1
  O  O39  1  0.94683500  0.54810900  0.63295100  1
  F  F40  1  0.75274600  0.75274600  0.12500000  1
  F  F41  1  0.24725400  0.24725400  0.62500000  1
  F  F42  1  0.75274600  0.24725400  0.37500000  1
  F  F43  1  0.24725400  0.75274600  0.87500000  1
