# generated using pymatgen
data_NaEuTiNbO6F
_symmetry_space_group_name_H-M   'P 1'
_cell_length_a   7.36969200
_cell_length_b   7.36969200
_cell_length_c   10.45683900
_cell_angle_alpha   90.00000000
_cell_angle_beta   90.00000000
_cell_angle_gamma   90.00000000
_symmetry_Int_Tables_number   1
_chemical_formula_structural   NaEuTiNbO6F
_chemical_formula_sum   'Na4 Eu4 Ti4 Nb4 O24 F4'
_cell_volume   567.93560606
_cell_formula_units_Z   4
loop_
 _symmetry_equiv_pos_site_id
 _symmetry_equiv_pos_as_xyz
  1  'x, y, z'
loop_
 _atom_site_type_symbol
 _atom_site_label
 _atom_site_symmetry_multiplicity
 _atom_site_fract_x
 _atom_site_fract_y
 _atom_site_fract_z
 _atom_site_occupancy
  Na  Na0  1  0.00000000  0.76427800  0.00000000  1
  Na  Na1  1  0.00000000  0.23572200  0.50000000  1
  Na  Na2  1  0.76427800  0.00000000  0.25000000  1
  Na  Na3  1  0.23572200  0.00000000  0.75000000  1
  Eu  Eu4  1  0.50000000  0.76263400  0.00000000  1
  Eu  Eu5  1  0.50000000  0.23736600  0.50000000  1
  Eu  Eu6  1  0.23736600  0.50000000  0.75000000  1
  Eu  Eu7  1  0.76263400  0.50000000  0.25000000  1
  Ti  Ti8  1  0.50000000  0.74098500  0.50000000  1
  Ti  Ti9  1  0.50000000  0.25901500  0.00000000  1
  Ti  Ti10  1  0.25901500  0.50000000  0.25000000  1
  Ti  Ti11  1  0.74098500  0.50000000  0.75000000  1
  Nb  Nb12  1  0.74342700  0.00000000  0.75000000  1
  Nb  Nb13  1  0.00000000  0.25657300  0.00000000  1
  Nb  Nb14  1  0.00000000  0.74342700  0.50000000  1
  Nb  Nb15  1  0.25657300  0.00000000  0.25000000  1
  O  O16  1  0.06262000  0.93738000  0.37500000  1
  O  O17  1  0.44857500  0.94245700  0.38167000  1
  O  O18  1  0.55142500  0.05754300  0.88167000  1
  O  O19  1  0.55142500  0.94245700  0.61833000  1
  O  O20  1  0.54164200  0.45835800  0.87500000  1
  O  O21  1  0.74784900  0.27172600  0.07074900  1
  O  O22  1  0.72827400  0.25215100  0.67925100  1
  O  O23  1  0.74784900  0.72827400  0.42925100  1
  O  O24  1  0.94245700  0.44857500  0.86833000  1
  O  O25  1  0.93738000  0.06262000  0.87500000  1
  O  O26  1  0.93738000  0.93738000  0.62500000  1
  O  O27  1  0.05754300  0.55142500  0.36833000  1
  O  O28  1  0.05754300  0.44857500  0.13167000  1
  O  O29  1  0.06262000  0.06262000  0.12500000  1
  O  O30  1  0.25215100  0.72827400  0.57074900  1
  O  O31  1  0.27172600  0.74784900  0.17925100  1
  O  O32  1  0.25215100  0.27172600  0.92925100  1
  O  O33  1  0.27172600  0.25215100  0.32074900  1
  O  O34  1  0.45835800  0.54164200  0.37500000  1
  O  O35  1  0.44857500  0.05754300  0.11833000  1
  O  O36  1  0.45835800  0.45835800  0.12500000  1
  O  O37  1  0.54164200  0.54164200  0.62500000  1
  O  O38  1  0.72827400  0.74784900  0.82074900  1
  O  O39  1  0.94245700  0.55142500  0.63167000  1
  F  F40  1  0.75806600  0.75806600  0.12500000  1
  F  F41  1  0.24193400  0.24193400  0.62500000  1
  F  F42  1  0.24193400  0.75806600  0.87500000  1
  F  F43  1  0.75806600  0.24193400  0.37500000  1
