# generated using pymatgen
data_Ca10Si3S3(ClO12)2
_symmetry_space_group_name_H-M   'P 1'
_cell_length_a   6.82800000
_cell_length_b   9.77436800
_cell_length_c   9.84524649
_cell_angle_alpha   60.68429545
_cell_angle_beta   90.00000000
_cell_angle_gamma   90.00000000
_symmetry_Int_Tables_number   1
_chemical_formula_structural   Ca10Si3S3(ClO12)2
_chemical_formula_sum   'Ca10 Si3 S3 Cl2 O24'
_cell_volume   572.91864188
_cell_formula_units_Z   1
loop_
 _symmetry_equiv_pos_site_id
 _symmetry_equiv_pos_as_xyz
  1  'x, y, z'
loop_
 _atom_site_type_symbol
 _atom_site_label
 _atom_site_symmetry_multiplicity
 _atom_site_fract_x
 _atom_site_fract_y
 _atom_site_fract_z
 _atom_site_occupancy
  Ca  Ca0  1  0.00000000  0.02812300  0.73932000  1
  Ca  Ca1  1  0.00000000  0.27393300  0.96137900  1
  Ca  Ca2  1  0.25510800  0.66108900  0.68610700  1
  Ca  Ca3  1  0.74489200  0.66108900  0.68610700  1
  Ca  Ca4  1  0.50000000  0.26046100  0.75476400  1
  Ca  Ca5  1  0.00000000  0.73290100  0.25392100  1
  Ca  Ca6  1  0.74010800  0.32527900  0.35438100  1
  Ca  Ca7  1  0.25989200  0.32527900  0.35438100  1
  Ca  Ca8  1  0.50000000  0.77380000  0.95989700  1
  Ca  Ca9  1  0.50000000  0.01919800  0.26777600  1
  Si  Si10  1  0.50000000  0.40345600  0.97511800  1
  Si  Si11  1  0.50000000  0.96321900  0.62101200  1
  Si  Si12  1  0.00000000  0.38563300  0.58670500  1
  S  S13  1  0.50000000  0.62976500  0.40368700  1
  S  S14  1  0.00000000  0.03119000  0.37517800  1
  S  S15  1  0.00000000  0.58081600  0.04085400  1
  Cl  Cl16  1  0.24724000  0.99237400  0.01211500  1
  Cl  Cl17  1  0.75276000  0.99237400  0.01211500  1
  O  O18  1  0.30411600  0.90635100  0.73511100  1
  O  O19  1  0.69588400  0.90635100  0.73511100  1
  O  O20  1  0.50000000  0.59774600  0.87883200  1
  O  O21  1  0.00000000  0.63607200  0.87106300  1
  O  O22  1  0.69108100  0.35692300  0.90375900  1
  O  O23  1  0.30891900  0.35692300  0.90375900  1
  O  O24  1  0.50000000  0.85781700  0.53029800  1
  O  O25  1  0.00000000  0.85903300  0.48156900  1
  O  O26  1  0.00000000  0.51254900  0.65099900  1
  O  O27  1  0.50000000  0.54198600  0.57825300  1
  O  O28  1  0.19281500  0.26831400  0.64164200  1
  O  O29  1  0.80718500  0.26831400  0.64164200  1
  O  O30  1  0.67662000  0.73090500  0.34855100  1
  O  O31  1  0.32338000  0.73090500  0.34855100  1
  O  O32  1  0.00000000  0.47224100  0.39272400  1
  O  O33  1  0.50000000  0.51729300  0.34231200  1
  O  O34  1  0.50000000  0.15000000  0.49349000  1
  O  O35  1  0.00000000  0.11939800  0.46467500  1
  O  O36  1  0.17646900  0.63916400  0.08604800  1
  O  O37  1  0.82353100  0.63916400  0.08604800  1
  O  O38  1  0.50000000  0.32289400  0.16590800  1
  O  O39  1  0.00000000  0.40482000  0.12874600  1
  O  O40  1  0.17463000  0.08243000  0.27304700  1
  O  O41  1  0.82537000  0.08243000  0.27304700  1
