data_image0
_chemical_formula_structural       Al5Ni2Zr
_chemical_formula_sum              "Al5 Ni2 Zr1"
_cell_length_a       4.01741
_cell_length_b       4.01741
_cell_length_c       7.81581
_cell_angle_alpha    104.892
_cell_angle_beta     104.892
_cell_angle_gamma    90

_space_group_name_H-M_alt    "P 1"
_space_group_IT_number       1

loop_
  _space_group_symop_operation_xyz
  'x, y, z'

loop_
  _atom_site_type_symbol
  _atom_site_label
  _atom_site_symmetry_multiplicity
  _atom_site_fract_x
  _atom_site_fract_y
  _atom_site_fract_z
  _atom_site_occupancy
  Al  Al1       1.0  0.50000  0.50000  0.00000  1.0000
  Al  Al2       1.0  0.64800  0.14800  0.29500  1.0000
  Al  Al3       1.0  0.14800  0.64800  0.29500  1.0000
  Al  Al4       1.0  0.85200  0.35200  0.70500  1.0000
  Al  Al5       1.0  0.35200  0.85200  0.70500  1.0000
  Ni  Ni1       1.0  0.23900  0.23900  0.47900  1.0000
  Ni  Ni2       1.0  0.76100  0.76100  0.52100  1.0000
  Zr  Zr1       1.0  0.00000  0.00000  0.00000  1.0000
