# generated using pymatgen
data_BaCO3
_symmetry_space_group_name_H-M   'P 1'
_cell_length_a   4.43165445
_cell_length_b   4.43165445
_cell_length_c   4.43165412
_cell_angle_alpha   74.96485496
_cell_angle_beta   74.96485496
_cell_angle_gamma   74.96485964
_symmetry_Int_Tables_number   1
_chemical_formula_structural   BaCO3
_chemical_formula_sum   'Ba1 C1 O3'
_cell_volume   79.43798014
_cell_formula_units_Z   1
loop_
 _symmetry_equiv_pos_site_id
 _symmetry_equiv_pos_as_xyz
  1  'x, y, z'
loop_
 _atom_site_type_symbol
 _atom_site_label
 _atom_site_symmetry_multiplicity
 _atom_site_fract_x
 _atom_site_fract_y
 _atom_site_fract_z
 _atom_site_occupancy
  Ba  Ba0  1  0.97917000  0.97917000  0.97917000  1
  C  C1  1  0.53121200  0.53121200  0.53121200  1
  O  O2  1  0.81247500  0.39457100  0.39457100  1
  O  O3  1  0.39457100  0.81247500  0.39457100  1
  O  O4  1  0.39457100  0.39457100  0.81247500  1
