# generated using pymatgen
data_La(BO2)3
_symmetry_space_group_name_H-M   'P 1'
_cell_length_a   6.49562406
_cell_length_b   6.49562406
_cell_length_c   6.58025434
_cell_angle_alpha   61.98332224
_cell_angle_beta   61.98332224
_cell_angle_gamma   78.66106332
_symmetry_Int_Tables_number   1
_chemical_formula_structural   La(BO2)3
_chemical_formula_sum   'La2 B6 O12'
_cell_volume   216.27844526
_cell_formula_units_Z   2
loop_
 _symmetry_equiv_pos_site_id
 _symmetry_equiv_pos_as_xyz
  1  'x, y, z'
loop_
 _atom_site_type_symbol
 _atom_site_label
 _atom_site_symmetry_multiplicity
 _atom_site_fract_x
 _atom_site_fract_y
 _atom_site_fract_z
 _atom_site_occupancy
  La  La0  1  0.20219300  0.79780700  0.75000000  1
  La  La1  1  0.79780700  0.20219300  0.25000000  1
  B  B2  1  0.77706400  0.22293600  0.75000000  1
  B  B3  1  0.79668100  0.65807400  0.41873900  1
  B  B4  1  0.34192600  0.20331900  0.08126100  1
  B  B5  1  0.22293600  0.77706400  0.25000000  1
  B  B6  1  0.65807400  0.79668100  0.91873900  1
  B  B7  1  0.20331900  0.34192600  0.58126100  1
  O  O8  1  0.78840700  0.41655100  0.51060300  1
  O  O9  1  0.58344900  0.21159300  0.98939700  1
  O  O10  1  0.98991800  0.22087200  0.78419500  1
  O  O11  1  0.77912800  0.01008200  0.71580500  1
  O  O12  1  0.01008200  0.77912800  0.21580500  1
  O  O13  1  0.22087200  0.98991800  0.28419500  1
  O  O14  1  0.61849500  0.78800400  0.50047400  1
  O  O15  1  0.21199600  0.38150500  0.99952600  1
  O  O16  1  0.38150500  0.21199600  0.49952600  1
  O  O17  1  0.78800400  0.61849500  0.00047400  1
  O  O18  1  0.41655100  0.78840700  0.01060300  1
  O  O19  1  0.21159300  0.58344900  0.48939700  1
