data_image0
_chemical_formula_structural       O2Pd2S2Ti2
_chemical_formula_sum              "O2 Pd2 S2 Ti2"
_cell_length_a       3.20468
_cell_length_b       3.20468
_cell_length_c       12.7426
_cell_angle_alpha    90
_cell_angle_beta     90
_cell_angle_gamma    60

_space_group_name_H-M_alt    "P 1"
_space_group_IT_number       1

loop_
  _space_group_symop_operation_xyz
  'x, y, z'

loop_
  _atom_site_type_symbol
  _atom_site_label
  _atom_site_symmetry_multiplicity
  _atom_site_fract_x
  _atom_site_fract_y
  _atom_site_fract_z
  _atom_site_occupancy
  O   O1        1.0  0.00000  0.00000  0.31400  1.0000
  O   O2        1.0  0.00000  0.00000  0.81400  1.0000
  Pd  Pd1       1.0  0.00000  0.00000  0.48600  1.0000
  Pd  Pd2       1.0  0.00000  0.00000  0.98600  1.0000
  S   S1        1.0  0.33300  0.33300  0.12900  1.0000
  S   S2        1.0  0.66700  0.66700  0.62900  1.0000
  Ti  Ti1       1.0  0.66700  0.66700  0.25800  1.0000
  Ti  Ti2       1.0  0.33300  0.33300  0.75800  1.0000
