data_image0
_chemical_formula_structural       Cr2Ni2O2S2
_chemical_formula_sum              "Cr2 Ni2 O2 S2"
_cell_length_a       3.31356
_cell_length_b       3.31356
_cell_length_c       11.2904
_cell_angle_alpha    90
_cell_angle_beta     90
_cell_angle_gamma    59.7941

_space_group_name_H-M_alt    "P 1"
_space_group_IT_number       1

loop_
  _space_group_symop_operation_xyz
  'x, y, z'

loop_
  _atom_site_type_symbol
  _atom_site_label
  _atom_site_symmetry_multiplicity
  _atom_site_fract_x
  _atom_site_fract_y
  _atom_site_fract_z
  _atom_site_occupancy
  Cr  Cr1       1.0  0.16300  0.16300  0.24900  1.0000
  Cr  Cr2       1.0  0.83700  0.83700  0.74900  1.0000
  Ni  Ni1       1.0  0.49700  0.49700  0.49600  1.0000
  Ni  Ni2       1.0  0.50300  0.50300  0.99600  1.0000
  O   O1        1.0  0.49600  0.49600  0.32600  1.0000
  O   O2        1.0  0.50400  0.50400  0.82600  1.0000
  S   S1        1.0  0.83100  0.83100  0.11600  1.0000
  S   S2        1.0  0.16900  0.16900  0.61600  1.0000
