data_image0
_chemical_formula_structural       O2S2Sn2Ti2
_chemical_formula_sum              "O2 S2 Sn2 Ti2"
_cell_length_a       3.02747
_cell_length_b       5.57128
_cell_length_c       7.7913
_cell_angle_alpha    90
_cell_angle_beta     78.797
_cell_angle_gamma    90

_space_group_name_H-M_alt    "P 1"
_space_group_IT_number       1

loop_
  _space_group_symop_operation_xyz
  'x, y, z'

loop_
  _atom_site_type_symbol
  _atom_site_label
  _atom_site_symmetry_multiplicity
  _atom_site_fract_x
  _atom_site_fract_y
  _atom_site_fract_z
  _atom_site_occupancy
  O   O1        1.0  0.00000  0.00000  0.00000  1.0000
  O   O2        1.0  0.00000  0.50000  0.00000  1.0000
  S   S1        1.0  0.83500  0.75000  0.33100  1.0000
  S   S2        1.0  0.16500  0.25000  0.66900  1.0000
  Sn  Sn1       1.0  0.84100  0.25000  0.31700  1.0000
  Sn  Sn2       1.0  0.15900  0.75000  0.68300  1.0000
  Ti  Ti1       1.0  0.46200  0.75000  0.07680  1.0000
  Ti  Ti2       1.0  0.53800  0.25000  0.92300  1.0000
