data_image0
_chemical_formula_structural       Ag4Ir4O4Se4
_chemical_formula_sum              "Ag4 Ir4 O4 Se4"
_cell_length_a       6.54349
_cell_length_b       6.6952
_cell_length_c       6.13728
_cell_angle_alpha    90
_cell_angle_beta     92.0767
_cell_angle_gamma    90

_space_group_name_H-M_alt    "P 1"
_space_group_IT_number       1

loop_
  _space_group_symop_operation_xyz
  'x, y, z'

loop_
  _atom_site_type_symbol
  _atom_site_label
  _atom_site_symmetry_multiplicity
  _atom_site_fract_x
  _atom_site_fract_y
  _atom_site_fract_z
  _atom_site_occupancy
  Ag  Ag1       1.0  0.94200  0.28800  0.01580  1.0000
  Ag  Ag2       1.0  0.05760  0.78800  0.48400  1.0000
  Ag  Ag3       1.0  0.94200  0.21200  0.51600  1.0000
  Ag  Ag4       1.0  0.05760  0.71200  0.98400  1.0000
  Ir  Ir1       1.0  0.50700  0.62700  0.23300  1.0000
  Ir  Ir2       1.0  0.49300  0.12700  0.26700  1.0000
  Ir  Ir3       1.0  0.50700  0.87300  0.73300  1.0000
  Ir  Ir4       1.0  0.49300  0.37300  0.76700  1.0000
  O   O1        1.0  0.63000  0.37400  0.09870  1.0000
  O   O2        1.0  0.37000  0.87400  0.40100  1.0000
  O   O3        1.0  0.63000  0.12600  0.59900  1.0000
  O   O4        1.0  0.37000  0.62600  0.90100  1.0000
  Se  Se1       1.0  0.71700  0.87700  0.06660  1.0000
  Se  Se2       1.0  0.28300  0.37700  0.43300  1.0000
  Se  Se3       1.0  0.71700  0.62300  0.56700  1.0000
  Se  Se4       1.0  0.28300  0.12300  0.93300  1.0000
