data_image0
_chemical_formula_structural       Al2Gd6Mg2S14
_chemical_formula_sum              "Al2 Gd6 Mg2 S14"
_cell_length_a       9.74884
_cell_length_b       9.74841
_cell_length_c       6.18912
_cell_angle_alpha    90
_cell_angle_beta     90
_cell_angle_gamma    120

_space_group_name_H-M_alt    "P 1"
_space_group_IT_number       1

loop_
  _space_group_symop_operation_xyz
  'x, y, z'

loop_
  _atom_site_type_symbol
  _atom_site_label
  _atom_site_symmetry_multiplicity
  _atom_site_fract_x
  _atom_site_fract_y
  _atom_site_fract_z
  _atom_site_occupancy
  Al  Al1       1.0  0.66700  0.33300  0.15200  1.0000
  Al  Al2       1.0  0.33300  0.66700  0.65200  1.0000
  Gd  Gd1       1.0  0.15500  0.38000  0.23100  1.0000
  Gd  Gd2       1.0  0.22600  0.84500  0.23100  1.0000
  Gd  Gd3       1.0  0.62000  0.77400  0.23100  1.0000
  Gd  Gd4       1.0  0.84500  0.62000  0.73100  1.0000
  Gd  Gd5       1.0  0.77400  0.15500  0.73100  1.0000
  Gd  Gd6       1.0  0.38000  0.22600  0.73100  1.0000
  Mg  Mg1       1.0  0.00000  0.00000  0.05650  1.0000
  Mg  Mg2       1.0  0.00000  0.00000  0.55600  1.0000
  S   S1        1.0  0.90800  0.42900  0.99900  1.0000
  S   S2        1.0  0.57100  0.47900  0.99900  1.0000
  S   S3        1.0  0.52100  0.09240  0.99900  1.0000
  S   S4        1.0  0.33300  0.66700  0.01570  1.0000
  S   S5        1.0  0.24300  0.13800  0.31600  1.0000
  S   S6        1.0  0.86200  0.10400  0.31600  1.0000
  S   S7        1.0  0.89600  0.75700  0.31600  1.0000
  S   S8        1.0  0.09230  0.57100  0.49900  1.0000
  S   S9        1.0  0.42900  0.52100  0.49900  1.0000
  S   S10       1.0  0.47900  0.90800  0.49900  1.0000
  S   S11       1.0  0.66700  0.33300  0.51600  1.0000
  S   S12       1.0  0.75700  0.86200  0.81600  1.0000
  S   S13       1.0  0.13800  0.89600  0.81600  1.0000
  S   S14       1.0  0.10400  0.24300  0.81600  1.0000
