data_image0
_chemical_formula_structural       O2S2Ti2Zn2
_chemical_formula_sum              "O2 S2 Ti2 Zn2"
_cell_length_a       3.14952
_cell_length_b       3.14952
_cell_length_c       13.4307
_cell_angle_alpha    90
_cell_angle_beta     90
_cell_angle_gamma    120

_space_group_name_H-M_alt    "P 1"
_space_group_IT_number       1

loop_
  _space_group_symop_operation_xyz
  'x, y, z'

loop_
  _atom_site_type_symbol
  _atom_site_label
  _atom_site_symmetry_multiplicity
  _atom_site_fract_x
  _atom_site_fract_y
  _atom_site_fract_z
  _atom_site_occupancy
  O   O1        1.0  0.00000  0.00000  0.17600  1.0000
  O   O2        1.0  0.00000  0.00000  0.67600  1.0000
  S   S1        1.0  0.33300  0.66700  0.36600  1.0000
  S   S2        1.0  0.66700  0.33300  0.86600  1.0000
  Ti  Ti1       1.0  0.66700  0.33300  0.24900  1.0000
  Ti  Ti2       1.0  0.33300  0.66700  0.74900  1.0000
  Zn  Zn1       1.0  0.00000  0.00000  0.02110  1.0000
  Zn  Zn2       1.0  0.00000  0.00000  0.52100  1.0000
