data_image0
_chemical_formula_structural       Cu10Mg26Y10
_chemical_formula_sum              "Cu10 Mg26 Y10"
_cell_length_a       4.10455
_cell_length_b       9.75315
_cell_length_c       25.5955
_cell_angle_alpha    90
_cell_angle_beta     90
_cell_angle_gamma    77.8529

_space_group_name_H-M_alt    "P 1"
_space_group_IT_number       1

loop_
  _space_group_symop_operation_xyz
  'x, y, z'

loop_
  _atom_site_type_symbol
  _atom_site_label
  _atom_site_symmetry_multiplicity
  _atom_site_fract_x
  _atom_site_fract_y
  _atom_site_fract_z
  _atom_site_occupancy
  Cu  Cu1       1.0  0.90400  0.19100  0.08530  1.0000
  Cu  Cu2       1.0  0.09340  0.81300  0.17000  1.0000
  Cu  Cu3       1.0  0.40000  0.20100  0.25000  1.0000
  Cu  Cu4       1.0  0.09340  0.81300  0.33000  1.0000
  Cu  Cu5       1.0  0.90400  0.19100  0.41500  1.0000
  Cu  Cu6       1.0  0.09560  0.80900  0.58500  1.0000
  Cu  Cu7       1.0  0.90700  0.18700  0.67000  1.0000
  Cu  Cu8       1.0  0.60000  0.79900  0.75000  1.0000
  Cu  Cu9       1.0  0.90700  0.18700  0.83000  1.0000
  Cu  Cu10      1.0  0.09560  0.80900  0.91500  1.0000
  Mg  Mg1       1.0  0.00000  0.00000  0.00000  1.0000
  Mg  Mg2       1.0  0.38300  0.23400  0.01680  1.0000
  Mg  Mg3       1.0  0.76700  0.46600  0.04590  1.0000
  Mg  Mg4       1.0  0.15000  0.70100  0.07100  1.0000
  Mg  Mg5       1.0  0.68600  0.62900  0.15800  1.0000
  Mg  Mg6       1.0  0.94600  0.10700  0.18900  1.0000
  Mg  Mg7       1.0  0.80700  0.38600  0.25000  1.0000
  Mg  Mg8       1.0  0.19400  0.61200  0.25000  1.0000
  Mg  Mg9       1.0  0.94600  0.10700  0.31100  1.0000
  Mg  Mg10      1.0  0.68600  0.62900  0.34200  1.0000
  Mg  Mg11      1.0  0.15000  0.70100  0.42900  1.0000
  Mg  Mg12      1.0  0.76700  0.46600  0.45400  1.0000
  Mg  Mg13      1.0  0.38300  0.23400  0.48300  1.0000
  Mg  Mg14      1.0  0.00000  0.00000  0.50000  1.0000
  Mg  Mg15      1.0  0.61700  0.76600  0.51700  1.0000
  Mg  Mg16      1.0  0.23300  0.53400  0.54600  1.0000
  Mg  Mg17      1.0  0.85000  0.29900  0.57100  1.0000
  Mg  Mg18      1.0  0.31400  0.37100  0.65800  1.0000
  Mg  Mg19      1.0  0.05350  0.89300  0.68900  1.0000
  Mg  Mg20      1.0  0.80600  0.38800  0.75000  1.0000
  Mg  Mg21      1.0  0.19300  0.61400  0.75000  1.0000
  Mg  Mg22      1.0  0.05350  0.89300  0.81100  1.0000
  Mg  Mg23      1.0  0.31400  0.37100  0.84200  1.0000
  Mg  Mg24      1.0  0.85000  0.29900  0.92900  1.0000
  Mg  Mg25      1.0  0.23300  0.53400  0.95400  1.0000
  Mg  Mg26      1.0  0.61700  0.76600  0.98300  1.0000
  Y   Y1        1.0  0.51600  0.96800  0.10600  1.0000
  Y   Y2        1.0  0.32500  0.35000  0.14400  1.0000
  Y   Y3        1.0  0.55500  0.88900  0.25000  1.0000
  Y   Y4        1.0  0.32500  0.35000  0.35600  1.0000
  Y   Y5        1.0  0.51600  0.96800  0.39400  1.0000
  Y   Y6        1.0  0.48400  0.03200  0.60600  1.0000
  Y   Y7        1.0  0.67500  0.65000  0.64400  1.0000
  Y   Y8        1.0  0.44500  0.11100  0.75000  1.0000
  Y   Y9        1.0  0.67500  0.65000  0.85600  1.0000
  Y   Y10       1.0  0.48400  0.03200  0.89400  1.0000
