data_image0
_chemical_formula_structural       Bi17K5Se28
_chemical_formula_sum              "Bi17 K5 Se28"
_cell_length_a       17.8656
_cell_length_b       4.23724
_cell_length_c       21.8483
_cell_angle_alpha    90
_cell_angle_beta     109.361
_cell_angle_gamma    90

_space_group_name_H-M_alt    "P 1"
_space_group_IT_number       1

loop_
  _space_group_symop_operation_xyz
  'x, y, z'

loop_
  _atom_site_type_symbol
  _atom_site_label
  _atom_site_symmetry_multiplicity
  _atom_site_fract_x
  _atom_site_fract_y
  _atom_site_fract_z
  _atom_site_occupancy
  Bi  Bi1       1.0  0.35000  0.00000  0.03600  1.0000
  Bi  Bi2       1.0  0.10700  0.00000  0.06520  1.0000
  Bi  Bi3       1.0  0.87400  0.00000  0.10800  1.0000
  Bi  Bi4       1.0  0.07940  0.50000  0.22800  1.0000
  Bi  Bi5       1.0  0.84700  0.50000  0.27200  1.0000
  Bi  Bi6       1.0  0.67200  0.00000  0.37300  1.0000
  Bi  Bi7       1.0  0.48200  0.50000  0.40700  1.0000
  Bi  Bi8       1.0  0.28100  0.00000  0.43700  1.0000
  Bi  Bi9       1.0  0.08940  0.50000  0.47500  1.0000
  Bi  Bi10      1.0  0.91500  0.00000  0.51700  1.0000
  Bi  Bi11      1.0  0.72500  0.50000  0.56400  1.0000
  Bi  Bi12      1.0  0.52000  0.00000  0.59100  1.0000
  Bi  Bi13      1.0  0.33400  0.50000  0.64200  1.0000
  Bi  Bi14      1.0  0.91800  0.00000  0.77500  1.0000
  Bi  Bi15      1.0  0.12800  0.50000  0.89000  1.0000
  Bi  Bi16      1.0  0.88700  0.50000  0.93200  1.0000
  Bi  Bi17      1.0  0.64500  0.50000  0.96800  1.0000
  K   K1        1.0  0.57000  0.50000  0.13800  1.0000
  K   K2        1.0  0.34000  0.50000  0.20900  1.0000
  K   K3        1.0  0.14300  0.00000  0.70400  1.0000
  K   K4        1.0  0.65800  0.00000  0.79300  1.0000
  K   K5        1.0  0.41900  0.00000  0.85700  1.0000
  Se  Se1       1.0  0.57300  0.00000  0.01090  1.0000
  Se  Se2       1.0  0.20400  0.50000  0.04840  1.0000
  Se  Se3       1.0  0.98800  0.50000  0.08870  1.0000
  Se  Se4       1.0  0.77800  0.50000  0.13800  1.0000
  Se  Se5       1.0  0.44200  0.00000  0.15900  1.0000
  Se  Se6       1.0  0.17800  0.00000  0.20300  1.0000
  Se  Se7       1.0  0.96600  0.00000  0.24600  1.0000
  Se  Se8       1.0  0.73600  0.00000  0.26400  1.0000
  Se  Se9       1.0  0.56600  0.50000  0.30900  1.0000
  Se  Se10      1.0  0.37600  0.00000  0.34300  1.0000
  Se  Se11      1.0  0.17400  0.50000  0.37000  1.0000
  Se  Se12      1.0  0.97200  0.00000  0.41100  1.0000
  Se  Se13      1.0  0.79200  0.50000  0.45500  1.0000
  Se  Se14      1.0  0.60600  0.00000  0.48300  1.0000
  Se  Se15      1.0  0.40200  0.50000  0.50800  1.0000
  Se  Se16      1.0  0.20900  0.00000  0.54100  1.0000
  Se  Se17      1.0  0.02740  0.50000  0.58000  1.0000
  Se  Se18      1.0  0.83200  0.00000  0.62800  1.0000
  Se  Se19      1.0  0.62800  0.50000  0.65300  1.0000
  Se  Se20      1.0  0.45000  0.00000  0.68800  1.0000
  Se  Se21      1.0  0.29100  0.50000  0.74300  1.0000
  Se  Se22      1.0  0.02300  0.50000  0.75900  1.0000
  Se  Se23      1.0  0.81100  0.50000  0.80000  1.0000
  Se  Se24      1.0  0.55800  0.50000  0.84600  1.0000
  Se  Se25      1.0  0.22000  0.00000  0.87200  1.0000
  Se  Se26      1.0  0.00279  0.00000  0.91700  1.0000
  Se  Se27      1.0  0.79100  0.00000  0.96100  1.0000
  Se  Se28      1.0  0.42000  0.50000  0.99200  1.0000
