# generated using pymatgen
data_K3TaO8
_symmetry_space_group_name_H-M   'P 1'
_cell_length_a   6.33497348
_cell_length_b   6.33497348
_cell_length_c   6.33497348
_cell_angle_alpha   113.97404796
_cell_angle_beta   113.97404796
_cell_angle_gamma   100.79842868
_symmetry_Int_Tables_number   1
_chemical_formula_structural   K3TaO8
_chemical_formula_sum   'K3 Ta1 O8'
_cell_volume   192.42006737
_cell_formula_units_Z   1
loop_
 _symmetry_equiv_pos_site_id
 _symmetry_equiv_pos_as_xyz
  1  'x, y, z'
loop_
 _atom_site_type_symbol
 _atom_site_label
 _atom_site_symmetry_multiplicity
 _atom_site_fract_x
 _atom_site_fract_y
 _atom_site_fract_z
 _atom_site_occupancy
  K  K0  1  0.25000000  0.75000000  0.50000000  1
  K  K1  1  0.75000000  0.25000000  0.50000000  1
  K  K2  1  0.50000000  0.50000000  0.00000000  1
  Ta  Ta3  1  0.00000000  0.00000000  0.00000000  1
  O  O4  1  0.32504800  0.32504800  0.27955600  1
  O  O5  1  0.67495200  0.95450800  0.00000000  1
  O  O6  1  0.95450800  0.67495200  0.00000000  1
  O  O7  1  0.04549200  0.04549200  0.72044400  1
  O  O8  1  0.23128800  0.23128800  0.42405600  1
  O  O9  1  0.76871200  0.19276800  0.00000000  1
  O  O10  1  0.19276800  0.76871200  0.00000000  1
  O  O11  1  0.80723200  0.80723200  0.57594400  1
