# generated using pymatgen
data_NaTaO3
_symmetry_space_group_name_H-M   'P 1'
_cell_length_a   5.55708168
_cell_length_b   5.55708168
_cell_length_c   7.90282600
_cell_angle_alpha   90.00000000
_cell_angle_beta   90.00000000
_cell_angle_gamma   90.51470065
_symmetry_Int_Tables_number   1
_chemical_formula_structural   NaTaO3
_chemical_formula_sum   'Na4 Ta4 O12'
_cell_volume   244.03856152
_cell_formula_units_Z   4
loop_
 _symmetry_equiv_pos_site_id
 _symmetry_equiv_pos_as_xyz
  1  'x, y, z'
loop_
 _atom_site_type_symbol
 _atom_site_label
 _atom_site_symmetry_multiplicity
 _atom_site_fract_x
 _atom_site_fract_y
 _atom_site_fract_z
 _atom_site_occupancy
  Na  Na0  1  0.99030200  0.00969800  0.75000000  1
  Na  Na1  1  0.00969800  0.99030200  0.25000000  1
  Na  Na2  1  0.49724600  0.50275400  0.75000000  1
  Na  Na3  1  0.50275400  0.49724600  0.25000000  1
  Ta  Ta4  1  0.50000000  0.00000000  0.00000000  1
  Ta  Ta5  1  0.50000000  0.00000000  0.50000000  1
  Ta  Ta6  1  0.00000000  0.50000000  0.00000000  1
  Ta  Ta7  1  0.00000000  0.50000000  0.50000000  1
  O  O8  1  0.96865900  0.45736100  0.75000000  1
  O  O9  1  0.03134100  0.54263900  0.25000000  1
  O  O10  1  0.45736100  0.96865900  0.25000000  1
  O  O11  1  0.54263900  0.03134100  0.75000000  1
  O  O12  1  0.21201400  0.78798600  0.53619600  1
  O  O13  1  0.78798600  0.21201400  0.03619600  1
  O  O14  1  0.78798600  0.21201400  0.46380400  1
  O  O15  1  0.21201400  0.78798600  0.96380400  1
  O  O16  1  0.28944000  0.28944000  0.00000000  1
  O  O17  1  0.71056000  0.71056000  0.50000000  1
  O  O18  1  0.71056000  0.71056000  0.00000000  1
  O  O19  1  0.28944000  0.28944000  0.50000000  1
