# generated using pymatgen
data_V2NiS4
_symmetry_space_group_name_H-M   'P 1'
_cell_length_a   6.29195225
_cell_length_b   6.29195225
_cell_length_c   5.85472676
_cell_angle_alpha   65.15002588
_cell_angle_beta   65.15002588
_cell_angle_gamma   29.69166264
_symmetry_Int_Tables_number   1
_chemical_formula_structural   V2NiS4
_chemical_formula_sum   'V2 Ni1 S4'
_cell_volume   103.39058564
_cell_formula_units_Z   1
loop_
 _symmetry_equiv_pos_site_id
 _symmetry_equiv_pos_as_xyz
  1  'x, y, z'
loop_
 _atom_site_type_symbol
 _atom_site_label
 _atom_site_symmetry_multiplicity
 _atom_site_fract_x
 _atom_site_fract_y
 _atom_site_fract_z
 _atom_site_occupancy
  V  V0  1  0.74179100  0.74179100  0.30909500  1
  V  V1  1  0.25820900  0.25820900  0.69090500  1
  Ni  Ni2  1  0.00000000  0.00000000  0.00000000  1
  S  S3  1  0.10729200  0.10729200  0.55341400  1
  S  S4  1  0.36142100  0.36142100  0.98008900  1
  S  S5  1  0.89270800  0.89270800  0.44658600  1
  S  S6  1  0.63857900  0.63857900  0.01991100  1
