# generated using pymatgen
data_As4S5
_symmetry_space_group_name_H-M   'P 1'
_cell_length_a   8.47734900
_cell_length_b   8.09387700
_cell_length_c   8.26183723
_cell_angle_alpha   77.36794901
_cell_angle_beta   90.00000000
_cell_angle_gamma   90.00000000
_symmetry_Int_Tables_number   1
_chemical_formula_structural   As4S5
_chemical_formula_sum   'As8 S10'
_cell_volume   553.16118668
_cell_formula_units_Z   2
loop_
 _symmetry_equiv_pos_site_id
 _symmetry_equiv_pos_as_xyz
  1  'x, y, z'
loop_
 _atom_site_type_symbol
 _atom_site_label
 _atom_site_symmetry_multiplicity
 _atom_site_fract_x
 _atom_site_fract_y
 _atom_site_fract_z
 _atom_site_occupancy
  As  As0  1  0.01939500  0.26247300  0.38837600  1
  As  As1  1  0.51939500  0.73752700  0.61162400  1
  As  As2  1  0.98060500  0.73752700  0.61162400  1
  As  As3  1  0.48060500  0.26247300  0.38837600  1
  As  As4  1  0.75000000  0.47064400  0.95177500  1
  As  As5  1  0.25000000  0.52935600  0.04822500  1
  As  As6  1  0.75000000  0.78273300  0.97763900  1
  As  As7  1  0.25000000  0.21726700  0.02236100  1
  S  S8  1  0.75000000  0.78364100  0.46507800  1
  S  S9  1  0.25000000  0.21635900  0.53492200  1
  S  S10  1  0.04256900  0.52761500  0.22496300  1
  S  S11  1  0.54256900  0.47238500  0.77503700  1
  S  S12  1  0.95743100  0.47238500  0.77503700  1
  S  S13  1  0.45743100  0.52761500  0.22496300  1
  S  S14  1  0.03890400  0.11822000  0.18234500  1
  S  S15  1  0.53890400  0.88178000  0.81765500  1
  S  S16  1  0.46109600  0.11822000  0.18234500  1
  S  S17  1  0.96109600  0.88178000  0.81765500  1
