# generated using pymatgen
data_Ge4Ir
_symmetry_space_group_name_H-M   'P 1'
_cell_length_a   6.29926430
_cell_length_b   6.29926430
_cell_length_c   7.89416800
_cell_angle_alpha   90.00000000
_cell_angle_beta   90.00000000
_cell_angle_gamma   120.00000319
_symmetry_Int_Tables_number   1
_chemical_formula_structural   Ge4Ir
_chemical_formula_sum   'Ge12 Ir3'
_cell_volume   271.27929240
_cell_formula_units_Z   3
loop_
 _symmetry_equiv_pos_site_id
 _symmetry_equiv_pos_as_xyz
  1  'x, y, z'
loop_
 _atom_site_type_symbol
 _atom_site_label
 _atom_site_symmetry_multiplicity
 _atom_site_fract_x
 _atom_site_fract_y
 _atom_site_fract_z
 _atom_site_occupancy
  Ge  Ge0  1  0.00000000  0.61828300  0.66666700  1
  Ge  Ge1  1  0.00000000  0.07921000  0.66666700  1
  Ge  Ge2  1  0.77863000  0.26542900  0.88591700  1
  Ge  Ge3  1  0.38171700  0.38171700  0.00000000  1
  Ge  Ge4  1  0.22137000  0.48680000  0.44741600  1
  Ge  Ge5  1  0.48680000  0.22137000  0.55258400  1
  Ge  Ge6  1  0.51320000  0.73457100  0.78074900  1
  Ge  Ge7  1  0.61828300  0.00000000  0.33333300  1
  Ge  Ge8  1  0.92079000  0.92079000  0.00000000  1
  Ge  Ge9  1  0.07921000  0.00000000  0.33333300  1
  Ge  Ge10  1  0.26542900  0.77863000  0.11408300  1
  Ge  Ge11  1  0.73457100  0.51320000  0.21925100  1
  Ir  Ir12  1  0.68241300  0.68241300  0.50000000  1
  Ir  Ir13  1  0.00000000  0.31758700  0.16666700  1
  Ir  Ir14  1  0.31758700  0.00000000  0.83333300  1
