# generated using pymatgen
data_CuO2
_symmetry_space_group_name_H-M   'P 1'
_cell_length_a   5.83183489
_cell_length_b   5.83183489
_cell_length_c   5.83183489
_cell_angle_alpha   60.00000000
_cell_angle_beta   60.00000000
_cell_angle_gamma   60.00000000
_symmetry_Int_Tables_number   1
_chemical_formula_structural   CuO2
_chemical_formula_sum   'Cu4 O8'
_cell_volume   140.24928710
_cell_formula_units_Z   4
loop_
 _symmetry_equiv_pos_site_id
 _symmetry_equiv_pos_as_xyz
  1  'x, y, z'
loop_
 _atom_site_type_symbol
 _atom_site_label
 _atom_site_symmetry_multiplicity
 _atom_site_fract_x
 _atom_site_fract_y
 _atom_site_fract_z
 _atom_site_occupancy
  Cu  Cu0  1  0.12500000  0.12500000  0.12500000  1
  Cu  Cu1  1  0.12500000  0.12500000  0.62500000  1
  Cu  Cu2  1  0.12500000  0.62500000  0.12500000  1
  Cu  Cu3  1  0.62500000  0.12500000  0.12500000  1
  O  O4  1  0.92207700  0.35930800  0.35930800  1
  O  O5  1  0.35930800  0.35930800  0.35930800  1
  O  O6  1  0.32792300  0.89069200  0.89069200  1
  O  O7  1  0.89069200  0.89069200  0.32792300  1
  O  O8  1  0.89069200  0.89069200  0.89069200  1
  O  O9  1  0.89069200  0.32792300  0.89069200  1
  O  O10  1  0.35930800  0.35930800  0.92207700  1
  O  O11  1  0.35930800  0.92207700  0.35930800  1
