# generated using pymatgen
data_Ag2WO4
_symmetry_space_group_name_H-M   'P 1'
_cell_length_a   5.98296300
_cell_length_b   10.95570600
_cell_length_c   12.62809400
_cell_angle_alpha   90.00000000
_cell_angle_beta   90.00000000
_cell_angle_gamma   90.00000000
_symmetry_Int_Tables_number   1
_chemical_formula_structural   Ag2WO4
_chemical_formula_sum   'Ag16 W8 O32'
_cell_volume   827.74104764
_cell_formula_units_Z   8
loop_
 _symmetry_equiv_pos_site_id
 _symmetry_equiv_pos_as_xyz
  1  'x, y, z'
loop_
 _atom_site_type_symbol
 _atom_site_label
 _atom_site_symmetry_multiplicity
 _atom_site_fract_x
 _atom_site_fract_y
 _atom_site_fract_z
 _atom_site_occupancy
  Ag  Ag0  1  0.00000000  0.50000000  0.50000000  1
  Ag  Ag1  1  0.50000000  0.00000000  0.00000000  1
  Ag  Ag2  1  0.50000000  0.50000000  0.31268400  1
  Ag  Ag3  1  0.00000000  0.00000000  0.81268400  1
  Ag  Ag4  1  0.50000000  0.50000000  0.68731600  1
  Ag  Ag5  1  0.00000000  0.00000000  0.18731600  1
  Ag  Ag6  1  0.50000000  0.50000000  0.00000000  1
  Ag  Ag7  1  0.00000000  0.00000000  0.50000000  1
  Ag  Ag8  1  0.51457200  0.25800300  0.82607100  1
  Ag  Ag9  1  0.48542800  0.74199700  0.82607100  1
  Ag  Ag10  1  0.98542800  0.75800300  0.32607100  1
  Ag  Ag11  1  0.01457200  0.24199700  0.32607100  1
  Ag  Ag12  1  0.98542800  0.75800300  0.67392900  1
  Ag  Ag13  1  0.51457200  0.25800300  0.17392900  1
  Ag  Ag14  1  0.01457200  0.24199700  0.67392900  1
  Ag  Ag15  1  0.48542800  0.74199700  0.17392900  1
  W  W16  1  0.00000000  0.50000000  0.14093100  1
  W  W17  1  0.50000000  0.00000000  0.64093100  1
  W  W18  1  0.00000000  0.50000000  0.85906900  1
  W  W19  1  0.50000000  0.00000000  0.35906900  1
  W  W20  1  0.02624400  0.24458000  0.00000000  1
  W  W21  1  0.97375600  0.75542000  0.00000000  1
  W  W22  1  0.47375600  0.74458000  0.50000000  1
  W  W23  1  0.52624400  0.25542000  0.50000000  1
  O  O24  1  0.35989100  0.31674600  0.38908100  1
  O  O25  1  0.64010900  0.68325300  0.38908100  1
  O  O26  1  0.14010900  0.81674700  0.88908100  1
  O  O27  1  0.85989100  0.18325400  0.88908100  1
  O  O28  1  0.35989100  0.31674600  0.61091900  1
  O  O29  1  0.64010900  0.68325300  0.61091900  1
  O  O30  1  0.14010900  0.81674700  0.11091900  1
  O  O31  1  0.85989100  0.18325400  0.11091900  1
  O  O32  1  0.34943300  0.08732400  0.50000000  1
  O  O33  1  0.65056700  0.91267600  0.50000000  1
  O  O34  1  0.15056700  0.58732400  0.00000000  1
  O  O35  1  0.84943300  0.41267600  0.00000000  1
  O  O36  1  0.77405600  0.35390200  0.50000000  1
  O  O37  1  0.22594400  0.64609800  0.50000000  1
  O  O38  1  0.72594400  0.85390200  0.00000000  1
  O  O39  1  0.27405600  0.14609800  0.00000000  1
  O  O40  1  0.31226900  0.08025300  0.26891200  1
  O  O41  1  0.68773100  0.91974700  0.26891200  1
  O  O42  1  0.18773100  0.58025300  0.76891200  1
  O  O43  1  0.81226900  0.41974700  0.76891200  1
  O  O44  1  0.31226900  0.08025300  0.73108800  1
  O  O45  1  0.68773100  0.91974700  0.73108800  1
  O  O46  1  0.18773100  0.58025300  0.23108800  1
  O  O47  1  0.81226900  0.41974700  0.23108800  1
  O  O48  1  0.19645100  0.36337000  0.10841000  1
  O  O49  1  0.80355000  0.63663000  0.10841000  1
  O  O50  1  0.30355000  0.86337000  0.60841000  1
  O  O51  1  0.69645000  0.13663000  0.60841000  1
  O  O52  1  0.69645000  0.13663000  0.39159000  1
  O  O53  1  0.80355000  0.63663000  0.89159000  1
  O  O54  1  0.30355000  0.86337000  0.39159000  1
  O  O55  1  0.19645100  0.36337000  0.89159000  1
