# generated using pymatgen
data_Be2TlF5
_symmetry_space_group_name_H-M   'P 1'
_cell_length_a   4.70842100
_cell_length_b   8.18166000
_cell_length_c   12.82999720
_cell_angle_alpha   89.12614054
_cell_angle_beta   90.00000000
_cell_angle_gamma   90.00000000
_symmetry_Int_Tables_number   1
_chemical_formula_structural   Be2TlF5
_chemical_formula_sum   'Be8 Tl4 F20'
_cell_volume   494.18864647
_cell_formula_units_Z   4
loop_
 _symmetry_equiv_pos_site_id
 _symmetry_equiv_pos_as_xyz
  1  'x, y, z'
loop_
 _atom_site_type_symbol
 _atom_site_label
 _atom_site_symmetry_multiplicity
 _atom_site_fract_x
 _atom_site_fract_y
 _atom_site_fract_z
 _atom_site_occupancy
  Be  Be0  1  0.47449000  0.16944900  0.79255500  1
  Be  Be1  1  0.47449000  0.83055100  0.70744500  1
  Be  Be2  1  0.52551000  0.83055100  0.20744500  1
  Be  Be3  1  0.52551000  0.16944900  0.29255500  1
  Be  Be4  1  0.97574200  0.66734300  0.79780800  1
  Be  Be5  1  0.97574200  0.33265700  0.70219200  1
  Be  Be6  1  0.02425800  0.33265700  0.20219200  1
  Be  Be7  1  0.02425800  0.66734300  0.29780800  1
  Tl  Tl8  1  0.00000000  0.00000000  0.00000000  1
  Tl  Tl9  1  0.00000000  0.00000000  0.50000000  1
  Tl  Tl10  1  0.50000000  0.50000000  0.00000000  1
  Tl  Tl11  1  0.50000000  0.50000000  0.50000000  1
  F  F12  1  0.57904100  0.00000000  0.75000000  1
  F  F13  1  0.42095900  0.00000000  0.25000000  1
  F  F14  1  0.07485500  0.50000000  0.75000000  1
  F  F15  1  0.92514500  0.50000000  0.25000000  1
  F  F16  1  0.15424800  0.19271200  0.75759900  1
  F  F17  1  0.15424800  0.80728800  0.74240100  1
  F  F18  1  0.84575200  0.80728800  0.24240100  1
  F  F19  1  0.84575200  0.19271200  0.25759900  1
  F  F20  1  0.65369600  0.69391900  0.76617700  1
  F  F21  1  0.65369600  0.30608100  0.73382300  1
  F  F22  1  0.34630400  0.30608100  0.23382300  1
  F  F23  1  0.34630400  0.69391900  0.26617700  1
  F  F24  1  0.50235700  0.17671100  0.91016900  1
  F  F25  1  0.50235700  0.82328900  0.58983100  1
  F  F26  1  0.49764300  0.82328900  0.08983100  1
  F  F27  1  0.49764300  0.17671100  0.41016900  1
  F  F28  1  0.00972800  0.66968500  0.91536500  1
  F  F29  1  0.00972800  0.33031500  0.58463500  1
  F  F30  1  0.99027200  0.33031500  0.08463500  1
  F  F31  1  0.99027200  0.66968500  0.41536500  1
