# generated using pymatgen
data_Ni(PO3)3
_symmetry_space_group_name_H-M   'P 1'
_cell_length_a   6.59495900
_cell_length_b   6.93682221
_cell_length_c   7.50947071
_cell_angle_alpha   101.93108120
_cell_angle_beta   93.83837222
_cell_angle_gamma   96.00549500
_symmetry_Int_Tables_number   1
_chemical_formula_structural   Ni(PO3)3
_chemical_formula_sum   'Ni2 P6 O18'
_cell_volume   332.88966717
_cell_formula_units_Z   2
loop_
 _symmetry_equiv_pos_site_id
 _symmetry_equiv_pos_as_xyz
  1  'x, y, z'
loop_
 _atom_site_type_symbol
 _atom_site_label
 _atom_site_symmetry_multiplicity
 _atom_site_fract_x
 _atom_site_fract_y
 _atom_site_fract_z
 _atom_site_occupancy
  Ni  Ni0  1  0.84618700  0.91219100  0.13904000  1
  Ni  Ni1  1  0.15381300  0.08780900  0.86096000  1
  P  P2  1  0.84616700  0.78733500  0.54687500  1
  P  P3  1  0.66738700  0.10052100  0.79284400  1
  P  P4  1  0.66581200  0.53039800  0.77841900  1
  P  P5  1  0.33418800  0.46960200  0.22158100  1
  P  P6  1  0.33261300  0.89947900  0.20715600  1
  P  P7  1  0.15383300  0.21266500  0.45312500  1
  O  O8  1  0.95190600  0.15608500  0.34075700  1
  O  O9  1  0.84726700  0.74237200  0.34170200  1
  O  O10  1  0.84262600  0.08475700  0.92924400  1
  O  O11  1  0.79370500  0.65747900  0.94185300  1
  O  O12  1  0.69099700  0.95143800  0.60166000  1
  O  O13  1  0.71823100  0.30919400  0.73135700  1
  O  O14  1  0.72638800  0.59047400  0.59272700  1
  O  O15  1  0.55927300  0.45684800  0.19436400  1
  O  O16  1  0.54590600  0.92869700  0.16133700  1
  O  O17  1  0.45409400  0.07130300  0.83866300  1
  O  O18  1  0.44072700  0.54315200  0.80563600  1
  O  O19  1  0.27361200  0.40952600  0.40727300  1
  O  O20  1  0.28176900  0.69080600  0.26864300  1
  O  O21  1  0.30900300  0.04856200  0.39834000  1
  O  O22  1  0.20629500  0.34252100  0.05814700  1
  O  O23  1  0.15737400  0.91524300  0.07075600  1
  O  O24  1  0.15273300  0.25762800  0.65829800  1
  O  O25  1  0.04809400  0.84391500  0.65924300  1
