# generated using pymatgen
data_Mn4(PO4)3
_symmetry_space_group_name_H-M   'P 1'
_cell_length_a   6.39801900
_cell_length_b   9.98264500
_cell_length_c   16.40698900
_cell_angle_alpha   90.00000000
_cell_angle_beta   90.00000000
_cell_angle_gamma   90.00000000
_symmetry_Int_Tables_number   1
_chemical_formula_structural   Mn4(PO4)3
_chemical_formula_sum   'Mn16 P12 O48'
_cell_volume   1047.90048054
_cell_formula_units_Z   4
loop_
 _symmetry_equiv_pos_site_id
 _symmetry_equiv_pos_as_xyz
  1  'x, y, z'
loop_
 _atom_site_type_symbol
 _atom_site_label
 _atom_site_symmetry_multiplicity
 _atom_site_fract_x
 _atom_site_fract_y
 _atom_site_fract_z
 _atom_site_occupancy
  Mn  Mn0  1  0.00000000  0.54889200  0.09411900  1
  Mn  Mn1  1  0.00000000  0.98754200  0.13917400  1
  Mn  Mn2  1  0.00000000  0.01245800  0.86082600  1
  Mn  Mn3  1  0.00000000  0.45110800  0.90588100  1
  Mn  Mn4  1  0.75275600  0.75976500  0.29888500  1
  Mn  Mn5  1  0.75275600  0.24023500  0.70111500  1
  Mn  Mn6  1  0.74724400  0.25976500  0.20111500  1
  Mn  Mn7  1  0.74724400  0.74023500  0.79888500  1
  Mn  Mn8  1  0.50000000  0.48754200  0.36082600  1
  Mn  Mn9  1  0.50000000  0.04889200  0.40588100  1
  Mn  Mn10  1  0.50000000  0.95110800  0.59411900  1
  Mn  Mn11  1  0.50000000  0.51245800  0.63917400  1
  Mn  Mn12  1  0.25275600  0.25976500  0.20111500  1
  Mn  Mn13  1  0.25275600  0.74023500  0.79888500  1
  Mn  Mn14  1  0.24724400  0.75976500  0.29888500  1
  Mn  Mn15  1  0.24724400  0.24023500  0.70111500  1
  P  P16  1  0.00000000  0.21515400  0.03274300  1
  P  P17  1  0.00000000  0.46781400  0.27938900  1
  P  P18  1  0.00000000  0.05240400  0.33890000  1
  P  P19  1  0.00000000  0.94759600  0.66110000  1
  P  P20  1  0.00000000  0.53218600  0.72061100  1
  P  P21  1  0.00000000  0.78484600  0.96725700  1
  P  P22  1  0.50000000  0.55240400  0.16110000  1
  P  P23  1  0.50000000  0.96781400  0.22061100  1
  P  P24  1  0.50000000  0.71515400  0.46725700  1
  P  P25  1  0.50000000  0.28484600  0.53274300  1
  P  P26  1  0.50000000  0.03218600  0.77938900  1
  P  P27  1  0.50000000  0.44759600  0.83890000  1
  O  O28  1  0.00000000  0.37289000  0.01759100  1
  O  O29  1  0.00000000  0.84656100  0.05137100  1
  O  O30  1  0.00000000  0.41601400  0.18497000  1
  O  O31  1  0.00000000  0.12520800  0.25170200  1
  O  O32  1  0.00000000  0.62283700  0.27448600  1
  O  O33  1  0.00000000  0.89801800  0.32298900  1
  O  O34  1  0.00000000  0.10198200  0.67701100  1
  O  O35  1  0.00000000  0.37716300  0.72551400  1
  O  O36  1  0.00000000  0.87479200  0.74829800  1
  O  O37  1  0.00000000  0.58398600  0.81503000  1
  O  O38  1  0.00000000  0.15343900  0.94862900  1
  O  O39  1  0.00000000  0.62711000  0.98240900  1
  O  O40  1  0.80866500  0.17435400  0.08598300  1
  O  O41  1  0.80866500  0.82564600  0.91401700  1
  O  O42  1  0.79957200  0.09405500  0.38411400  1
  O  O43  1  0.79957200  0.90594500  0.61588600  1
  O  O44  1  0.79692900  0.40863900  0.31290200  1
  O  O45  1  0.79692900  0.59136100  0.68709800  1
  O  O46  1  0.70307100  0.90863900  0.18709800  1
  O  O47  1  0.70307100  0.09136100  0.81290200  1
  O  O48  1  0.70042800  0.59405500  0.11588600  1
  O  O49  1  0.70042800  0.40594500  0.88411400  1
  O  O50  1  0.69133500  0.67435400  0.41401700  1
  O  O51  1  0.69133500  0.32564600  0.58598300  1
  O  O52  1  0.50000000  0.39801800  0.17701100  1
  O  O53  1  0.50000000  0.12283700  0.22551400  1
  O  O54  1  0.50000000  0.62520800  0.24829800  1
  O  O55  1  0.50000000  0.91601400  0.31503000  1
  O  O56  1  0.50000000  0.34656100  0.44862900  1
  O  O57  1  0.50000000  0.87289000  0.48240900  1
  O  O58  1  0.50000000  0.12711000  0.51759100  1
  O  O59  1  0.50000000  0.65343900  0.55137100  1
  O  O60  1  0.50000000  0.08398600  0.68497000  1
  O  O61  1  0.50000000  0.37479200  0.75170200  1
  O  O62  1  0.50000000  0.87716300  0.77448600  1
  O  O63  1  0.50000000  0.60198200  0.82298900  1
  O  O64  1  0.30866500  0.67435400  0.41401700  1
  O  O65  1  0.30866500  0.32564600  0.58598300  1
  O  O66  1  0.29957200  0.59405500  0.11588600  1
  O  O67  1  0.29957200  0.40594500  0.88411400  1
  O  O68  1  0.29692900  0.90863900  0.18709800  1
  O  O69  1  0.29692900  0.09136100  0.81290200  1
  O  O70  1  0.20307100  0.40863900  0.31290200  1
  O  O71  1  0.20307100  0.59136100  0.68709800  1
  O  O72  1  0.20042800  0.09405500  0.38411400  1
  O  O73  1  0.20042800  0.90594500  0.61588600  1
  O  O74  1  0.19133500  0.17435400  0.08598300  1
  O  O75  1  0.19133500  0.82564600  0.91401700  1
