# generated using pymatgen
data_Co(PO3)4
_symmetry_space_group_name_H-M   'P 1'
_cell_length_a   7.06335891
_cell_length_b   7.06335891
_cell_length_c   9.47421914
_cell_angle_alpha   88.09354270
_cell_angle_beta   88.09354270
_cell_angle_gamma   109.09453657
_symmetry_Int_Tables_number   1
_chemical_formula_structural   Co(PO3)4
_chemical_formula_sum   'Co2 P8 O24'
_cell_volume   445.93661383
_cell_formula_units_Z   2
loop_
 _symmetry_equiv_pos_site_id
 _symmetry_equiv_pos_as_xyz
  1  'x, y, z'
loop_
 _atom_site_type_symbol
 _atom_site_label
 _atom_site_symmetry_multiplicity
 _atom_site_fract_x
 _atom_site_fract_y
 _atom_site_fract_z
 _atom_site_occupancy
  Co  Co0  1  0.88782600  0.11217400  0.75000000  1
  Co  Co1  1  0.11217400  0.88782600  0.25000000  1
  P  P2  1  0.79396500  0.72648100  0.52983400  1
  P  P3  1  0.72648100  0.79396500  0.02983400  1
  P  P4  1  0.71824700  0.37027600  0.96433000  1
  P  P5  1  0.62972400  0.28175300  0.53567000  1
  P  P6  1  0.37027600  0.71824700  0.46433000  1
  P  P7  1  0.28175300  0.62972400  0.03567000  1
  P  P8  1  0.27351900  0.20603500  0.97016600  1
  P  P9  1  0.20603500  0.27351900  0.47016600  1
  O  O10  1  0.93289700  0.72165100  0.40730700  1
  O  O11  1  0.87352300  0.86219700  0.64750900  1
  O  O12  1  0.77594200  0.60800500  0.96382500  1
  O  O13  1  0.86219700  0.87352300  0.14750900  1
  O  O14  1  0.69420200  0.50293400  0.59994100  1
  O  O15  1  0.86542000  0.33870300  0.85359100  1
  O  O16  1  0.72165100  0.93289700  0.90730700  1
  O  O17  1  0.60800500  0.77594200  0.46382500  1
  O  O18  1  0.72893800  0.27909100  0.39490400  1
  O  O19  1  0.72090900  0.27106200  0.10509600  1
  O  O20  1  0.66129700  0.13458000  0.64640900  1
  O  O21  1  0.50293400  0.69420200  0.09994100  1
  O  O22  1  0.49706600  0.30579800  0.90005900  1
  O  O23  1  0.33870300  0.86542000  0.35359100  1
  O  O24  1  0.27909100  0.72893800  0.89490400  1
  O  O25  1  0.27106200  0.72090900  0.60509600  1
  O  O26  1  0.39199500  0.22405800  0.53617500  1
  O  O27  1  0.27834900  0.06710300  0.09269300  1
  O  O28  1  0.13458000  0.66129700  0.14640900  1
  O  O29  1  0.30579800  0.49706600  0.40005900  1
  O  O30  1  0.13780300  0.12647700  0.85249100  1
  O  O31  1  0.22405800  0.39199500  0.03617500  1
  O  O32  1  0.12647700  0.13780300  0.35249100  1
  O  O33  1  0.06710300  0.27834900  0.59269300  1
