# generated using pymatgen
data_Ba2MnO3
_symmetry_space_group_name_H-M   'P 1'
_cell_length_a   5.95903300
_cell_length_b   6.55346189
_cell_length_c   12.81771537
_cell_angle_alpha   88.51922424
_cell_angle_beta   86.74163206
_cell_angle_gamma   62.95773478
_symmetry_Int_Tables_number   1
_chemical_formula_structural   Ba2MnO3
_chemical_formula_sum   'Ba8 Mn4 O12'
_cell_volume   445.11480173
_cell_formula_units_Z   4
loop_
 _symmetry_equiv_pos_site_id
 _symmetry_equiv_pos_as_xyz
  1  'x, y, z'
loop_
 _atom_site_type_symbol
 _atom_site_label
 _atom_site_symmetry_multiplicity
 _atom_site_fract_x
 _atom_site_fract_y
 _atom_site_fract_z
 _atom_site_occupancy
  Ba  Ba0  1  0.21262900  0.58532800  0.25042800  1
  Ba  Ba1  1  0.79795700  0.41467200  0.75042800  1
  Ba  Ba2  1  0.67594900  0.59418500  0.05235600  1
  Ba  Ba3  1  0.27013400  0.40581500  0.55235600  1
  Ba  Ba4  1  0.58263100  0.78607700  0.47674000  1
  Ba  Ba5  1  0.36870800  0.21392300  0.97674000  1
  Ba  Ba6  1  0.89845700  0.20403200  0.32700800  1
  Ba  Ba7  1  0.10248900  0.79596800  0.82700800  1
  Mn  Mn8  1  0.96422800  0.99603800  0.06645000  1
  Mn  Mn9  1  0.96026700  0.00396200  0.56645000  1
  Mn  Mn10  1  0.52106400  0.98879700  0.23855100  1
  Mn  Mn11  1  0.50986100  0.01120300  0.73855100  1
  O  O12  1  0.36982000  0.19273100  0.36617800  1
  O  O13  1  0.56255000  0.80726900  0.86617800  1
  O  O14  1  0.09222200  0.65927600  0.03378000  1
  O  O15  1  0.75149700  0.34072400  0.53378000  1
  O  O16  1  0.83538800  0.79876400  0.65166600  1
  O  O17  1  0.63415200  0.20123600  0.15166600  1
  O  O18  1  0.11666400  0.79787700  0.43913400  1
  O  O19  1  0.91454100  0.20212300  0.93913400  1
  O  O20  1  0.24392800  0.98453900  0.15425300  1
  O  O21  1  0.22846700  0.01546100  0.65425300  1
  O  O22  1  0.38245900  0.34847800  0.76975400  1
  O  O23  1  0.73093700  0.65152200  0.26975400  1
