# generated using pymatgen
data_Li2FeP2O7
_symmetry_space_group_name_H-M   'P 1'
_cell_length_a   7.58481773
_cell_length_b   7.58481797
_cell_length_c   11.05104976
_cell_angle_alpha   89.56597694
_cell_angle_beta   90.43402502
_cell_angle_gamma   64.77823884
_symmetry_Int_Tables_number   1
_chemical_formula_structural   Li2FeP2O7
_chemical_formula_sum   'Li8 Fe4 P8 O28'
_cell_volume   575.09333773
_cell_formula_units_Z   4
loop_
 _symmetry_equiv_pos_site_id
 _symmetry_equiv_pos_as_xyz
  1  'x, y, z'
loop_
 _atom_site_type_symbol
 _atom_site_label
 _atom_site_symmetry_multiplicity
 _atom_site_fract_x
 _atom_site_fract_y
 _atom_site_fract_z
 _atom_site_occupancy
  Li  Li0  1  0.28325600  0.28879600  0.99975100  1
  Li  Li1  1  0.71120400  0.71674400  0.49975100  1
  Li  Li2  1  0.28560600  0.28560600  0.75000000  1
  Li  Li3  1  0.71085300  0.71085300  0.75000000  1
  Li  Li4  1  0.28914700  0.28914700  0.25000000  1
  Li  Li5  1  0.71439400  0.71439400  0.25000000  1
  Li  Li6  1  0.28879600  0.28325600  0.50024900  1
  Li  Li7  1  0.71674400  0.71120400  0.00024900  1
  Fe  Fe8  1  0.30925600  0.69185900  0.88058200  1
  Fe  Fe9  1  0.30814100  0.69074400  0.38058200  1
  Fe  Fe10  1  0.69185900  0.30925600  0.61941800  1
  Fe  Fe11  1  0.69074400  0.30814100  0.11941800  1
  P  P12  1  0.30857800  0.91025300  0.62817400  1
  P  P13  1  0.08974700  0.69142200  0.12817400  1
  P  P14  1  0.09074300  0.68370900  0.62928100  1
  P  P15  1  0.31629100  0.90925700  0.12928100  1
  P  P16  1  0.68370900  0.09074300  0.87071900  1
  P  P17  1  0.90925700  0.31629100  0.37071900  1
  P  P18  1  0.91025300  0.30857800  0.87182600  1
  P  P19  1  0.69142200  0.08974700  0.37182600  1
  O  O20  1  0.10094300  0.89438600  0.62644100  1
  O  O21  1  0.10561400  0.89905700  0.12644100  1
  O  O22  1  0.41676000  0.80179100  0.74497600  1
  O  O23  1  0.41988000  0.80060700  0.51464600  1
  O  O24  1  0.19827700  0.57903900  0.74707800  1
  O  O25  1  0.19820900  0.58324000  0.24497600  1
  O  O26  1  0.19939300  0.58012000  0.01464600  1
  O  O27  1  0.42096100  0.80172300  0.24707800  1
  O  O28  1  0.20482300  0.57361900  0.51661400  1
  O  O29  1  0.42638100  0.79517700  0.01661400  1
  O  O30  1  0.72733700  0.87795000  0.87363800  1
  O  O31  1  0.12205000  0.27266300  0.37363800  1
  O  O32  1  0.12423800  0.26013500  0.87422300  1
  O  O33  1  0.73986500  0.87576200  0.37422300  1
  O  O34  1  0.26013500  0.12423800  0.62577700  1
  O  O35  1  0.87576200  0.73986500  0.12577700  1
  O  O36  1  0.87795000  0.72733700  0.62636200  1
  O  O37  1  0.27266300  0.12205000  0.12636200  1
  O  O38  1  0.57361900  0.20482300  0.98338600  1
  O  O39  1  0.79517700  0.42638100  0.48338600  1
  O  O40  1  0.57903900  0.19827700  0.75292200  1
  O  O41  1  0.80060700  0.41988000  0.98535400  1
  O  O42  1  0.80179100  0.41676000  0.75502400  1
  O  O43  1  0.80172300  0.42096100  0.25292200  1
  O  O44  1  0.58012000  0.19939300  0.48535400  1
  O  O45  1  0.58324000  0.19820900  0.25502400  1
  O  O46  1  0.89438600  0.10094300  0.87355900  1
  O  O47  1  0.89905700  0.10561400  0.37355900  1
