# generated using pymatgen
data_Pr2NiO4
_symmetry_space_group_name_H-M   'P 1'
_cell_length_a   5.58377100
_cell_length_b   5.58377100
_cell_length_c   12.29520500
_cell_angle_alpha   90.00000000
_cell_angle_beta   90.00000000
_cell_angle_gamma   90.00000000
_symmetry_Int_Tables_number   1
_chemical_formula_structural   Pr2NiO4
_chemical_formula_sum   'Pr8 Ni4 O16'
_cell_volume   383.34603164
_cell_formula_units_Z   4
loop_
 _symmetry_equiv_pos_site_id
 _symmetry_equiv_pos_as_xyz
  1  'x, y, z'
loop_
 _atom_site_type_symbol
 _atom_site_label
 _atom_site_symmetry_multiplicity
 _atom_site_fract_x
 _atom_site_fract_y
 _atom_site_fract_z
 _atom_site_occupancy
  Pr  Pr0  1  0.23504300  0.73504300  0.11330900  1
  Pr  Pr1  1  0.76495700  0.73504300  0.61330900  1
  Pr  Pr2  1  0.23504300  0.26495700  0.61330900  1
  Pr  Pr3  1  0.73504300  0.76495700  0.88669100  1
  Pr  Pr4  1  0.26495700  0.23504300  0.88669100  1
  Pr  Pr5  1  0.76495700  0.26495700  0.11330900  1
  Pr  Pr6  1  0.73504300  0.23504300  0.38669100  1
  Pr  Pr7  1  0.26495700  0.76495700  0.38669100  1
  Ni  Ni8  1  0.25000000  0.75000000  0.75000000  1
  Ni  Ni9  1  0.75000000  0.75000000  0.25000000  1
  Ni  Ni10  1  0.25000000  0.25000000  0.25000000  1
  Ni  Ni11  1  0.75000000  0.25000000  0.75000000  1
  O  O12  1  0.50000000  0.00000000  0.72291100  1
  O  O13  1  0.50000000  0.00000000  0.22291100  1
  O  O14  1  0.00000000  0.50000000  0.27708900  1
  O  O15  1  0.00000000  0.50000000  0.77708900  1
  O  O16  1  0.00000000  0.00000000  0.75000000  1
  O  O17  1  0.50000000  0.50000000  0.25000000  1
  O  O18  1  0.50000000  0.50000000  0.75000000  1
  O  O19  1  0.00000000  0.00000000  0.25000000  1
  O  O20  1  0.29958700  0.79958700  0.92906000  1
  O  O21  1  0.70041300  0.79958700  0.42906000  1
  O  O22  1  0.29958700  0.20041300  0.42906000  1
  O  O23  1  0.79958700  0.70041300  0.07094000  1
  O  O24  1  0.20041300  0.29958700  0.07094000  1
  O  O25  1  0.70041300  0.20041300  0.92906000  1
  O  O26  1  0.79958700  0.29958700  0.57094000  1
  O  O27  1  0.20041300  0.70041300  0.57094000  1
