# generated using pymatgen
data_K3Cr(HO)6
_symmetry_space_group_name_H-M   'P 1'
_cell_length_a   7.33470299
_cell_length_b   7.33470276
_cell_length_c   7.33470445
_cell_angle_alpha   95.98465376
_cell_angle_beta   95.98466245
_cell_angle_gamma   95.98466098
_symmetry_Int_Tables_number   1
_chemical_formula_structural   K3Cr(HO)6
_chemical_formula_sum   'K6 Cr2 H12 O12'
_cell_volume   387.64897979
_cell_formula_units_Z   2
loop_
 _symmetry_equiv_pos_site_id
 _symmetry_equiv_pos_as_xyz
  1  'x, y, z'
loop_
 _atom_site_type_symbol
 _atom_site_label
 _atom_site_symmetry_multiplicity
 _atom_site_fract_x
 _atom_site_fract_y
 _atom_site_fract_z
 _atom_site_occupancy
  K  K0  1  0.86908700  0.25000000  0.63091300  1
  K  K1  1  0.63091300  0.86908700  0.25000000  1
  K  K2  1  0.25000000  0.63091300  0.86908700  1
  K  K3  1  0.13091300  0.75000000  0.36908700  1
  K  K4  1  0.36908700  0.13091300  0.75000000  1
  K  K5  1  0.75000000  0.36908700  0.13091300  1
  Cr  Cr6  1  0.50000000  0.50000000  0.50000000  1
  Cr  Cr7  1  0.00000000  0.00000000  0.00000000  1
  H  H8  1  0.58209900  0.82984300  0.61990900  1
  H  H9  1  0.61990900  0.58209900  0.82984300  1
  H  H10  1  0.82984300  0.61990900  0.58209900  1
  H  H11  1  0.88009100  0.67015700  0.91790100  1
  H  H12  1  0.91790100  0.88009100  0.67015700  1
  H  H13  1  0.67015700  0.91790100  0.88009100  1
  H  H14  1  0.41790100  0.17015700  0.38009100  1
  H  H15  1  0.38009100  0.41790100  0.17015700  1
  H  H16  1  0.17015700  0.38009100  0.41790100  1
  H  H17  1  0.11990900  0.32984300  0.08209900  1
  H  H18  1  0.08209900  0.11990900  0.32984300  1
  H  H19  1  0.32984300  0.08209900  0.11990900  1
  O  O20  1  0.54162600  0.23662900  0.40296600  1
  O  O21  1  0.40296600  0.54162600  0.23662900  1
  O  O22  1  0.23662900  0.40296600  0.54162600  1
  O  O23  1  0.09703400  0.26337100  0.95837400  1
  O  O24  1  0.95837400  0.09703400  0.26337100  1
  O  O25  1  0.26337100  0.95837400  0.09703400  1
  O  O26  1  0.45837400  0.76337100  0.59703400  1
  O  O27  1  0.59703400  0.45837400  0.76337100  1
  O  O28  1  0.76337100  0.59703400  0.45837400  1
  O  O29  1  0.90296600  0.73662900  0.04162600  1
  O  O30  1  0.04162600  0.90296600  0.73662900  1
  O  O31  1  0.73662900  0.04162600  0.90296600  1
