# generated using pymatgen
data_S2N2O
_symmetry_space_group_name_H-M   'P 1'
_cell_length_a   8.35301700
_cell_length_b   9.26182100
_cell_length_c   10.83576007
_cell_angle_alpha   65.68778026
_cell_angle_beta   90.00000000
_cell_angle_gamma   90.00000000
_symmetry_Int_Tables_number   1
_chemical_formula_structural   S2N2O
_chemical_formula_sum   'S16 N16 O8'
_cell_volume   763.95518182
_cell_formula_units_Z   8
loop_
 _symmetry_equiv_pos_site_id
 _symmetry_equiv_pos_as_xyz
  1  'x, y, z'
loop_
 _atom_site_type_symbol
 _atom_site_label
 _atom_site_symmetry_multiplicity
 _atom_site_fract_x
 _atom_site_fract_y
 _atom_site_fract_z
 _atom_site_occupancy
  S  S0  1  0.55080200  0.82734400  0.24032000  1
  S  S1  1  0.05080200  0.67265600  0.75968000  1
  S  S2  1  0.44919800  0.17265600  0.75968000  1
  S  S3  1  0.94919800  0.32734400  0.24032000  1
  S  S4  1  0.72660000  0.60055300  0.46150800  1
  S  S5  1  0.22660000  0.89944700  0.53849200  1
  S  S6  1  0.27340000  0.39944700  0.53849200  1
  S  S7  1  0.77340000  0.10055300  0.46150800  1
  S  S8  1  0.99491200  0.78512500  0.27789300  1
  S  S9  1  0.49491200  0.71487500  0.72210700  1
  S  S10  1  0.00508800  0.21487500  0.72210700  1
  S  S11  1  0.50508800  0.28512500  0.27789300  1
  S  S12  1  0.77680500  0.81370200  0.04698300  1
  S  S13  1  0.27680500  0.68629800  0.95301700  1
  S  S14  1  0.22319500  0.18629800  0.95301700  1
  S  S15  1  0.72319500  0.31370200  0.04698300  1
  N  N16  1  0.57407700  0.65529900  0.36761800  1
  N  N17  1  0.07407700  0.84470100  0.63238200  1
  N  N18  1  0.42592300  0.34470100  0.63238200  1
  N  N19  1  0.92592300  0.15529900  0.36761800  1
  N  N20  1  0.89190300  0.68322600  0.40857000  1
  N  N21  1  0.39190300  0.81677400  0.59143000  1
  N  N22  1  0.10809700  0.31677400  0.59143000  1
  N  N23  1  0.60809700  0.18322600  0.40857000  1
  N  N24  1  0.92545800  0.82458200  0.13088500  1
  N  N25  1  0.42545800  0.67541800  0.86911500  1
  N  N26  1  0.07454200  0.17541800  0.86911500  1
  N  N27  1  0.57454200  0.32458200  0.13088500  1
  N  N28  1  0.60468700  0.78938700  0.11172200  1
  N  N29  1  0.10468700  0.71061300  0.88827800  1
  N  N30  1  0.39531300  0.21061300  0.88827800  1
  N  N31  1  0.89531300  0.28938700  0.11172200  1
  O  O32  1  0.38143200  0.85781600  0.22666700  1
  O  O33  1  0.88143200  0.64218400  0.77333300  1
  O  O34  1  0.61856800  0.14218400  0.77333300  1
  O  O35  1  0.11856800  0.35781600  0.22666700  1
  O  O36  1  0.65505200  0.94556800  0.25377600  1
  O  O37  1  0.15505200  0.55443200  0.74622400  1
  O  O38  1  0.34494800  0.05443200  0.74622400  1
  O  O39  1  0.84494800  0.44556800  0.25377600  1
