# generated using pymatgen
data_MoP2O7
_symmetry_space_group_name_H-M   'P 1'
_cell_length_a   8.39494500
_cell_length_b   8.39494500
_cell_length_c   8.39494500
_cell_angle_alpha   90.00000000
_cell_angle_beta   90.00000000
_cell_angle_gamma   90.00000000
_symmetry_Int_Tables_number   1
_chemical_formula_structural   MoP2O7
_chemical_formula_sum   'Mo4 P8 O28'
_cell_volume   591.63460141
_cell_formula_units_Z   4
loop_
 _symmetry_equiv_pos_site_id
 _symmetry_equiv_pos_as_xyz
  1  'x, y, z'
loop_
 _atom_site_type_symbol
 _atom_site_label
 _atom_site_symmetry_multiplicity
 _atom_site_fract_x
 _atom_site_fract_y
 _atom_site_fract_z
 _atom_site_occupancy
  Mo  Mo0  1  0.00000000  0.00000000  0.00000000  1
  Mo  Mo1  1  0.50000000  0.00000000  0.50000000  1
  Mo  Mo2  1  0.50000000  0.50000000  0.00000000  1
  Mo  Mo3  1  0.00000000  0.50000000  0.50000000  1
  P  P4  1  0.39078700  0.39078700  0.39078700  1
  P  P5  1  0.10921300  0.60921300  0.89078700  1
  P  P6  1  0.89078700  0.10921300  0.60921300  1
  P  P7  1  0.60921300  0.89078700  0.10921300  1
  P  P8  1  0.60921300  0.60921300  0.60921300  1
  P  P9  1  0.89078700  0.39078700  0.10921300  1
  P  P10  1  0.10921300  0.89078700  0.39078700  1
  P  P11  1  0.39078700  0.10921300  0.89078700  1
  O  O12  1  0.50000000  0.50000000  0.50000000  1
  O  O13  1  0.00000000  0.50000000  0.00000000  1
  O  O14  1  0.00000000  0.00000000  0.50000000  1
  O  O15  1  0.50000000  0.00000000  0.00000000  1
  O  O16  1  0.21960800  0.08646500  0.94395800  1
  O  O17  1  0.94395800  0.21960800  0.08646500  1
  O  O18  1  0.08646500  0.94395800  0.21960800  1
  O  O19  1  0.41353500  0.05604200  0.71960800  1
  O  O20  1  0.44395800  0.28039200  0.91353500  1
  O  O21  1  0.91353500  0.44395800  0.28039200  1
  O  O22  1  0.55604200  0.78039200  0.58646500  1
  O  O23  1  0.05604200  0.71960800  0.41353500  1
  O  O24  1  0.58646500  0.55604200  0.78039200  1
  O  O25  1  0.71960800  0.41353500  0.05604200  1
  O  O26  1  0.78039200  0.58646500  0.55604200  1
  O  O27  1  0.28039200  0.91353500  0.44395800  1
  O  O28  1  0.78039200  0.91353500  0.05604200  1
  O  O29  1  0.05604200  0.78039200  0.91353500  1
  O  O30  1  0.91353500  0.05604200  0.78039200  1
  O  O31  1  0.58646500  0.94395800  0.28039200  1
  O  O32  1  0.55604200  0.71960800  0.08646500  1
  O  O33  1  0.08646500  0.55604200  0.71960800  1
  O  O34  1  0.44395800  0.21960800  0.41353500  1
  O  O35  1  0.94395800  0.28039200  0.58646500  1
  O  O36  1  0.41353500  0.44395800  0.21960800  1
  O  O37  1  0.28039200  0.58646500  0.94395800  1
  O  O38  1  0.21960800  0.41353500  0.44395800  1
  O  O39  1  0.71960800  0.08646500  0.55604200  1
