# generated using pymatgen
data_VCuHPbO5
_symmetry_space_group_name_H-M   'P 1'
_cell_length_a   6.16372300
_cell_length_b   7.84533200
_cell_length_c   9.27841600
_cell_angle_alpha   90.00000000
_cell_angle_beta   90.00000000
_cell_angle_gamma   90.00000000
_symmetry_Int_Tables_number   1
_chemical_formula_structural   VCuHPbO5
_chemical_formula_sum   'V4 Cu4 H4 Pb4 O20'
_cell_volume   448.67128992
_cell_formula_units_Z   4
loop_
 _symmetry_equiv_pos_site_id
 _symmetry_equiv_pos_as_xyz
  1  'x, y, z'
loop_
 _atom_site_type_symbol
 _atom_site_label
 _atom_site_symmetry_multiplicity
 _atom_site_fract_x
 _atom_site_fract_y
 _atom_site_fract_z
 _atom_site_occupancy
  V  V0  1  0.25000000  0.11154300  0.19660600  1
  V  V1  1  0.75000000  0.88845700  0.80339400  1
  V  V2  1  0.25000000  0.61154300  0.30339400  1
  V  V3  1  0.75000000  0.38845700  0.69660600  1
  Cu  Cu4  1  0.00000000  0.50000000  0.00000000  1
  Cu  Cu5  1  0.50000000  0.50000000  0.00000000  1
  Cu  Cu6  1  0.50000000  0.00000000  0.50000000  1
  Cu  Cu7  1  0.00000000  0.00000000  0.50000000  1
  H  H8  1  0.75000000  0.25241900  0.00489600  1
  H  H9  1  0.25000000  0.74758100  0.99510400  1
  H  H10  1  0.75000000  0.75241900  0.49510400  1
  H  H11  1  0.25000000  0.24758100  0.50489600  1
  Pb  Pb12  1  0.75000000  0.86007000  0.16982600  1
  Pb  Pb13  1  0.25000000  0.13993000  0.83017400  1
  Pb  Pb14  1  0.75000000  0.36007000  0.33017400  1
  Pb  Pb15  1  0.25000000  0.63993000  0.66982600  1
  O  O16  1  0.49523900  0.10935400  0.30149600  1
  O  O17  1  0.99523900  0.89064600  0.69850400  1
  O  O18  1  0.00476100  0.60935400  0.19850400  1
  O  O19  1  0.50476100  0.39064600  0.80149600  1
  O  O20  1  0.50476100  0.89064600  0.69850400  1
  O  O21  1  0.00476100  0.10935400  0.30149600  1
  O  O22  1  0.99523900  0.39064600  0.80149600  1
  O  O23  1  0.49523900  0.60935400  0.19850400  1
  O  O24  1  0.25000000  0.94019800  0.08138100  1
  O  O25  1  0.75000000  0.05980200  0.91861900  1
  O  O26  1  0.25000000  0.44019800  0.41861900  1
  O  O27  1  0.75000000  0.55980200  0.58138100  1
  O  O28  1  0.25000000  0.28632000  0.08470300  1
  O  O29  1  0.75000000  0.71368000  0.91529700  1
  O  O30  1  0.25000000  0.78632000  0.41529700  1
  O  O31  1  0.75000000  0.21368000  0.58470300  1
  O  O32  1  0.75000000  0.36236400  0.06017400  1
  O  O33  1  0.25000000  0.63763600  0.93982600  1
  O  O34  1  0.75000000  0.86236400  0.43982600  1
  O  O35  1  0.25000000  0.13763600  0.56017400  1
