# generated using pymatgen
data_MnCu(Te2O5)2
_symmetry_space_group_name_H-M   'P 1'
_cell_length_a   8.96855300
_cell_length_b   8.96855300
_cell_length_c   12.88854700
_cell_angle_alpha   90.00000000
_cell_angle_beta   90.00000000
_cell_angle_gamma   90.00000000
_symmetry_Int_Tables_number   1
_chemical_formula_structural   MnCu(Te2O5)2
_chemical_formula_sum   'Mn4 Cu4 Te16 O40'
_cell_volume   1036.68954219
_cell_formula_units_Z   4
loop_
 _symmetry_equiv_pos_site_id
 _symmetry_equiv_pos_as_xyz
  1  'x, y, z'
loop_
 _atom_site_type_symbol
 _atom_site_label
 _atom_site_symmetry_multiplicity
 _atom_site_fract_x
 _atom_site_fract_y
 _atom_site_fract_z
 _atom_site_occupancy
  Mn  Mn0  1  0.50000000  0.00000000  0.75000000  1
  Mn  Mn1  1  0.50000000  0.00000000  0.25000000  1
  Mn  Mn2  1  0.00000000  0.50000000  0.75000000  1
  Mn  Mn3  1  0.00000000  0.50000000  0.25000000  1
  Cu  Cu4  1  0.50000000  0.00000000  0.00000000  1
  Cu  Cu5  1  0.50000000  0.00000000  0.50000000  1
  Cu  Cu6  1  0.00000000  0.50000000  0.50000000  1
  Cu  Cu7  1  0.00000000  0.50000000  0.00000000  1
  Te  Te8  1  0.28424100  0.67971500  0.36673900  1
  Te  Te9  1  0.82028500  0.78424100  0.86673900  1
  Te  Te10  1  0.71575900  0.67971500  0.13326100  1
  Te  Te11  1  0.71575900  0.32028500  0.36673900  1
  Te  Te12  1  0.17971500  0.21575900  0.86673900  1
  Te  Te13  1  0.82028500  0.21575900  0.63326100  1
  Te  Te14  1  0.17971500  0.78424100  0.63326100  1
  Te  Te15  1  0.28424100  0.32028500  0.13326100  1
  Te  Te16  1  0.21575900  0.17971500  0.36673900  1
  Te  Te17  1  0.32028500  0.71575900  0.86673900  1
  Te  Te18  1  0.67971500  0.28424100  0.86673900  1
  Te  Te19  1  0.21575900  0.82028500  0.13326100  1
  Te  Te20  1  0.78424100  0.17971500  0.13326100  1
  Te  Te21  1  0.78424100  0.82028500  0.36673900  1
  Te  Te22  1  0.67971500  0.71575900  0.63326100  1
  Te  Te23  1  0.32028500  0.28424100  0.63326100  1
  O  O24  1  0.29396400  0.79396400  0.50000000  1
  O  O25  1  0.70603600  0.79396400  0.00000000  1
  O  O26  1  0.29396400  0.20603600  0.00000000  1
  O  O27  1  0.70603600  0.20603600  0.50000000  1
  O  O28  1  0.20603600  0.70603600  0.00000000  1
  O  O29  1  0.79396400  0.70603600  0.50000000  1
  O  O30  1  0.20603600  0.29396400  0.50000000  1
  O  O31  1  0.79396400  0.29396400  0.00000000  1
  O  O32  1  0.12848400  0.26675900  0.70085700  1
  O  O33  1  0.87151600  0.73324100  0.70085700  1
  O  O34  1  0.76675900  0.62848400  0.29914300  1
  O  O35  1  0.76675900  0.37151600  0.20085700  1
  O  O36  1  0.23324100  0.62848400  0.20085700  1
  O  O37  1  0.87151600  0.26675900  0.79914300  1
  O  O38  1  0.12848400  0.73324100  0.79914300  1
  O  O39  1  0.86694400  0.42324400  0.61364000  1
  O  O40  1  0.37151600  0.23324100  0.79914300  1
  O  O41  1  0.62848400  0.76675900  0.79914300  1
  O  O42  1  0.73324100  0.87151600  0.20085700  1
  O  O43  1  0.73324100  0.12848400  0.29914300  1
  O  O44  1  0.26675900  0.87151600  0.29914300  1
  O  O45  1  0.62848400  0.23324100  0.70085700  1
  O  O46  1  0.37151600  0.76675900  0.70085700  1
  O  O47  1  0.26675900  0.12848400  0.20085700  1
  O  O48  1  0.42324400  0.86694400  0.11364000  1
  O  O49  1  0.63305600  0.92324400  0.61364000  1
  O  O50  1  0.36694400  0.07675600  0.61364000  1
  O  O51  1  0.42324400  0.13305600  0.38636000  1
  O  O52  1  0.57675600  0.86694400  0.38636000  1
  O  O53  1  0.57675600  0.13305600  0.11364000  1
  O  O54  1  0.36694400  0.92324400  0.88636000  1
  O  O55  1  0.63305600  0.07675600  0.88636000  1
  O  O56  1  0.07675600  0.63305600  0.38636000  1
  O  O57  1  0.86694400  0.57675600  0.88636000  1
  O  O58  1  0.13305600  0.42324400  0.88636000  1
  O  O59  1  0.07675600  0.36694400  0.11364000  1
  O  O60  1  0.92324400  0.63305600  0.11364000  1
  O  O61  1  0.92324400  0.36694400  0.38636000  1
  O  O62  1  0.13305600  0.57675600  0.61364000  1
  O  O63  1  0.23324100  0.37151600  0.29914300  1
