# generated using pymatgen
data_Th(NiP)2
_symmetry_space_group_name_H-M   'P 1'
_cell_length_a   4.10612000
_cell_length_b   4.10612000
_cell_length_c   9.01829400
_cell_angle_alpha   90.00000000
_cell_angle_beta   90.00000000
_cell_angle_gamma   90.00000000
_symmetry_Int_Tables_number   1
_chemical_formula_structural   Th(NiP)2
_chemical_formula_sum   'Th2 Ni4 P4'
_cell_volume   152.05043398
_cell_formula_units_Z   2
loop_
 _symmetry_equiv_pos_site_id
 _symmetry_equiv_pos_as_xyz
  1  'x, y, z'
loop_
 _atom_site_type_symbol
 _atom_site_label
 _atom_site_symmetry_multiplicity
 _atom_site_fract_x
 _atom_site_fract_y
 _atom_site_fract_z
 _atom_site_occupancy
  Th  Th0  1  0.00000000  0.50000000  0.75270200  1
  Th  Th1  1  0.50000000  0.00000000  0.24729800  1
  Ni  Ni2  1  0.00000000  0.50000000  0.38781900  1
  Ni  Ni3  1  0.50000000  0.00000000  0.61218100  1
  Ni  Ni4  1  0.50000000  0.50000000  0.00000000  1
  Ni  Ni5  1  0.00000000  0.00000000  0.00000000  1
  P  P6  1  0.50000000  0.00000000  0.87116000  1
  P  P7  1  0.00000000  0.50000000  0.12884000  1
  P  P8  1  0.00000000  0.00000000  0.50000000  1
  P  P9  1  0.50000000  0.50000000  0.50000000  1
