# generated using pymatgen
data_UV3O10
_symmetry_space_group_name_H-M   'P 1'
_cell_length_a   10.21722285
_cell_length_b   8.90542721
_cell_length_c   7.05106287
_cell_angle_alpha   78.68860441
_cell_angle_beta   58.72428389
_cell_angle_gamma   42.58711169
_symmetry_Int_Tables_number   1
_chemical_formula_structural   UV3O10
_chemical_formula_sum   'U2 V6 O20'
_cell_volume   351.33253661
_cell_formula_units_Z   2
loop_
 _symmetry_equiv_pos_site_id
 _symmetry_equiv_pos_as_xyz
  1  'x, y, z'
loop_
 _atom_site_type_symbol
 _atom_site_label
 _atom_site_symmetry_multiplicity
 _atom_site_fract_x
 _atom_site_fract_y
 _atom_site_fract_z
 _atom_site_occupancy
  U  U0  1  0.50000000  0.50000000  0.50000000  1
  U  U1  1  0.75000000  0.75000000  0.75000000  1
  V  V2  1  0.00000000  0.00000000  0.00000000  1
  V  V3  1  0.25000000  0.25000000  0.25000000  1
  V  V4  1  0.77617500  0.77617500  0.22382500  1
  V  V5  1  0.22382500  0.22382500  0.77617500  1
  V  V6  1  0.47382500  0.47382500  0.02617500  1
  V  V7  1  0.02617500  0.02617500  0.47382500  1
  O  O8  1  0.29892100  0.69442600  0.90840200  1
  O  O9  1  0.09825100  0.90840200  0.69442600  1
  O  O10  1  0.90840200  0.09825100  0.29892100  1
  O  O11  1  0.69442600  0.29892100  0.09825100  1
  O  O12  1  0.95107900  0.55557400  0.34159800  1
  O  O13  1  0.15174900  0.34159800  0.55557400  1
  O  O14  1  0.34159800  0.15174900  0.95107900  1
  O  O15  1  0.55557400  0.95107900  0.15174900  1
  O  O16  1  0.87940900  0.87940900  0.12059100  1
  O  O17  1  0.12059100  0.12059100  0.87940900  1
  O  O18  1  0.37059100  0.37059100  0.12940900  1
  O  O19  1  0.12940900  0.12940900  0.37059100  1
  O  O20  1  0.61037500  0.61037500  0.38962500  1
  O  O21  1  0.38962500  0.38962500  0.61037500  1
  O  O22  1  0.63962500  0.63962500  0.86037500  1
  O  O23  1  0.86037500  0.86037500  0.63962500  1
  O  O24  1  0.70887800  0.29112200  0.70887800  1
  O  O25  1  0.29112200  0.70887800  0.29112200  1
  O  O26  1  0.54112200  0.95887800  0.54112200  1
  O  O27  1  0.95887800  0.54112200  0.95887800  1
