# generated using pymatgen
data_ThPbI6
_symmetry_space_group_name_H-M   'P 1'
_cell_length_a   7.89686774
_cell_length_b   7.89686774
_cell_length_c   14.28401100
_cell_angle_alpha   90.00000000
_cell_angle_beta   90.00000000
_cell_angle_gamma   119.99999784
_symmetry_Int_Tables_number   1
_chemical_formula_structural   ThPbI6
_chemical_formula_sum   'Th2 Pb2 I12'
_cell_volume   771.41938131
_cell_formula_units_Z   2
loop_
 _symmetry_equiv_pos_site_id
 _symmetry_equiv_pos_as_xyz
  1  'x, y, z'
loop_
 _atom_site_type_symbol
 _atom_site_label
 _atom_site_symmetry_multiplicity
 _atom_site_fract_x
 _atom_site_fract_y
 _atom_site_fract_z
 _atom_site_occupancy
  Th  Th0  1  0.33333300  0.66666700  0.25000000  1
  Th  Th1  1  0.66666700  0.33333300  0.75000000  1
  Pb  Pb2  1  0.00000000  0.00000000  0.00000000  1
  Pb  Pb3  1  0.00000000  0.00000000  0.50000000  1
  I  I4  1  0.34022600  0.35069900  0.12586100  1
  I  I5  1  0.64930100  0.98952700  0.12586100  1
  I  I6  1  0.01047300  0.65977400  0.12586100  1
  I  I7  1  0.64930100  0.65977400  0.37413900  1
  I  I8  1  0.01047300  0.35069900  0.37413900  1
  I  I9  1  0.34022600  0.98952700  0.37413900  1
  I  I10  1  0.65977400  0.64930100  0.87413900  1
  I  I11  1  0.35069900  0.01047300  0.87413900  1
  I  I12  1  0.98952700  0.34022600  0.87413900  1
  I  I13  1  0.35069900  0.34022600  0.62586100  1
  I  I14  1  0.98952700  0.64930100  0.62586100  1
  I  I15  1  0.65977400  0.01047300  0.62586100  1
