# generated using pymatgen
data_VCdCuO4
_symmetry_space_group_name_H-M   'P 1'
_cell_length_a   5.51790952
_cell_length_b   5.51790952
_cell_length_c   6.56436700
_cell_angle_alpha   90.00000000
_cell_angle_beta   90.00000000
_cell_angle_gamma   113.02560819
_symmetry_Int_Tables_number   1
_chemical_formula_structural   VCdCuO4
_chemical_formula_sum   'V2 Cd2 Cu2 O8'
_cell_volume   183.94400648
_cell_formula_units_Z   2
loop_
 _symmetry_equiv_pos_site_id
 _symmetry_equiv_pos_as_xyz
  1  'x, y, z'
loop_
 _atom_site_type_symbol
 _atom_site_label
 _atom_site_symmetry_multiplicity
 _atom_site_fract_x
 _atom_site_fract_y
 _atom_site_fract_z
 _atom_site_occupancy
  V  V0  1  0.36588100  0.63411900  0.25000000  1
  V  V1  1  0.63411900  0.36588100  0.75000000  1
  Cd  Cd2  1  0.00000000  0.00000000  0.00000000  1
  Cd  Cd3  1  0.00000000  0.00000000  0.50000000  1
  Cu  Cu4  1  0.69394400  0.30605600  0.25000000  1
  Cu  Cu5  1  0.30605600  0.69394400  0.75000000  1
  O  O6  1  0.25866600  0.74133400  0.03078900  1
  O  O7  1  0.74133400  0.25866600  0.53078900  1
  O  O8  1  0.74133400  0.25866600  0.96921100  1
  O  O9  1  0.25866600  0.74133400  0.46921100  1
  O  O10  1  0.24772500  0.28351400  0.25000000  1
  O  O11  1  0.75227500  0.71648600  0.75000000  1
  O  O12  1  0.71648600  0.75227500  0.25000000  1
  O  O13  1  0.28351400  0.24772500  0.75000000  1
