# generated using pymatgen
data_Ag3BiO3
_symmetry_space_group_name_H-M   'P 1'
_cell_length_a   11.15525451
_cell_length_b   11.15525451
_cell_length_c   11.15525451
_cell_angle_alpha   99.17646559
_cell_angle_beta   99.17646559
_cell_angle_gamma   132.92563799
_symmetry_Int_Tables_number   1
_chemical_formula_structural   Ag3BiO3
_chemical_formula_sum   'Ag24 Bi8 O24'
_cell_volume   931.89285448
_cell_formula_units_Z   8
loop_
 _symmetry_equiv_pos_site_id
 _symmetry_equiv_pos_as_xyz
  1  'x, y, z'
loop_
 _atom_site_type_symbol
 _atom_site_label
 _atom_site_symmetry_multiplicity
 _atom_site_fract_x
 _atom_site_fract_y
 _atom_site_fract_z
 _atom_site_occupancy
  Ag  Ag0  1  0.07846300  0.71367500  0.06468400  1
  Ag  Ag1  1  0.30826500  0.34615400  0.85515200  1
  Ag  Ag2  1  0.03240300  0.17713200  0.02244200  1
  Ag  Ag3  1  0.68320900  0.52882700  0.44977000  1
  Ag  Ag4  1  0.86569200  0.63827800  0.77087000  1
  Ag  Ag5  1  0.64899100  0.01377900  0.93531600  1
  Ag  Ag6  1  0.25996100  0.78240300  0.35527100  1
  Ag  Ag7  1  0.82122300  0.70770900  0.06541500  1
  Ag  Ag8  1  0.42713200  0.90469000  0.64472900  1
  Ag  Ag9  1  0.77882700  0.82905700  0.34561800  1
  Ag  Ag10  1  0.34482200  0.61569200  0.72741400  1
  Ag  Ag11  1  0.95770900  0.39229400  0.38648500  1
  Ag  Ag12  1  0.15469000  0.00996100  0.97755800  1
  Ag  Ag13  1  0.64229400  0.75580800  0.93458500  1
  Ag  Ag14  1  0.88827800  0.61740800  0.27258600  1
  Ag  Ag15  1  0.59615400  0.24100200  0.53788900  1
  Ag  Ag16  1  0.26377900  0.82846300  0.86478800  1
  Ag  Ag17  1  0.49100200  0.45311300  0.14484800  1
  Ag  Ag18  1  0.86740800  0.09482200  0.22913000  1
  Ag  Ag19  1  0.70311300  0.05826500  0.46211100  1
  Ag  Ag20  1  0.07905700  0.23343800  0.55023000  1
  Ag  Ag21  1  0.96367500  0.39899100  0.13521200  1
  Ag  Ag22  1  0.48343800  0.43320900  0.65438200  1
  Ag  Ag23  1  0.00580800  0.57122300  0.61351500  1
  Bi  Bi24  1  0.59458700  0.27622800  0.87905700  1
  Bi  Bi25  1  0.14671000  0.97331000  0.62887400  1
  Bi  Bi26  1  0.52622800  0.14717100  0.18164100  1
  Bi  Bi27  1  0.76783600  0.89671000  0.67340100  1
  Bi  Bi28  1  0.22331000  0.09443600  0.32659900  1
  Bi  Bi29  1  0.34443600  0.51783600  0.37112600  1
  Bi  Bi30  1  0.96553000  0.34458700  0.81835900  1
  Bi  Bi31  1  0.39717100  0.71553000  0.12094300  1
  O  O32  1  0.27612800  0.93540400  0.24886000  1
  O  O33  1  0.87030600  0.75681100  0.63045900  1
  O  O34  1  0.87176300  0.49648800  0.88120100  1
  O  O35  1  0.48213700  0.31113800  0.26443500  1
  O  O36  1  0.00681100  0.87635300  0.38650600  1
  O  O37  1  0.69044700  0.24517700  0.37309600  1
  O  O38  1  0.46770300  0.23213700  0.67100000  1
  O  O39  1  0.18540400  0.43654400  0.15927600  1
  O  O40  1  0.12635300  0.23984700  0.36954100  1
  O  O41  1  0.61528700  0.99056200  0.11879900  1
  O  O42  1  0.27726800  0.02612800  0.84072400  1
  O  O43  1  0.16923900  0.80313200  0.56500500  1
  O  O44  1  0.85423400  0.91923900  0.86610700  1
  O  O45  1  0.48984700  0.62030600  0.61349400  1
  O  O46  1  0.56735100  0.44044700  0.94527000  1
  O  O47  1  0.04670300  0.21770300  0.73556500  1
  O  O48  1  0.49517700  0.62208100  0.05473000  1
  O  O49  1  0.56113800  0.79670300  0.32900000  1
  O  O50  1  0.05313200  0.98812700  0.13389300  1
  O  O51  1  0.68654400  0.02726800  0.75114000  1
  O  O52  1  0.23812700  0.60423400  0.43499500  1
  O  O53  1  0.87208100  0.31735100  0.62690400  1
  O  O54  1  0.24056200  0.62176300  0.87527500  1
  O  O55  1  0.74648800  0.36528700  0.12472500  1
