# generated using pymatgen
data_CuP(HO)5
_symmetry_space_group_name_H-M   'P 1'
_cell_length_a   6.71423800
_cell_length_b   7.42437100
_cell_length_c   9.07861800
_cell_angle_alpha   90.00000000
_cell_angle_beta   90.00000000
_cell_angle_gamma   90.00000000
_symmetry_Int_Tables_number   1
_chemical_formula_structural   CuP(HO)5
_chemical_formula_sum   'Cu4 P4 H20 O20'
_cell_volume   452.55997325
_cell_formula_units_Z   4
loop_
 _symmetry_equiv_pos_site_id
 _symmetry_equiv_pos_as_xyz
  1  'x, y, z'
loop_
 _atom_site_type_symbol
 _atom_site_label
 _atom_site_symmetry_multiplicity
 _atom_site_fract_x
 _atom_site_fract_y
 _atom_site_fract_z
 _atom_site_occupancy
  Cu  Cu0  1  0.26568400  0.02907200  0.09539400  1
  Cu  Cu1  1  0.76568400  0.47092800  0.90460600  1
  Cu  Cu2  1  0.73431600  0.52907200  0.40460600  1
  Cu  Cu3  1  0.23431600  0.97092800  0.59539400  1
  P  P4  1  0.01337300  0.67828400  0.14883500  1
  P  P5  1  0.51337300  0.82171600  0.85116500  1
  P  P6  1  0.98662700  0.17828400  0.35116500  1
  P  P7  1  0.48662700  0.32171600  0.64883500  1
  H  H8  1  0.17971800  0.36653600  0.03703800  1
  H  H9  1  0.67971800  0.13346400  0.96296200  1
  H  H10  1  0.82028200  0.86653600  0.46296200  1
  H  H11  1  0.32028200  0.63346400  0.53703800  1
  H  H12  1  0.37367500  0.31179700  0.94169800  1
  H  H13  1  0.87367500  0.18820300  0.05830200  1
  H  H14  1  0.62632500  0.81179700  0.55830200  1
  H  H15  1  0.12632500  0.68820300  0.44169800  1
  H  H16  1  0.51971500  0.93760300  0.34027400  1
  H  H17  1  0.01971500  0.56239700  0.65972600  1
  H  H18  1  0.48028500  0.43760300  0.15972600  1
  H  H19  1  0.98028500  0.06239700  0.84027400  1
  H  H20  1  0.56302600  0.14110100  0.32457000  1
  H  H21  1  0.06302600  0.35889900  0.67543000  1
  H  H22  1  0.43697400  0.64110100  0.17543000  1
  H  H23  1  0.93697400  0.85889900  0.82457000  1
  H  H24  1  0.86327400  0.80312400  0.11658500  1
  H  H25  1  0.36327400  0.69687600  0.88341500  1
  H  H26  1  0.13672600  0.30312400  0.38341500  1
  H  H27  1  0.63672600  0.19687600  0.61658500  1
  O  O28  1  0.98472600  0.60986700  0.30928800  1
  O  O29  1  0.48472600  0.89013300  0.69071200  1
  O  O30  1  0.01527400  0.10986700  0.19071200  1
  O  O31  1  0.51527400  0.39013300  0.80928800  1
  O  O32  1  0.21873700  0.77249900  0.14019400  1
  O  O33  1  0.71873700  0.72750100  0.85980600  1
  O  O34  1  0.78126300  0.27249900  0.35980600  1
  O  O35  1  0.28126300  0.22750100  0.64019400  1
  O  O36  1  0.99859200  0.52407000  0.03441100  1
  O  O37  1  0.49859200  0.97593000  0.96558900  1
  O  O38  1  0.00140800  0.02407000  0.46558900  1
  O  O39  1  0.50140800  0.47593000  0.53441100  1
  O  O40  1  0.30194000  0.28792500  0.03743400  1
  O  O41  1  0.80194000  0.21207500  0.96256600  1
  O  O42  1  0.69806000  0.78792500  0.46256600  1
  O  O43  1  0.19806000  0.71207500  0.53743400  1
  O  O44  1  0.45459900  0.05136300  0.31299700  1
  O  O45  1  0.95459900  0.44863700  0.68700300  1
  O  O46  1  0.54540100  0.55136300  0.18700300  1
  O  O47  1  0.04540100  0.94863700  0.81299700  1
