# generated using pymatgen
data_Lu2CoB6
_symmetry_space_group_name_H-M   'P 1'
_cell_length_a   3.48902300
_cell_length_b   8.98372700
_cell_length_c   11.32477100
_cell_angle_alpha   90.00000000
_cell_angle_beta   90.00000000
_cell_angle_gamma   90.00000000
_symmetry_Int_Tables_number   1
_chemical_formula_structural   Lu2CoB6
_chemical_formula_sum   'Lu8 Co4 B24'
_cell_volume   354.96849333
_cell_formula_units_Z   4
loop_
 _symmetry_equiv_pos_site_id
 _symmetry_equiv_pos_as_xyz
  1  'x, y, z'
loop_
 _atom_site_type_symbol
 _atom_site_label
 _atom_site_symmetry_multiplicity
 _atom_site_fract_x
 _atom_site_fract_y
 _atom_site_fract_z
 _atom_site_occupancy
  Lu  Lu0  1  0.00000000  0.82379300  0.08531000  1
  Lu  Lu1  1  0.00000000  0.17620700  0.91469000  1
  Lu  Lu2  1  0.00000000  0.32379300  0.41469000  1
  Lu  Lu3  1  0.00000000  0.67620700  0.58531000  1
  Lu  Lu4  1  0.00000000  0.44359800  0.12910800  1
  Lu  Lu5  1  0.00000000  0.55640200  0.87089200  1
  Lu  Lu6  1  0.00000000  0.94359800  0.37089200  1
  Lu  Lu7  1  0.00000000  0.05640200  0.62910800  1
  Co  Co8  1  0.00000000  0.13991800  0.17944400  1
  Co  Co9  1  0.00000000  0.86008200  0.82055600  1
  Co  Co10  1  0.00000000  0.63991800  0.32055600  1
  Co  Co11  1  0.00000000  0.36008200  0.67944400  1
  B  B12  1  0.50000000  0.05367400  0.06635800  1
  B  B13  1  0.50000000  0.94632600  0.93364200  1
  B  B14  1  0.50000000  0.55367400  0.43364200  1
  B  B15  1  0.50000000  0.44632600  0.56635800  1
  B  B16  1  0.50000000  0.24766800  0.08130700  1
  B  B17  1  0.50000000  0.75233200  0.91869300  1
  B  B18  1  0.50000000  0.74766800  0.41869300  1
  B  B19  1  0.50000000  0.25233200  0.58130700  1
  B  B20  1  0.50000000  0.29313500  0.23600200  1
  B  B21  1  0.50000000  0.70686500  0.76399800  1
  B  B22  1  0.50000000  0.79313500  0.26399800  1
  B  B23  1  0.50000000  0.20686500  0.73600200  1
  B  B24  1  0.50000000  0.13394400  0.31591300  1
  B  B25  1  0.50000000  0.86605600  0.68408700  1
  B  B26  1  0.50000000  0.63394400  0.18408700  1
  B  B27  1  0.50000000  0.36605600  0.81591300  1
  B  B28  1  0.50000000  0.48538600  0.28850000  1
  B  B29  1  0.50000000  0.51461400  0.71150000  1
  B  B30  1  0.50000000  0.98538600  0.21150000  1
  B  B31  1  0.50000000  0.01461400  0.78850000  1
  B  B32  1  0.50000000  0.10701100  0.47103500  1
  B  B33  1  0.50000000  0.89298900  0.52896500  1
  B  B34  1  0.50000000  0.60701100  0.02896500  1
  B  B35  1  0.50000000  0.39298900  0.97103500  1
