# generated using pymatgen
data_Ce11O20
_symmetry_space_group_name_H-M   'P 1'
_cell_length_a   6.76432000
_cell_length_b   6.77660864
_cell_length_c   10.28205022
_cell_angle_alpha   96.12245384
_cell_angle_beta   90.17614967
_cell_angle_gamma   99.72038447
_symmetry_Int_Tables_number   1
_chemical_formula_structural   Ce11O20
_chemical_formula_sum   'Ce11 O20'
_cell_volume   461.79730929
_cell_formula_units_Z   1
loop_
 _symmetry_equiv_pos_site_id
 _symmetry_equiv_pos_as_xyz
  1  'x, y, z'
loop_
 _atom_site_type_symbol
 _atom_site_label
 _atom_site_symmetry_multiplicity
 _atom_site_fract_x
 _atom_site_fract_y
 _atom_site_fract_z
 _atom_site_occupancy
  Ce  Ce0  1  0.00000000  0.00000000  0.00000000  1
  Ce  Ce1  1  0.17829800  0.10014400  0.36406300  1
  Ce  Ce2  1  0.82170200  0.89985600  0.63593700  1
  Ce  Ce3  1  0.11791100  0.55388200  0.17210600  1
  Ce  Ce4  1  0.88208900  0.44611800  0.82789400  1
  Ce  Ce5  1  0.27191000  0.63979600  0.52556400  1
  Ce  Ce6  1  0.72809000  0.36020400  0.47443600  1
  Ce  Ce7  1  0.35866800  0.14510200  0.72428800  1
  Ce  Ce8  1  0.64133200  0.85489800  0.27571200  1
  Ce  Ce9  1  0.47200700  0.73590700  0.91811000  1
  Ce  Ce10  1  0.52799300  0.26409300  0.08189000  1
  O  O11  1  0.13801200  0.65369600  0.95992400  1
  O  O12  1  0.86198800  0.34630400  0.04007600  1
  O  O13  1  0.03423500  0.16032600  0.79988300  1
  O  O14  1  0.96576500  0.83967400  0.20011700  1
  O  O15  1  0.04472400  0.43257800  0.37027200  1
  O  O16  1  0.95527600  0.56742200  0.62972800  1
  O  O17  1  0.15240200  0.94242500  0.56463900  1
  O  O18  1  0.84759800  0.05757500  0.43536100  1
  O  O19  1  0.33986600  0.03404200  0.93077500  1
  O  O20  1  0.66013400  0.96595800  0.06922500  1
  O  O21  1  0.19795800  0.22299600  0.15405100  1
  O  O22  1  0.80204200  0.77700400  0.84594900  1
  O  O23  1  0.30989600  0.79935300  0.33567600  1
  O  O24  1  0.69010400  0.20064700  0.66432400  1
  O  O25  1  0.36234900  0.32996500  0.54084500  1
  O  O26  1  0.63765100  0.67003500  0.45915500  1
  O  O27  1  0.45959700  0.81820200  0.70183500  1
  O  O28  1  0.54040300  0.18179800  0.29816500  1
  O  O29  1  0.46606100  0.59002200  0.12689300  1
  O  O30  1  0.53393900  0.40997800  0.87310700  1
