# generated using pymatgen
data_Tb3CrSe6
_symmetry_space_group_name_H-M   'P 1'
_cell_length_a   3.95626100
_cell_length_b   13.99726800
_cell_length_c   16.79928900
_cell_angle_alpha   90.00000000
_cell_angle_beta   90.00000000
_cell_angle_gamma   90.00000000
_symmetry_Int_Tables_number   1
_chemical_formula_structural   Tb3CrSe6
_chemical_formula_sum   'Tb12 Cr4 Se24'
_cell_volume   930.29163138
_cell_formula_units_Z   4
loop_
 _symmetry_equiv_pos_site_id
 _symmetry_equiv_pos_as_xyz
  1  'x, y, z'
loop_
 _atom_site_type_symbol
 _atom_site_label
 _atom_site_symmetry_multiplicity
 _atom_site_fract_x
 _atom_site_fract_y
 _atom_site_fract_z
 _atom_site_occupancy
  Tb  Tb0  1  0.00000000  0.31996400  0.14820900  1
  Tb  Tb1  1  0.00000000  0.68003600  0.85179100  1
  Tb  Tb2  1  0.50000000  0.81996400  0.35179100  1
  Tb  Tb3  1  0.50000000  0.18003600  0.64820900  1
  Tb  Tb4  1  0.00000000  0.55161800  0.27824900  1
  Tb  Tb5  1  0.00000000  0.44838200  0.72175100  1
  Tb  Tb6  1  0.50000000  0.05161800  0.22175100  1
  Tb  Tb7  1  0.50000000  0.94838200  0.77824900  1
  Tb  Tb8  1  0.00000000  0.75773800  0.09639700  1
  Tb  Tb9  1  0.00000000  0.24226200  0.90360300  1
  Tb  Tb10  1  0.50000000  0.25773800  0.40360300  1
  Tb  Tb11  1  0.50000000  0.74226200  0.59639700  1
  Cr  Cr12  1  0.00000000  0.00000000  0.50000000  1
  Cr  Cr13  1  0.50000000  0.50000000  0.00000000  1
  Cr  Cr14  1  0.00000000  0.00000000  0.00000000  1
  Cr  Cr15  1  0.50000000  0.50000000  0.50000000  1
  Se  Se16  1  0.00000000  0.10323900  0.75549200  1
  Se  Se17  1  0.00000000  0.89676100  0.24450800  1
  Se  Se18  1  0.50000000  0.60323900  0.74450800  1
  Se  Se19  1  0.50000000  0.39676100  0.25549200  1
  Se  Se20  1  0.00000000  0.12134900  0.10800800  1
  Se  Se21  1  0.00000000  0.87865100  0.89199200  1
  Se  Se22  1  0.50000000  0.62134900  0.39199200  1
  Se  Se23  1  0.50000000  0.37865100  0.60800800  1
  Se  Se24  1  0.00000000  0.18969200  0.28993100  1
  Se  Se25  1  0.00000000  0.81030800  0.71006900  1
  Se  Se26  1  0.50000000  0.68969200  0.21006900  1
  Se  Se27  1  0.50000000  0.31030800  0.78993100  1
  Se  Se28  1  0.00000000  0.18068300  0.52047400  1
  Se  Se29  1  0.00000000  0.81931700  0.47952600  1
  Se  Se30  1  0.50000000  0.68068300  0.97952600  1
  Se  Se31  1  0.50000000  0.31931700  0.02047400  1
  Se  Se32  1  0.00000000  0.41928200  0.42321500  1
  Se  Se33  1  0.00000000  0.58071800  0.57678500  1
  Se  Se34  1  0.50000000  0.91928200  0.07678500  1
  Se  Se35  1  0.50000000  0.08071800  0.92321500  1
  Se  Se36  1  0.00000000  0.52322100  0.09775300  1
  Se  Se37  1  0.00000000  0.47677900  0.90224700  1
  Se  Se38  1  0.50000000  0.02322100  0.40224700  1
  Se  Se39  1  0.50000000  0.97677900  0.59775300  1
