# generated using pymatgen
data_SbN9
_symmetry_space_group_name_H-M   'P 1'
_cell_length_a   8.10634352
_cell_length_b   8.10634352
_cell_length_c   8.10634304
_cell_angle_alpha   53.63097222
_cell_angle_beta   53.63097222
_cell_angle_gamma   53.63097600
_symmetry_Int_Tables_number   1
_chemical_formula_structural   SbN9
_chemical_formula_sum   'Sb2 N18'
_cell_volume   320.55949304
_cell_formula_units_Z   2
loop_
 _symmetry_equiv_pos_site_id
 _symmetry_equiv_pos_as_xyz
  1  'x, y, z'
loop_
 _atom_site_type_symbol
 _atom_site_label
 _atom_site_symmetry_multiplicity
 _atom_site_fract_x
 _atom_site_fract_y
 _atom_site_fract_z
 _atom_site_occupancy
  Sb  Sb0  1  0.68697900  0.68697900  0.68697900  1
  Sb  Sb1  1  0.31302100  0.31302100  0.31302100  1
  N  N2  1  0.38205700  0.63061600  0.86661100  1
  N  N3  1  0.63061600  0.86661100  0.38205700  1
  N  N4  1  0.86661100  0.38205700  0.63061600  1
  N  N5  1  0.61794300  0.36938400  0.13338900  1
  N  N6  1  0.36938400  0.13338900  0.61794300  1
  N  N7  1  0.13338900  0.61794300  0.36938400  1
  N  N8  1  0.26518700  0.73036400  0.76160200  1
  N  N9  1  0.73036400  0.76160200  0.26518700  1
  N  N10  1  0.76160200  0.26518700  0.73036400  1
  N  N11  1  0.73481300  0.26963600  0.23839800  1
  N  N12  1  0.26963600  0.23839800  0.73481300  1
  N  N13  1  0.23839800  0.73481300  0.26963600  1
  N  N14  1  0.15239200  0.82258100  0.66702400  1
  N  N15  1  0.82258100  0.66702400  0.15239200  1
  N  N16  1  0.66702400  0.15239200  0.82258100  1
  N  N17  1  0.84760800  0.17741900  0.33297600  1
  N  N18  1  0.17741900  0.33297600  0.84760800  1
  N  N19  1  0.33297600  0.84760800  0.17741900  1
