# generated using pymatgen
data_MnVSbO6
_symmetry_space_group_name_H-M   'P 1'
_cell_length_a   4.73605700
_cell_length_b   5.03375000
_cell_length_c   17.45611000
_cell_angle_alpha   90.00000000
_cell_angle_beta   90.00000000
_cell_angle_gamma   90.00000000
_symmetry_Int_Tables_number   1
_chemical_formula_structural   MnVSbO6
_chemical_formula_sum   'Mn4 V4 Sb4 O24'
_cell_volume   416.15587799
_cell_formula_units_Z   4
loop_
 _symmetry_equiv_pos_site_id
 _symmetry_equiv_pos_as_xyz
  1  'x, y, z'
loop_
 _atom_site_type_symbol
 _atom_site_label
 _atom_site_symmetry_multiplicity
 _atom_site_fract_x
 _atom_site_fract_y
 _atom_site_fract_z
 _atom_site_occupancy
  Mn  Mn0  1  0.50000000  0.25000000  0.05835200  1
  Mn  Mn1  1  0.50000000  0.75000000  0.94164800  1
  Mn  Mn2  1  0.00000000  0.75000000  0.44164800  1
  Mn  Mn3  1  0.00000000  0.25000000  0.55835200  1
  V  V4  1  0.00000000  0.25000000  0.89740000  1
  V  V5  1  0.50000000  0.75000000  0.60260000  1
  V  V6  1  0.00000000  0.75000000  0.10260000  1
  V  V7  1  0.50000000  0.25000000  0.39740000  1
  Sb  Sb8  1  0.00000000  0.75000000  0.78104900  1
  Sb  Sb9  1  0.00000000  0.25000000  0.21895100  1
  Sb  Sb10  1  0.50000000  0.25000000  0.71895100  1
  Sb  Sb11  1  0.50000000  0.75000000  0.28104900  1
  O  O12  1  0.24425000  0.42437900  0.79526600  1
  O  O13  1  0.74425000  0.07562100  0.29526600  1
  O  O14  1  0.79626800  0.55766000  0.86639400  1
  O  O15  1  0.70373200  0.05766000  0.63360600  1
  O  O16  1  0.75575000  0.57562100  0.20473400  1
  O  O17  1  0.20373200  0.94234000  0.86639400  1
  O  O18  1  0.70373200  0.55766000  0.36639400  1
  O  O19  1  0.29626800  0.94234000  0.36639400  1
  O  O20  1  0.74926700  0.61219700  0.04321300  1
  O  O21  1  0.75073300  0.11219700  0.45678700  1
  O  O22  1  0.25073300  0.38780300  0.95678700  1
  O  O23  1  0.25073300  0.88780300  0.04321300  1
  O  O24  1  0.75073300  0.61219700  0.54321300  1
  O  O25  1  0.20373200  0.44234000  0.13360600  1
  O  O26  1  0.29626800  0.44234000  0.63360600  1
  O  O27  1  0.74926700  0.11219700  0.95678700  1
  O  O28  1  0.25575000  0.92437900  0.70473400  1
  O  O29  1  0.24425000  0.92437900  0.20473400  1
  O  O30  1  0.24926700  0.88780300  0.54321300  1
  O  O31  1  0.79626800  0.05766000  0.13360600  1
  O  O32  1  0.24926700  0.38780300  0.45678700  1
  O  O33  1  0.75575000  0.07562100  0.79526600  1
  O  O34  1  0.74425000  0.57562100  0.70473400  1
  O  O35  1  0.25575000  0.42437900  0.29526600  1
