# generated using pymatgen
data_Na9Co2O7
_symmetry_space_group_name_H-M   'P 1'
_cell_length_a   9.60216000
_cell_length_b   9.93510000
_cell_length_c   10.29522000
_cell_angle_alpha   90.00000000
_cell_angle_beta   90.00000000
_cell_angle_gamma   90.00000000
_symmetry_Int_Tables_number   1
_chemical_formula_structural   Na9Co2O7
_chemical_formula_sum   'Na36 Co8 O28'
_cell_volume   982.14771966
_cell_formula_units_Z   4
loop_
 _symmetry_equiv_pos_site_id
 _symmetry_equiv_pos_as_xyz
  1  'x, y, z'
loop_
 _atom_site_type_symbol
 _atom_site_label
 _atom_site_symmetry_multiplicity
 _atom_site_fract_x
 _atom_site_fract_y
 _atom_site_fract_z
 _atom_site_occupancy
  Na  Na0  1  0.09020700  0.51323700  0.59340700  1
  Na  Na1  1  0.90979300  0.48676300  0.09340700  1
  Na  Na2  1  0.40979300  0.51323700  0.09340700  1
  Na  Na3  1  0.59020700  0.48676300  0.59340700  1
  Na  Na4  1  0.27371000  0.28518600  0.72846400  1
  Na  Na5  1  0.72629000  0.71481400  0.22846400  1
  Na  Na6  1  0.22629000  0.28518600  0.22846400  1
  Na  Na7  1  0.77371000  0.71481400  0.72846400  1
  Na  Na8  1  0.06676800  0.66782700  0.86253600  1
  Na  Na9  1  0.93323200  0.33217300  0.36253600  1
  Na  Na10  1  0.43323200  0.66782700  0.36253600  1
  Na  Na11  1  0.56676800  0.33217300  0.86253600  1
  Na  Na12  1  0.01964200  0.15949800  0.88395300  1
  Na  Na13  1  0.98035800  0.84050200  0.38395300  1
  Na  Na14  1  0.48035800  0.15949800  0.38395300  1
  Na  Na15  1  0.51964200  0.84050200  0.88395300  1
  Na  Na16  1  0.15286900  0.55864500  0.29422200  1
  Na  Na17  1  0.84713100  0.44135500  0.79422200  1
  Na  Na18  1  0.34713100  0.55864500  0.79422200  1
  Na  Na19  1  0.65286900  0.44135500  0.29422200  1
  Na  Na20  1  0.21366400  0.77517400  0.55723200  1
  Na  Na21  1  0.78633600  0.22482600  0.05723200  1
  Na  Na22  1  0.28633600  0.77517400  0.05723200  1
  Na  Na23  1  0.71366400  0.22482600  0.55723200  1
  Na  Na24  1  0.98577000  0.25502100  0.62985700  1
  Na  Na25  1  0.01423000  0.74497900  0.12985700  1
  Na  Na26  1  0.51423000  0.25502100  0.12985700  1
  Na  Na27  1  0.48577000  0.74497900  0.62985700  1
  Na  Na28  1  0.16068300  0.10494200  0.48364600  1
  Na  Na29  1  0.83931700  0.89505800  0.98364600  1
  Na  Na30  1  0.33931700  0.10494200  0.98364600  1
  Na  Na31  1  0.66068300  0.89505800  0.48364600  1
  Na  Na32  1  0.07225600  0.04757500  0.15158500  1
  Na  Na33  1  0.92774400  0.95242500  0.65158500  1
  Na  Na34  1  0.42774400  0.04757500  0.65158500  1
  Na  Na35  1  0.57225600  0.95242500  0.15158500  1
  Co  Co36  1  0.15787800  0.39947400  0.97288700  1
  Co  Co37  1  0.84212200  0.60052600  0.47288700  1
  Co  Co38  1  0.34212200  0.39947400  0.47288700  1
  Co  Co39  1  0.65787800  0.60052600  0.97288700  1
  Co  Co40  1  0.19134100  0.93191500  0.80864600  1
  Co  Co41  1  0.80865900  0.06808500  0.30864600  1
  Co  Co42  1  0.30865900  0.93191500  0.30864600  1
  Co  Co43  1  0.69134100  0.06808500  0.80864600  1
  O  O44  1  0.04127300  0.28244000  0.07718200  1
  O  O45  1  0.95872700  0.71756000  0.57718200  1
  O  O46  1  0.45872700  0.28244000  0.57718200  1
  O  O47  1  0.54127300  0.71756000  0.07718200  1
  O  O48  1  0.34099300  0.33463000  0.94809400  1
  O  O49  1  0.65900700  0.66537000  0.44809400  1
  O  O50  1  0.15900700  0.33463000  0.44809400  1
  O  O51  1  0.84099300  0.66537000  0.94809400  1
  O  O52  1  0.30431100  0.78714300  0.79209400  1
  O  O53  1  0.69568900  0.21285700  0.29209400  1
  O  O54  1  0.19568900  0.78714300  0.29209400  1
  O  O55  1  0.80431100  0.21285700  0.79209400  1
  O  O56  1  0.08459500  0.92463200  0.96590000  1
  O  O57  1  0.91540500  0.07536800  0.46590000  1
  O  O58  1  0.41540500  0.92463200  0.46590000  1
  O  O59  1  0.58459500  0.07536800  0.96590000  1
  O  O60  1  0.15692600  0.08089000  0.70839500  1
  O  O61  1  0.84307400  0.91911000  0.20839500  1
  O  O62  1  0.34307400  0.08089000  0.20839500  1
  O  O63  1  0.65692600  0.91911000  0.70839500  1
  O  O64  1  0.16528700  0.56683000  0.05868800  1
  O  O65  1  0.83471300  0.43317000  0.55868800  1
  O  O66  1  0.33471300  0.56683000  0.55868800  1
  O  O67  1  0.66528700  0.43317000  0.05868800  1
  O  O68  1  0.09271600  0.42318800  0.80062200  1
  O  O69  1  0.90728400  0.57681200  0.30062200  1
  O  O70  1  0.40728400  0.42318800  0.30062200  1
  O  O71  1  0.59271600  0.57681200  0.80062200  1
