data_image0
_chemical_formula_structural       Ba3O15Ti6
_chemical_formula_sum              "Ba3 O15 Ti6"
_cell_length_a       9.27159
_cell_length_b       8.6475
_cell_length_c       8.6475
_cell_angle_alpha    26.1061
_cell_angle_beta     102.905
_cell_angle_gamma    102.905

_space_group_name_H-M_alt    "P 1"
_space_group_IT_number       1

loop_
  _space_group_symop_operation_xyz
  'x, y, z'

loop_
  _atom_site_type_symbol
  _atom_site_label
  _atom_site_symmetry_multiplicity
  _atom_site_fract_x
  _atom_site_fract_y
  _atom_site_fract_z
  _atom_site_occupancy
  Ba  Ba1       1.0  0.00000  0.00000  0.00000  1.0000
  Ba  Ba2       1.0  0.47600  0.12900  0.12900  1.0000
  Ba  Ba3       1.0  0.52400  0.87100  0.87100  1.0000
  O   O1        1.0  0.38100  0.71300  0.71300  1.0000
  O   O2        1.0  0.61900  0.28700  0.28700  1.0000
  O   O3        1.0  0.06930  0.39100  0.39100  1.0000
  O   O4        1.0  0.93100  0.60900  0.60900  1.0000
  O   O5        1.0  0.21300  0.55700  0.55700  1.0000
  O   O6        1.0  0.78700  0.44300  0.44300  1.0000
  O   O7        1.0  0.50000  0.50000  0.50000  1.0000
  O   O8        1.0  0.32100  0.34600  0.34600  1.0000
  O   O9        1.0  0.67900  0.65400  0.65400  1.0000
  O   O10       1.0  0.28700  0.96200  0.96200  1.0000
  O   O11       1.0  0.71300  0.03770  0.03770  1.0000
  O   O12       1.0  0.10200  0.76700  0.76700  1.0000
  O   O13       1.0  0.89800  0.23300  0.23300  1.0000
  O   O14       1.0  0.16000  0.17300  0.17300  1.0000
  O   O15       1.0  0.84000  0.82700  0.82700  1.0000
  Ti  Ti1       1.0  0.19200  0.66600  0.66600  1.0000
  Ti  Ti2       1.0  0.80800  0.33400  0.33400  1.0000
  Ti  Ti3       1.0  0.12800  0.29200  0.29200  1.0000
  Ti  Ti4       1.0  0.87200  0.70800  0.70800  1.0000
  Ti  Ti5       1.0  0.28800  0.45900  0.45900  1.0000
  Ti  Ti6       1.0  0.71200  0.54100  0.54100  1.0000
