# generated using pymatgen
data_Fe7(PO4)6
_symmetry_space_group_name_H-M   'P 1'
_cell_length_a   6.44715900
_cell_length_b   8.06710257
_cell_length_c   9.43540202
_cell_angle_alpha   104.97769514
_cell_angle_beta   108.42212124
_cell_angle_gamma   101.44565629
_symmetry_Int_Tables_number   1
_chemical_formula_structural   Fe7(PO4)6
_chemical_formula_sum   'Fe7 P6 O24'
_cell_volume   428.24823294
_cell_formula_units_Z   1
loop_
 _symmetry_equiv_pos_site_id
 _symmetry_equiv_pos_as_xyz
  1  'x, y, z'
loop_
 _atom_site_type_symbol
 _atom_site_label
 _atom_site_symmetry_multiplicity
 _atom_site_fract_x
 _atom_site_fract_y
 _atom_site_fract_z
 _atom_site_occupancy
  Fe  Fe0  1  0.04469900  0.72417200  0.02994200  1
  Fe  Fe1  1  0.95530100  0.27582800  0.97005800  1
  Fe  Fe2  1  0.38505600  0.45372300  0.61435000  1
  Fe  Fe3  1  0.61494400  0.54627700  0.38565000  1
  Fe  Fe4  1  0.28179300  0.81097800  0.78827900  1
  Fe  Fe5  1  0.71820700  0.18902200  0.21172100  1
  Fe  Fe6  1  0.00000000  0.00000000  0.50000000  1
  P  P7  1  0.60156700  0.76987200  0.13201800  1
  P  P8  1  0.39843300  0.23012800  0.86798200  1
  P  P9  1  0.09072500  0.59390900  0.33267600  1
  P  P10  1  0.90927500  0.40609100  0.66732400  1
  P  P11  1  0.77088200  0.84855200  0.73114400  1
  P  P12  1  0.22911800  0.15144800  0.26885600  1
  O  O13  1  0.36801400  0.76574000  0.01003300  1
  O  O14  1  0.63198600  0.23426000  0.98996700  1
  O  O15  1  0.74954500  0.72263700  0.03841200  1
  O  O16  1  0.25045500  0.27736300  0.96158800  1
  O  O17  1  0.55104300  0.63455300  0.21437000  1
  O  O18  1  0.44895700  0.36544700  0.78563000  1
  O  O19  1  0.72439700  0.96086100  0.26268900  1
  O  O20  1  0.27560300  0.03913900  0.73731100  1
  O  O21  1  0.06390800  0.55029300  0.15444200  1
  O  O22  1  0.93609200  0.44970700  0.84555800  1
  O  O23  1  0.30748100  0.53975200  0.41561800  1
  O  O24  1  0.69251900  0.46024800  0.58438200  1
  O  O25  1  0.11314600  0.78692600  0.41671500  1
  O  O26  1  0.88685400  0.21307400  0.58328500  1
  O  O27  1  0.87619800  0.46665400  0.33758600  1
  O  O28  1  0.12380200  0.53334600  0.66241400  1
  O  O29  1  0.54402500  0.73091000  0.72600700  1
  O  O30  1  0.45597500  0.26909000  0.27399300  1
  O  O31  1  0.79045300  0.04682900  0.79409900  1
  O  O32  1  0.20954700  0.95317100  0.20590100  1
  O  O33  1  0.77309600  0.79867800  0.55930000  1
  O  O34  1  0.22690400  0.20132200  0.44070000  1
  O  O35  1  0.97938500  0.80923800  0.84187700  1
  O  O36  1  0.02061500  0.19076200  0.15812300  1
