# generated using pymatgen
data_FeH9C3N7O2
_symmetry_space_group_name_H-M   'P 1'
_cell_length_a   14.13873000
_cell_length_b   6.49034600
_cell_length_c   10.56335084
_cell_angle_alpha   85.12853598
_cell_angle_beta   90.00000000
_cell_angle_gamma   90.00000000
_symmetry_Int_Tables_number   1
_chemical_formula_structural   FeH9C3N7O2
_chemical_formula_sum   'Fe4 H36 C12 N28 O8'
_cell_volume   965.84696379
_cell_formula_units_Z   4
loop_
 _symmetry_equiv_pos_site_id
 _symmetry_equiv_pos_as_xyz
  1  'x, y, z'
loop_
 _atom_site_type_symbol
 _atom_site_label
 _atom_site_symmetry_multiplicity
 _atom_site_fract_x
 _atom_site_fract_y
 _atom_site_fract_z
 _atom_site_occupancy
  Fe  Fe0  1  0.75095400  0.97275600  0.75059800  1
  Fe  Fe1  1  0.25095400  0.52724400  0.24940200  1
  Fe  Fe2  1  0.24904600  0.02724400  0.24940200  1
  Fe  Fe3  1  0.74904600  0.47275600  0.75059800  1
  H  H4  1  0.51690700  0.85129700  0.76234200  1
  H  H5  1  0.01690700  0.64870300  0.23765800  1
  H  H6  1  0.48309300  0.14870300  0.23765800  1
  H  H7  1  0.98309300  0.35129700  0.76234200  1
  H  H8  1  0.49332100  0.60034500  0.79672600  1
  H  H9  1  0.99332100  0.89965500  0.20327400  1
  H  H10  1  0.50667900  0.39965500  0.20327400  1
  H  H11  1  0.00667900  0.10034500  0.79672600  1
  H  H12  1  0.48173100  0.22313600  0.74539800  1
  H  H13  1  0.98173100  0.27686400  0.25460200  1
  H  H14  1  0.51826900  0.77686400  0.25460200  1
  H  H15  1  0.01826900  0.72313600  0.74539800  1
  H  H16  1  0.35757300  0.95113700  0.80641200  1
  H  H17  1  0.85757300  0.54886300  0.19358800  1
  H  H18  1  0.64242700  0.04886300  0.19358800  1
  H  H19  1  0.14242700  0.45113700  0.80641200  1
  H  H20  1  0.40727800  0.79925300  0.94044100  1
  H  H21  1  0.90727800  0.70074700  0.05955900  1
  H  H22  1  0.59272200  0.20074700  0.05955900  1
  H  H23  1  0.09272200  0.29925300  0.94044100  1
  H  H24  1  0.32574900  0.68400500  0.83732500  1
  H  H25  1  0.82574900  0.81599500  0.16267500  1
  H  H26  1  0.67425100  0.31599500  0.16267500  1
  H  H27  1  0.17425100  0.18400500  0.83732500  1
  H  H28  1  0.38265900  0.59657700  0.62327700  1
  H  H29  1  0.88265900  0.90342300  0.37672300  1
  H  H30  1  0.61734100  0.40342300  0.37672300  1
  H  H31  1  0.11734100  0.09657700  0.62327700  1
  H  H32  1  0.49844100  0.68224000  0.57335300  1
  H  H33  1  0.99844100  0.81776000  0.42664700  1
  H  H34  1  0.50155900  0.31776000  0.42664700  1
  H  H35  1  0.00155900  0.18224000  0.57335300  1
  H  H36  1  0.40560100  0.86810500  0.58796000  1
  H  H37  1  0.90560100  0.63189500  0.41204000  1
  H  H38  1  0.59439900  0.13189500  0.41204000  1
  H  H39  1  0.09439900  0.36810500  0.58796000  1
  C  C40  1  0.55989700  0.22302500  0.75032600  1
  C  C41  1  0.05989700  0.27697500  0.24967400  1
  C  C42  1  0.44010300  0.77697500  0.24967400  1
  C  C43  1  0.94010300  0.72302500  0.75032600  1
  C  C44  1  0.38258500  0.79745600  0.84240500  1
  C  C45  1  0.88258500  0.70254400  0.15759500  1
  C  C46  1  0.61741500  0.20254400  0.15759500  1
  C  C47  1  0.11741500  0.29745600  0.84240500  1
  C  C48  1  0.43522900  0.72003000  0.62661800  1
  C  C49  1  0.93522900  0.77997000  0.37338200  1
  C  C50  1  0.56477100  0.27997000  0.37338200  1
  C  C51  1  0.06477100  0.22003000  0.62661800  1
  N  N52  1  0.72824900  0.74323400  0.61285600  1
  N  N53  1  0.22824900  0.75676600  0.38714400  1
  N  N54  1  0.27175100  0.25676600  0.38714400  1
  N  N55  1  0.77175100  0.24323400  0.61285600  1
  N  N56  1  0.69548100  0.75902800  0.50732800  1
  N  N57  1  0.19548100  0.74097200  0.49267200  1
  N  N58  1  0.30451900  0.24097200  0.49267200  1
  N  N59  1  0.80451900  0.25902800  0.50732800  1
  N  N60  1  0.66394300  0.77437500  0.40461400  1
  N  N61  1  0.16394300  0.72562500  0.59538600  1
  N  N62  1  0.33605700  0.22562500  0.59538600  1
  N  N63  1  0.83605700  0.27437500  0.40461400  1
  N  N64  1  0.72114900  0.70327000  0.88576200  1
  N  N65  1  0.22114900  0.79673000  0.11423800  1
  N  N66  1  0.27885100  0.29673000  0.11423800  1
  N  N67  1  0.77885100  0.20327000  0.88576200  1
  N  N68  1  0.65986600  0.69483700  0.96544400  1
  N  N69  1  0.15986600  0.80516300  0.03455600  1
  N  N70  1  0.34013400  0.30516300  0.03455600  1
  N  N71  1  0.84013400  0.19483700  0.96544400  1
  N  N72  1  0.60048100  0.68671800  0.04250300  1
  N  N73  1  0.10048100  0.81328200  0.95749700  1
  N  N74  1  0.39951900  0.31328200  0.95749700  1
  N  N75  1  0.89951900  0.18671800  0.04250300  1
  N  N76  1  0.46277200  0.73871400  0.76134800  1
  N  N77  1  0.96277200  0.76128600  0.23865200  1
  N  N78  1  0.53722800  0.26128600  0.23865200  1
  N  N79  1  0.03722800  0.23871400  0.76134800  1
  O  O80  1  0.60015800  0.04675400  0.75065100  1
  O  O81  1  0.10015800  0.45324600  0.24934900  1
  O  O82  1  0.39984200  0.95324600  0.24934900  1
  O  O83  1  0.89984200  0.54675400  0.75065100  1
  O  O84  1  0.59948200  0.39722600  0.75482000  1
  O  O85  1  0.09948200  0.10277400  0.24518000  1
  O  O86  1  0.40051800  0.60277400  0.24518000  1
  O  O87  1  0.90051800  0.89722600  0.75482000  1
