# generated using pymatgen
data_Li2Cr3NiO8
_symmetry_space_group_name_H-M   'P 1'
_cell_length_a   8.33167305
_cell_length_b   8.35698606
_cell_length_c   8.33588501
_cell_angle_alpha   89.99454239
_cell_angle_beta   90.00318348
_cell_angle_gamma   90.01238025
_symmetry_Int_Tables_number   1
_chemical_formula_structural   Li2Cr3NiO8
_chemical_formula_sum   'Li8 Cr12 Ni4 O32'
_cell_volume   580.40827989
_cell_formula_units_Z   4
loop_
 _symmetry_equiv_pos_site_id
 _symmetry_equiv_pos_as_xyz
  1  'x, y, z'
loop_
 _atom_site_type_symbol
 _atom_site_label
 _atom_site_symmetry_multiplicity
 _atom_site_fract_x
 _atom_site_fract_y
 _atom_site_fract_z
 _atom_site_occupancy
  Li  Li0  1  0.99748100  0.99982400  0.00178700  1
  Li  Li1  1  0.25018900  0.25150800  0.25140000  1
  Li  Li2  1  0.24827000  0.75094200  0.74987500  1
  Li  Li3  1  0.49947400  0.00059500  0.49770000  1
  Li  Li4  1  0.49717200  0.50014600  0.99816600  1
  Li  Li5  1  0.74978300  0.24863400  0.74854600  1
  Li  Li6  1  0.74813100  0.74879300  0.24970800  1
  Li  Li7  1  0.99921200  0.49909100  0.50203900  1
  Cr  Cr8  1  0.12831200  0.12743500  0.63135100  1
  Cr  Cr9  1  0.12676100  0.37778400  0.87911500  1
  Cr  Cr10  1  0.12831600  0.63213200  0.12711000  1
  Cr  Cr11  1  0.37781200  0.38154300  0.62234600  1
  Cr  Cr12  1  0.37807100  0.62857100  0.37279000  1
  Cr  Cr13  1  0.37797500  0.87654200  0.11857500  1
  Cr  Cr14  1  0.62785400  0.37248200  0.36880400  1
  Cr  Cr15  1  0.62679800  0.12231700  0.12130400  1
  Cr  Cr16  1  0.62824800  0.86792900  0.87313800  1
  Cr  Cr17  1  0.87773400  0.11879000  0.37760500  1
  Cr  Cr18  1  0.87814900  0.87079500  0.62719800  1
  Cr  Cr19  1  0.87811400  0.62358500  0.88167000  1
  Ni  Ni20  1  0.12367100  0.87541900  0.37461400  1
  Ni  Ni21  1  0.37371000  0.12438800  0.87514400  1
  Ni  Ni22  1  0.62374000  0.62424100  0.62509300  1
  Ni  Ni23  1  0.87400500  0.37568300  0.12498300  1
  O  O24  1  0.10158300  0.12810700  0.39341200  1
  O  O25  1  0.10844700  0.88915400  0.61560800  1
  O  O26  1  0.11533800  0.61589000  0.89353800  1
  O  O27  1  0.12389500  0.14022200  0.85762200  1
  O  O28  1  0.12163400  0.39298400  0.10386200  1
  O  O29  1  0.14049200  0.36549500  0.64202100  1
  O  O30  1  0.14490000  0.61801600  0.35293600  1
  O  O31  1  0.13919000  0.85684200  0.12970000  1
  O  O32  1  0.35162500  0.14335800  0.62209000  1
  O  O33  1  0.35808800  0.36579400  0.86089500  1
  O  O34  1  0.36565000  0.64399200  0.13419000  1
  O  O35  1  0.37500200  0.60660400  0.61046300  1
  O  O36  1  0.37102200  0.85302800  0.35723400  1
  O  O37  1  0.39035300  0.39259100  0.38395100  1
  O  O38  1  0.39461400  0.10177600  0.13264400  1
  O  O39  1  0.38912700  0.87997600  0.89252900  1
  O  O40  1  0.60142400  0.37181000  0.60657500  1
  O  O41  1  0.60849800  0.61070900  0.38422000  1
  O  O42  1  0.61534200  0.88439800  0.10616100  1
  O  O43  1  0.62390300  0.35990800  0.14248000  1
  O  O44  1  0.62103700  0.10711200  0.89611600  1
  O  O45  1  0.64046900  0.13453100  0.35793600  1
  O  O46  1  0.64490100  0.88199900  0.64719000  1
  O  O47  1  0.63917000  0.64349600  0.87048100  1
  O  O48  1  0.85156500  0.35653300  0.37798700  1
  O  O49  1  0.85828600  0.13441200  0.13898800  1
  O  O50  1  0.86547600  0.85626000  0.86578900  1
  O  O51  1  0.87438800  0.89351100  0.38948700  1
  O  O52  1  0.87094200  0.64681900  0.64278200  1
  O  O53  1  0.89064300  0.10737800  0.61602600  1
  O  O54  1  0.89467900  0.39842600  0.86758800  1
  O  O55  1  0.88933300  0.61984200  0.10757800  1
