# generated using pymatgen
data_CaCuAsHO5
_symmetry_space_group_name_H-M   'P 1'
_cell_length_a   5.88755800
_cell_length_b   7.43266400
_cell_length_c   9.49257000
_cell_angle_alpha   90.00000000
_cell_angle_beta   90.00000000
_cell_angle_gamma   90.00000000
_symmetry_Int_Tables_number   1
_chemical_formula_structural   CaCuAsHO5
_chemical_formula_sum   'Ca4 Cu4 As4 H4 O20'
_cell_volume   415.39714516
_cell_formula_units_Z   4
loop_
 _symmetry_equiv_pos_site_id
 _symmetry_equiv_pos_as_xyz
  1  'x, y, z'
loop_
 _atom_site_type_symbol
 _atom_site_label
 _atom_site_symmetry_multiplicity
 _atom_site_fract_x
 _atom_site_fract_y
 _atom_site_fract_z
 _atom_site_occupancy
  Ca  Ca0  1  0.02002000  0.13315500  0.67918900  1
  Ca  Ca1  1  0.52002000  0.36684500  0.32081100  1
  Ca  Ca2  1  0.97998000  0.63315500  0.82081100  1
  Ca  Ca3  1  0.47998000  0.86684500  0.17918900  1
  Cu  Cu4  1  0.75142900  0.75336800  0.50077200  1
  Cu  Cu5  1  0.25142900  0.74663200  0.49922800  1
  Cu  Cu6  1  0.24857100  0.25336800  0.99922800  1
  Cu  Cu7  1  0.74857100  0.24663200  0.00077200  1
  As  As8  1  0.48543100  0.38133800  0.66353600  1
  As  As9  1  0.98543100  0.11866200  0.33646400  1
  As  As10  1  0.51456900  0.88133800  0.83646400  1
  As  As11  1  0.01456900  0.61866200  0.16353600  1
  H  H12  1  0.48911200  0.00871500  0.48333600  1
  H  H13  1  0.98911200  0.49128500  0.51666400  1
  H  H14  1  0.51088800  0.50871500  0.01666400  1
  H  H15  1  0.01088800  0.99128500  0.98333600  1
  O  O16  1  0.50471800  0.56209300  0.54184300  1
  O  O17  1  0.00471800  0.93790700  0.45815700  1
  O  O18  1  0.49528200  0.06209300  0.95815700  1
  O  O19  1  0.99528200  0.43790700  0.04184300  1
  O  O20  1  0.41565600  0.20693200  0.55263700  1
  O  O21  1  0.91565600  0.29306800  0.44736300  1
  O  O22  1  0.58434400  0.70693200  0.94736300  1
  O  O23  1  0.08434400  0.79306800  0.05263700  1
  O  O24  1  0.25468500  0.39861200  0.77390600  1
  O  O25  1  0.75468500  0.10138800  0.22609400  1
  O  O26  1  0.74531500  0.89861200  0.72609400  1
  O  O27  1  0.24531500  0.60138800  0.27390600  1
  O  O28  1  0.73815000  0.36294700  0.75212900  1
  O  O29  1  0.23815000  0.13705300  0.24787100  1
  O  O30  1  0.26185000  0.86294700  0.74787100  1
  O  O31  1  0.76185000  0.63705300  0.25212900  1
  O  O32  1  0.49914800  0.89043800  0.43288200  1
  O  O33  1  0.99914800  0.60956200  0.56711800  1
  O  O34  1  0.50085200  0.39043800  0.06711800  1
  O  O35  1  0.00085200  0.10956200  0.93288200  1
