# generated using pymatgen
data_MnPbO3
_symmetry_space_group_name_H-M   'P 1'
_cell_length_a   5.60775409
_cell_length_b   5.59410347
_cell_length_c   13.85591761
_cell_angle_alpha   88.94657284
_cell_angle_beta   87.89792105
_cell_angle_gamma   59.91925256
_symmetry_Int_Tables_number   1
_chemical_formula_structural   MnPbO3
_chemical_formula_sum   'Mn6 Pb6 O18'
_cell_volume   375.87122834
_cell_formula_units_Z   6
loop_
 _symmetry_equiv_pos_site_id
 _symmetry_equiv_pos_as_xyz
  1  'x, y, z'
loop_
 _atom_site_type_symbol
 _atom_site_label
 _atom_site_symmetry_multiplicity
 _atom_site_fract_x
 _atom_site_fract_y
 _atom_site_fract_z
 _atom_site_occupancy
  Mn  Mn0  1  0.00000000  0.00000000  0.00000000  1
  Mn  Mn1  1  0.00000000  0.00000000  0.50000000  1
  Mn  Mn2  1  0.68037900  0.67408300  0.84509700  1
  Mn  Mn3  1  0.64553900  0.67408300  0.65490300  1
  Mn  Mn4  1  0.31962100  0.32591700  0.15490300  1
  Mn  Mn5  1  0.35446100  0.32591700  0.34509700  1
  Pb  Pb6  1  0.01073000  0.97854100  0.25000000  1
  Pb  Pb7  1  0.98927000  0.02145900  0.75000000  1
  Pb  Pb8  1  0.66960300  0.65969800  0.08932200  1
  Pb  Pb9  1  0.67070000  0.65969800  0.41067800  1
  Pb  Pb10  1  0.33039700  0.34030200  0.91067800  1
  Pb  Pb11  1  0.32930000  0.34030200  0.58932200  1
  O  O12  1  0.48732300  0.02535500  0.25000000  1
  O  O13  1  0.51267700  0.97464500  0.75000000  1
  O  O14  1  0.04023900  0.47501500  0.26493400  1
  O  O15  1  0.48474700  0.47501500  0.23506600  1
  O  O16  1  0.95976100  0.52498500  0.73506600  1
  O  O17  1  0.51525300  0.52498500  0.76493400  1
  O  O18  1  0.10622300  0.66401500  0.07992000  1
  O  O19  1  0.22976200  0.66401500  0.42008000  1
  O  O20  1  0.89377700  0.33598500  0.92008000  1
  O  O21  1  0.77023800  0.33598500  0.57992000  1
  O  O22  1  0.10585900  0.16902200  0.10049300  1
  O  O23  1  0.72512000  0.16902200  0.39950700  1
  O  O24  1  0.89414100  0.83097800  0.89950700  1
  O  O25  1  0.27488000  0.83097800  0.60049300  1
  O  O26  1  0.61445800  0.16486800  0.05832400  1
  O  O27  1  0.22067500  0.16486800  0.44167600  1
  O  O28  1  0.38554200  0.83513200  0.94167600  1
  O  O29  1  0.77932500  0.83513200  0.55832400  1
