# generated using pymatgen
data_Al2NiO4
_symmetry_space_group_name_H-M   'P 1'
_cell_length_a   5.76768382
_cell_length_b   5.76768382
_cell_length_c   18.96640607
_cell_angle_alpha   81.20849701
_cell_angle_beta   81.20849701
_cell_angle_gamma   59.90176821
_symmetry_Int_Tables_number   1
_chemical_formula_structural   Al2NiO4
_chemical_formula_sum   'Al16 Ni8 O32'
_cell_volume   537.30860104
_cell_formula_units_Z   8
loop_
 _symmetry_equiv_pos_site_id
 _symmetry_equiv_pos_as_xyz
  1  'x, y, z'
loop_
 _atom_site_type_symbol
 _atom_site_label
 _atom_site_symmetry_multiplicity
 _atom_site_fract_x
 _atom_site_fract_y
 _atom_site_fract_z
 _atom_site_occupancy
  Al  Al0  1  0.99887100  0.99887100  0.00252600  1
  Al  Al1  1  0.12211800  0.63161900  0.12529900  1
  Al  Al2  1  0.63161900  0.12211800  0.12529900  1
  Al  Al3  1  0.25020200  0.25020200  0.25260500  1
  Al  Al4  1  0.15098100  0.15098100  0.53401200  1
  Al  Al5  1  0.37551200  0.87999200  0.37548700  1
  Al  Al6  1  0.87999200  0.37551200  0.37548700  1
  Al  Al7  1  0.39858900  0.39858900  0.78088700  1
  Al  Al8  1  0.60073300  0.60073300  0.21975000  1
  Al  Al9  1  0.62470100  0.12516000  0.62433600  1
  Al  Al10  1  0.12516000  0.62470100  0.62433600  1
  Al  Al11  1  0.85107600  0.85107600  0.46609300  1
  Al  Al12  1  0.87117400  0.37543200  0.87328900  1
  Al  Al13  1  0.37543200  0.87117400  0.87328900  1
  Al  Al14  1  0.09857300  0.09857300  0.71632700  1
  Al  Al15  1  0.34842300  0.34842300  0.97005500  1
  Ni  Ni16  1  0.65540600  0.65540600  0.02931400  1
  Ni  Ni17  1  0.12314100  0.12314100  0.12514700  1
  Ni  Ni18  1  0.90603400  0.90603400  0.28385800  1
  Ni  Ni19  1  0.37565600  0.37565600  0.37539500  1
  Ni  Ni20  1  0.62506200  0.62506200  0.62466000  1
  Ni  Ni21  1  0.50117900  0.50117900  0.49935600  1
  Ni  Ni22  1  0.87214600  0.87214600  0.87398900  1
  Ni  Ni23  1  0.74867700  0.74867700  0.74976600  1
  O  O24  1  0.27670400  0.81286500  0.06285800  1
  O  O25  1  0.92944300  0.92944300  0.17954000  1
  O  O26  1  0.81286500  0.27670400  0.06285800  1
  O  O27  1  0.82762400  0.82762400  0.06617500  1
  O  O28  1  0.52443000  0.06661700  0.31383000  1
  O  O29  1  0.43222200  0.43222200  0.18644900  1
  O  O30  1  0.44048400  0.95894300  0.18817400  1
  O  O31  1  0.18182600  0.18182600  0.43749100  1
  O  O32  1  0.06661700  0.52443000  0.31383000  1
  O  O33  1  0.31952400  0.31952400  0.06753200  1
  O  O34  1  0.95894300  0.44048400  0.18817400  1
  O  O35  1  0.08280000  0.08280000  0.31724300  1
  O  O36  1  0.80178300  0.29939000  0.56676800  1
  O  O37  1  0.69021300  0.69021300  0.43164500  1
  O  O38  1  0.70379800  0.19848400  0.43300700  1
  O  O39  1  0.29939000  0.80178300  0.56676800  1
  O  O40  1  0.57095900  0.57095900  0.31670700  1
  O  O41  1  0.42978000  0.42978000  0.68341300  1
  O  O42  1  0.19848400  0.70379800  0.43300700  1
  O  O43  1  0.31349200  0.31349200  0.56750600  1
  O  O44  1  0.05408100  0.54487000  0.81570500  1
  O  O45  1  0.93621700  0.93621700  0.68306100  1
  O  O46  1  0.67681600  0.67681600  0.92425000  1
  O  O47  1  0.95059100  0.44726800  0.68364400  1
  O  O48  1  0.54487000  0.05408100  0.81570500  1
  O  O49  1  0.82010400  0.82010400  0.56522100  1
  O  O50  1  0.55694000  0.55694000  0.81592300  1
  O  O51  1  0.44726800  0.95059100  0.68364400  1
  O  O52  1  0.17858600  0.17858600  0.93721000  1
  O  O53  1  0.18696900  0.70752300  0.93813500  1
  O  O54  1  0.06819600  0.06819600  0.81583300  1
  O  O55  1  0.70752300  0.18696900  0.93813500  1
