# generated using pymatgen
data_SrV6O15
_symmetry_space_group_name_H-M   'P 1'
_cell_length_a   7.38121200
_cell_length_b   10.44807300
_cell_length_c   15.54590288
_cell_angle_alpha   70.80949082
_cell_angle_beta   90.00000000
_cell_angle_gamma   90.00000000
_symmetry_Int_Tables_number   1
_chemical_formula_structural   SrV6O15
_chemical_formula_sum   'Sr4 V24 O60'
_cell_volume   1132.26995816
_cell_formula_units_Z   4
loop_
 _symmetry_equiv_pos_site_id
 _symmetry_equiv_pos_as_xyz
  1  'x, y, z'
loop_
 _atom_site_type_symbol
 _atom_site_label
 _atom_site_symmetry_multiplicity
 _atom_site_fract_x
 _atom_site_fract_y
 _atom_site_fract_z
 _atom_site_occupancy
  Sr  Sr0  1  0.87679200  0.59163900  0.75527100  1
  Sr  Sr1  1  0.37679200  0.40836100  0.74472900  1
  Sr  Sr2  1  0.12320800  0.40836100  0.24472900  1
  Sr  Sr3  1  0.62320800  0.59163900  0.25527100  1
  V  V4  1  0.38070600  0.58694400  0.03539100  1
  V  V5  1  0.88070600  0.41305600  0.46460900  1
  V  V6  1  0.61929400  0.41305600  0.96460900  1
  V  V7  1  0.11929400  0.58694400  0.53539100  1
  V  V8  1  0.87459800  0.59045500  0.03145300  1
  V  V9  1  0.37459800  0.40954500  0.46854700  1
  V  V10  1  0.12540200  0.40954500  0.96854700  1
  V  V11  1  0.62540200  0.59045500  0.53145300  1
  V  V12  1  0.37449400  0.88727900  0.86986000  1
  V  V13  1  0.87449400  0.11272100  0.63014000  1
  V  V14  1  0.62550600  0.11272100  0.13014000  1
  V  V15  1  0.12550600  0.88727900  0.36986000  1
  V  V16  1  0.87569600  0.89224500  0.86648100  1
  V  V17  1  0.37569600  0.10775500  0.63351900  1
  V  V18  1  0.12430400  0.10775500  0.13351900  1
  V  V19  1  0.62430400  0.89224500  0.36648100  1
  V  V20  1  0.37543100  0.89632300  0.08313600  1
  V  V21  1  0.87543100  0.10367700  0.41686400  1
  V  V22  1  0.62456900  0.10367700  0.91686400  1
  V  V23  1  0.12456900  0.89632300  0.58313600  1
  V  V24  1  0.87364900  0.89373400  0.08500100  1
  V  V25  1  0.37364900  0.10626600  0.41499900  1
  V  V26  1  0.12635100  0.10626600  0.91499900  1
  V  V27  1  0.62635100  0.89373400  0.58500100  1
  O  O28  1  0.38702900  0.53467900  0.14992600  1
  O  O29  1  0.88702900  0.46532100  0.35007400  1
  O  O30  1  0.61297100  0.46532100  0.85007400  1
  O  O31  1  0.11297100  0.53467900  0.64992600  1
  O  O32  1  0.86046300  0.53443100  0.14596400  1
  O  O33  1  0.36046300  0.46556900  0.35403600  1
  O  O34  1  0.13953700  0.46556900  0.85403600  1
  O  O35  1  0.63953700  0.53443100  0.64596400  1
  O  O36  1  0.37205200  0.57262600  0.50776500  1
  O  O37  1  0.87205200  0.42737400  0.99223500  1
  O  O38  1  0.62794800  0.42737400  0.49223500  1
  O  O39  1  0.12794800  0.57262600  0.00776500  1
  O  O40  1  0.87556100  0.58207800  0.49639000  1
  O  O41  1  0.37556100  0.41792200  0.00361000  1
  O  O42  1  0.12443900  0.41792200  0.50361000  1
  O  O43  1  0.62443900  0.58207800  0.99639000  1
  O  O44  1  0.37169900  0.73685600  0.85985400  1
  O  O45  1  0.87169900  0.26314400  0.64014600  1
  O  O46  1  0.62830100  0.26314400  0.14014600  1
  O  O47  1  0.12830100  0.73685600  0.35985400  1
  O  O48  1  0.87927200  0.73317600  0.86384200  1
  O  O49  1  0.87699700  0.78850400  0.01317700  1
  O  O50  1  0.37927200  0.26682400  0.63615800  1
  O  O51  1  0.62072800  0.73317600  0.36384200  1
  O  O52  1  0.37418600  0.78683400  0.01225900  1
  O  O53  1  0.87418600  0.21316600  0.48774100  1
  O  O54  1  0.62581400  0.21316600  0.98774100  1
  O  O55  1  0.12581400  0.78683400  0.51225900  1
  O  O56  1  0.62492600  0.99606600  0.25000700  1
  O  O57  1  0.12492600  0.00393400  0.24999300  1
  O  O58  1  0.37507400  0.00393400  0.74999300  1
  O  O59  1  0.87507400  0.99606600  0.75000700  1
  O  O60  1  0.62581100  0.95038300  0.06234700  1
  O  O61  1  0.12581100  0.04961700  0.43765300  1
  O  O62  1  0.37418900  0.04961700  0.93765300  1
  O  O63  1  0.87418900  0.95038300  0.56234700  1
  O  O64  1  0.12437800  0.94608900  0.07032200  1
  O  O65  1  0.62437800  0.05391100  0.42967800  1
  O  O66  1  0.87562200  0.05391100  0.92967800  1
  O  O67  1  0.37562200  0.94608900  0.57032200  1
  O  O68  1  0.62469300  0.92924800  0.88378700  1
  O  O69  1  0.12469300  0.07075200  0.61621300  1
  O  O70  1  0.37530700  0.07075200  0.11621300  1
  O  O71  1  0.87530700  0.92924800  0.38378700  1
  O  O72  1  0.12550500  0.93073400  0.88368500  1
  O  O73  1  0.62550500  0.06926600  0.61631500  1
  O  O74  1  0.87449500  0.06926600  0.11631500  1
  O  O75  1  0.37449500  0.93073400  0.38368500  1
  O  O76  1  0.64125400  0.78059400  0.68646300  1
  O  O77  1  0.14125400  0.21940600  0.81353700  1
  O  O78  1  0.35874600  0.21940600  0.31353700  1
  O  O79  1  0.85874600  0.78059400  0.18646300  1
  O  O80  1  0.10864700  0.78267700  0.68451000  1
  O  O81  1  0.60864700  0.21732300  0.81549000  1
  O  O82  1  0.89135300  0.21732300  0.31549000  1
  O  O83  1  0.39135300  0.78267700  0.18451000  1
  O  O84  1  0.62300300  0.78850400  0.51317700  1
  O  O85  1  0.12300300  0.21149600  0.98682300  1
  O  O86  1  0.37699700  0.21149600  0.48682300  1
  O  O87  1  0.12072800  0.26682400  0.13615800  1
