# generated using pymatgen
data_Mg(GaO2)2
_symmetry_space_group_name_H-M   'P 1'
_cell_length_a   5.93530032
_cell_length_b   5.93530032
_cell_length_c   19.65270302
_cell_angle_alpha   81.47070874
_cell_angle_beta   81.47070874
_cell_angle_gamma   60.48038099
_symmetry_Int_Tables_number   1
_chemical_formula_structural   Mg(GaO2)2
_chemical_formula_sum   'Mg8 Ga16 O32'
_cell_volume   593.50468550
_cell_formula_units_Z   8
loop_
 _symmetry_equiv_pos_site_id
 _symmetry_equiv_pos_as_xyz
  1  'x, y, z'
loop_
 _atom_site_type_symbol
 _atom_site_label
 _atom_site_symmetry_multiplicity
 _atom_site_fract_x
 _atom_site_fract_y
 _atom_site_fract_z
 _atom_site_occupancy
  Mg  Mg0  1  0.00574200  0.00574200  0.99878000  1
  Mg  Mg1  1  0.25491100  0.25491100  0.25232700  1
  Mg  Mg2  1  0.78332700  0.78332700  0.15655300  1
  Mg  Mg3  1  0.03165700  0.03165700  0.40757700  1
  Mg  Mg4  1  0.28128000  0.28128000  0.65637300  1
  Mg  Mg5  1  0.15577600  0.15577600  0.53179500  1
  Mg  Mg6  1  0.53278600  0.53278600  0.90529800  1
  Mg  Mg7  1  0.40598200  0.40598200  0.78138200  1
  Ga  Ga8  1  0.30582100  0.30582100  0.06157500  1
  Ga  Ga9  1  0.55556000  0.55556000  0.31161500  1
  Ga  Ga10  1  0.50717300  0.50717300  0.49970500  1
  Ga  Ga11  1  0.65722900  0.65722900  0.02797800  1
  Ga  Ga12  1  0.78506700  0.27199500  0.15666400  1
  Ga  Ga13  1  0.27199500  0.78506700  0.15666400  1
  Ga  Ga14  1  0.75802000  0.75802000  0.74632700  1
  Ga  Ga15  1  0.90669400  0.90669400  0.27842300  1
  Ga  Ga16  1  0.80465200  0.80465200  0.56532900  1
  Ga  Ga17  1  0.03259900  0.52632500  0.40802200  1
  Ga  Ga18  1  0.52632500  0.03259900  0.40802200  1
  Ga  Ga19  1  0.05494200  0.05494200  0.81472200  1
  Ga  Ga20  1  0.28144100  0.78091600  0.65651700  1
  Ga  Ga21  1  0.78091600  0.28144100  0.65651700  1
  Ga  Ga22  1  0.53366500  0.02700200  0.90535200  1
  Ga  Ga23  1  0.02700200  0.53366500  0.90535200  1
  O  O24  1  0.94640000  0.47388900  0.09454500  1
  O  O25  1  0.59137700  0.59137700  0.21324600  1
  O  O26  1  0.47388900  0.94640000  0.09454500  1
  O  O27  1  0.47520000  0.47520000  0.09488300  1
  O  O28  1  0.19590800  0.72437200  0.34461100  1
  O  O29  1  0.08447300  0.08447300  0.21674700  1
  O  O30  1  0.84021700  0.84021700  0.46439200  1
  O  O31  1  0.72437200  0.19590800  0.34461100  1
  O  O32  1  0.08780700  0.62346500  0.21754500  1
  O  O33  1  0.97248700  0.97248700  0.10065700  1
  O  O34  1  0.72544600  0.72544600  0.34472300  1
  O  O35  1  0.62346500  0.08780700  0.21754500  1
  O  O36  1  0.34192000  0.34192000  0.46693000  1
  O  O37  1  0.45023500  0.96883900  0.59681300  1
  O  O38  1  0.09110500  0.09110500  0.71507200  1
  O  O39  1  0.96883900  0.45023500  0.59681300  1
  O  O40  1  0.34415300  0.85842700  0.46684200  1
  O  O41  1  0.22174100  0.22174100  0.35500300  1
  O  O42  1  0.97243500  0.97243500  0.59692100  1
  O  O43  1  0.85842700  0.34415300  0.46684200  1
  O  O44  1  0.58957000  0.58957000  0.71532800  1
  O  O45  1  0.70101800  0.21787900  0.84704100  1
  O  O46  1  0.34201100  0.34201100  0.96398600  1
  O  O47  1  0.59356600  0.11321900  0.71547600  1
  O  O48  1  0.21787900  0.70101800  0.84704100  1
  O  O49  1  0.47135600  0.47135600  0.59847100  1
  O  O50  1  0.22177000  0.22177000  0.84745300  1
  O  O51  1  0.11321900  0.59356600  0.71547600  1
  O  O52  1  0.83241800  0.83241800  0.96505300  1
  O  O53  1  0.83690900  0.37808400  0.96600400  1
  O  O54  1  0.72173900  0.72173900  0.84451100  1
  O  O55  1  0.37808400  0.83690900  0.96600400  1
