# generated using pymatgen
data_MgAl2O4
_symmetry_space_group_name_H-M   'P 1'
_cell_length_a   19.17583927
_cell_length_b   19.17583927
_cell_length_c   19.17583866
_cell_angle_alpha   17.31770803
_cell_angle_beta   17.31770803
_cell_angle_gamma   17.31770756
_symmetry_Int_Tables_number   1
_chemical_formula_structural   MgAl2O4
_chemical_formula_sum   'Mg8 Al16 O32'
_cell_volume   545.20139821
_cell_formula_units_Z   8
loop_
 _symmetry_equiv_pos_site_id
 _symmetry_equiv_pos_as_xyz
  1  'x, y, z'
loop_
 _atom_site_type_symbol
 _atom_site_label
 _atom_site_symmetry_multiplicity
 _atom_site_fract_x
 _atom_site_fract_y
 _atom_site_fract_z
 _atom_site_occupancy
  Mg  Mg0  1  0.15528800  0.15528800  0.15528800  1
  Mg  Mg1  1  0.49927100  0.49927100  0.49927100  1
  Mg  Mg2  1  0.40576000  0.40576000  0.40576000  1
  Mg  Mg3  1  0.65644300  0.65644300  0.65644300  1
  Mg  Mg4  1  0.09445400  0.09445400  0.09445400  1
  Mg  Mg5  1  0.90631600  0.90631600  0.90631600  1
  Mg  Mg6  1  0.34384300  0.34384300  0.34384300  1
  Mg  Mg7  1  0.59353400  0.59353400  0.59353400  1
  Al  Al8  1  0.62194200  0.13012300  0.62194200  1
  Al  Al9  1  0.74991100  0.74991100  0.74991100  1
  Al  Al10  1  0.13012300  0.62194200  0.62194200  1
  Al  Al11  1  0.87504600  0.37525200  0.87504600  1
  Al  Al12  1  0.62194200  0.62194200  0.13012300  1
  Al  Al13  1  0.00023500  0.00023500  0.00023500  1
  Al  Al14  1  0.37525200  0.87504600  0.87504600  1
  Al  Al15  1  0.12478900  0.62587500  0.12478900  1
  Al  Al16  1  0.87504600  0.87504600  0.37525200  1
  Al  Al17  1  0.25049500  0.25049500  0.25049500  1
  Al  Al18  1  0.62587500  0.12478900  0.12478900  1
  Al  Al19  1  0.12478900  0.12478900  0.62587500  1
  Al  Al20  1  0.37284800  0.88006400  0.37284800  1
  Al  Al21  1  0.88006400  0.37284800  0.37284800  1
  Al  Al22  1  0.37284800  0.37284800  0.88006400  1
  Al  Al23  1  0.84441300  0.84441300  0.84441300  1
  O  O24  1  0.32246100  0.78344400  0.32246100  1
  O  O25  1  0.44004300  0.44004300  0.44004300  1
  O  O26  1  0.78344400  0.32246100  0.32246100  1
  O  O27  1  0.32246100  0.32246100  0.78344400  1
  O  O28  1  0.91815500  0.91815500  0.48037800  1
  O  O29  1  0.57965500  0.02470000  0.57965500  1
  O  O30  1  0.48037800  0.91815500  0.91815500  1
  O  O31  1  0.69090600  0.69090600  0.69090600  1
  O  O32  1  0.81220600  0.81220600  0.81220600  1
  O  O33  1  0.02470000  0.57965500  0.57965500  1
  O  O34  1  0.57965500  0.57965500  0.02470000  1
  O  O35  1  0.91815500  0.48037800  0.91815500  1
  O  O36  1  0.82937600  0.27514200  0.82937600  1
  O  O37  1  0.17041900  0.17041900  0.72506200  1
  O  O38  1  0.05940000  0.05940000  0.05940000  1
  O  O39  1  0.72506200  0.17041900  0.17041900  1
  O  O40  1  0.94084600  0.94084600  0.94084600  1
  O  O41  1  0.27514200  0.82937600  0.82937600  1
  O  O42  1  0.82937600  0.82937600  0.27514200  1
  O  O43  1  0.17041900  0.72506200  0.17041900  1
  O  O44  1  0.08078700  0.52349400  0.08078700  1
  O  O45  1  0.42078200  0.42078200  0.97415800  1
  O  O46  1  0.97415800  0.42078200  0.42078200  1
  O  O47  1  0.30900900  0.30900900  0.30900900  1
  O  O48  1  0.19070500  0.19070500  0.19070500  1
  O  O49  1  0.52349400  0.08078700  0.08078700  1
  O  O50  1  0.08078700  0.08078700  0.52349400  1
  O  O51  1  0.42078200  0.97415800  0.42078200  1
  O  O52  1  0.68607200  0.68607200  0.19648400  1
  O  O53  1  0.55807900  0.55807900  0.55807900  1
  O  O54  1  0.19648400  0.68607200  0.68607200  1
  O  O55  1  0.68607200  0.19648400  0.68607200  1
