# generated using pymatgen
data_NbSe3
_symmetry_space_group_name_H-M   'P 1'
_cell_length_a   3.51524800
_cell_length_b   10.74946300
_cell_length_c   15.84325968
_cell_angle_alpha   71.34901123
_cell_angle_beta   90.00000000
_cell_angle_gamma   90.00000000
_symmetry_Int_Tables_number   1
_chemical_formula_structural   NbSe3
_chemical_formula_sum   'Nb6 Se18'
_cell_volume   567.23007530
_cell_formula_units_Z   6
loop_
 _symmetry_equiv_pos_site_id
 _symmetry_equiv_pos_as_xyz
  1  'x, y, z'
loop_
 _atom_site_type_symbol
 _atom_site_label
 _atom_site_symmetry_multiplicity
 _atom_site_fract_x
 _atom_site_fract_y
 _atom_site_fract_z
 _atom_site_occupancy
  Nb  Nb0  1  0.25000000  0.69431600  0.46265400  1
  Nb  Nb1  1  0.75000000  0.30568400  0.53734600  1
  Nb  Nb2  1  0.25000000  0.33614100  0.78891400  1
  Nb  Nb3  1  0.75000000  0.66385900  0.21108600  1
  Nb  Nb4  1  0.25000000  0.35214600  0.11551300  1
  Nb  Nb5  1  0.75000000  0.64785400  0.88448700  1
  Se  Se6  1  0.25000000  0.25711100  0.42386600  1
  Se  Se7  1  0.75000000  0.74288900  0.57613400  1
  Se  Se8  1  0.25000000  0.44865600  0.59294900  1
  Se  Se9  1  0.75000000  0.55134400  0.40705100  1
  Se  Se10  1  0.25000000  0.10778500  0.57442600  1
  Se  Se11  1  0.75000000  0.89221500  0.42557400  1
  Se  Se12  1  0.75000000  0.54992500  0.06895000  1
  Se  Se13  1  0.25000000  0.45007500  0.93105000  1
  Se  Se14  1  0.75000000  0.18786200  0.07869700  1
  Se  Se15  1  0.25000000  0.81213800  0.92130300  1
  Se  Se16  1  0.75000000  0.20776100  0.23270100  1
  Se  Se17  1  0.25000000  0.79223900  0.76729900  1
  Se  Se18  1  0.75000000  0.19372000  0.90540200  1
  Se  Se19  1  0.25000000  0.80628000  0.09459800  1
  Se  Se20  1  0.75000000  0.20511100  0.72013600  1
  Se  Se21  1  0.25000000  0.79488900  0.27986400  1
  Se  Se22  1  0.75000000  0.53369200  0.75034400  1
  Se  Se23  1  0.25000000  0.46630800  0.24965600  1
