# generated using pymatgen
data_MnAsO4
_symmetry_space_group_name_H-M   'P 1'
_cell_length_a   5.07503600
_cell_length_b   6.14778800
_cell_length_c   10.28209400
_cell_angle_alpha   90.00001489
_cell_angle_beta   90.00015704
_cell_angle_gamma   90.00005054
_symmetry_Int_Tables_number   1
_chemical_formula_structural   MnAsO4
_chemical_formula_sum   'Mn4 As4 O16'
_cell_volume   320.80385623
_cell_formula_units_Z   4
loop_
 _symmetry_equiv_pos_site_id
 _symmetry_equiv_pos_as_xyz
  1  'x, y, z'
loop_
 _atom_site_type_symbol
 _atom_site_label
 _atom_site_symmetry_multiplicity
 _atom_site_fract_x
 _atom_site_fract_y
 _atom_site_fract_z
 _atom_site_occupancy
  Mn  Mn0  1  0.56157900  0.25000000  0.78106300  1
  Mn  Mn1  1  0.06156900  0.75000500  0.71893800  1
  Mn  Mn2  1  0.93844800  0.24999500  0.28105200  1
  Mn  Mn3  1  0.43844700  0.75000200  0.21894500  1
  As  As4  1  0.42594200  0.25000000  0.09857100  1
  As  As5  1  0.07404900  0.25000000  0.59856800  1
  As  As6  1  0.92594300  0.74999900  0.40142800  1
  As  As7  1  0.57404700  0.75000000  0.90143200  1
  O  O8  1  0.14678500  0.25000000  0.43579500  1
  O  O9  1  0.35324000  0.25000100  0.93580500  1
  O  O10  1  0.85323800  0.75000000  0.56419400  1
  O  O11  1  0.64678300  0.75000000  0.06420600  1
  O  O12  1  0.76201200  0.25000000  0.11681000  1
  O  O13  1  0.73797900  0.25000100  0.61680200  1
  O  O14  1  0.26201100  0.75000000  0.38319100  1
  O  O15  1  0.23798000  0.74999900  0.88319700  1
  O  O16  1  0.26544500  0.03828000  0.17700800  1
  O  O17  1  0.23454100  0.03828300  0.67699800  1
  O  O18  1  0.26544600  0.46171600  0.17700800  1
  O  O19  1  0.23453900  0.46171800  0.67699800  1
  O  O20  1  0.73454100  0.53828400  0.82300300  1
  O  O21  1  0.76544700  0.53828100  0.32299300  1
  O  O22  1  0.76544700  0.96171800  0.32299400  1
  O  O23  1  0.73454000  0.96171600  0.82300100  1
