# generated using pymatgen
data_Y6Zr22O53
_symmetry_space_group_name_H-M   'P 1'
_cell_length_a   3.62743900
_cell_length_b   3.73140900
_cell_length_c   74.42937500
_cell_angle_alpha   90.00000000
_cell_angle_beta   90.00000000
_cell_angle_gamma   90.00000000
_symmetry_Int_Tables_number   1
_chemical_formula_structural   Y6Zr22O53
_chemical_formula_sum   'Y6 Zr22 O53'
_cell_volume   1007.43571884
_cell_formula_units_Z   1
loop_
 _symmetry_equiv_pos_site_id
 _symmetry_equiv_pos_as_xyz
  1  'x, y, z'
loop_
 _atom_site_type_symbol
 _atom_site_label
 _atom_site_symmetry_multiplicity
 _atom_site_fract_x
 _atom_site_fract_y
 _atom_site_fract_z
 _atom_site_occupancy
  Y  Y0  1  0.50000000  0.50000000  0.60407400  1
  Y  Y1  1  0.50000000  0.50000000  0.74797300  1
  Y  Y2  1  0.50000000  0.50000000  0.68100600  1
  Y  Y3  1  0.50000000  0.50000000  0.89120000  1
  Y  Y4  1  0.50000000  0.50000000  0.82423900  1
  Y  Y5  1  0.50000000  0.50000000  0.96686900  1
  Zr  Zr6  1  0.00000000  0.00000000  0.00136600  1
  Zr  Zr7  1  0.50000000  0.50000000  0.10729800  1
  Zr  Zr8  1  0.50000000  0.50000000  0.03632000  1
  Zr  Zr9  1  0.50000000  0.50000000  0.25008000  1
  Zr  Zr10  1  0.50000000  0.50000000  0.17862700  1
  Zr  Zr11  1  0.50000000  0.50000000  0.39313800  1
  Zr  Zr12  1  0.50000000  0.50000000  0.32159000  1
  Zr  Zr13  1  0.50000000  0.50000000  0.46456800  1
  Zr  Zr14  1  0.50000000  0.50000000  0.53538300  1
  Zr  Zr15  1  0.00000000  0.00000000  0.07209100  1
  Zr  Zr16  1  0.00000000  0.00000000  0.14330900  1
  Zr  Zr17  1  0.00000000  0.00000000  0.28621100  1
  Zr  Zr18  1  0.00000000  0.00000000  0.35774500  1
  Zr  Zr19  1  0.00000000  0.00000000  0.21472200  1
  Zr  Zr20  1  0.00000000  0.00000000  0.50039700  1
  Zr  Zr21  1  0.00000000  0.00000000  0.57047000  1
  Zr  Zr22  1  0.00000000  0.00000000  0.42925700  1
  Zr  Zr23  1  0.00000000  0.00000000  0.63919900  1
  Zr  Zr24  1  0.00000000  0.00000000  0.71459300  1
  Zr  Zr25  1  0.00000000  0.00000000  0.78285300  1
  Zr  Zr26  1  0.00000000  0.00000000  0.92612200  1
  Zr  Zr27  1  0.00000000  0.00000000  0.85780700  1
  O  O28  1  0.00000000  0.50000000  0.01483100  1
  O  O29  1  0.00000000  0.50000000  0.05008500  1
  O  O30  1  0.00000000  0.50000000  0.08530600  1
  O  O31  1  0.00000000  0.50000000  0.12094600  1
  O  O32  1  0.00000000  0.50000000  0.15645400  1
  O  O33  1  0.00000000  0.50000000  0.19224300  1
  O  O34  1  0.00000000  0.50000000  0.26368500  1
  O  O35  1  0.00000000  0.50000000  0.29933000  1
  O  O36  1  0.00000000  0.50000000  0.33519700  1
  O  O37  1  0.00000000  0.50000000  0.37087900  1
  O  O38  1  0.00000000  0.50000000  0.40679100  1
  O  O39  1  0.00000000  0.50000000  0.47845800  1
  O  O40  1  0.00000000  0.50000000  0.55027300  1
  O  O41  1  0.00000000  0.50000000  0.62913000  1
  O  O42  1  0.00000000  0.50000000  0.69597700  1
  O  O43  1  0.00000000  0.50000000  0.77304600  1
  O  O44  1  0.00000000  0.50000000  0.83910200  1
  O  O45  1  0.00000000  0.50000000  0.91614500  1
  O  O46  1  0.00000000  0.50000000  0.98038600  1
  O  O47  1  0.50000000  0.00000000  0.02225400  1
  O  O48  1  0.50000000  0.00000000  0.09343500  1
  O  O49  1  0.50000000  0.00000000  0.16482100  1
  O  O50  1  0.50000000  0.00000000  0.23629100  1
  O  O51  1  0.50000000  0.00000000  0.30780400  1
  O  O52  1  0.50000000  0.00000000  0.37932800  1
  O  O53  1  0.50000000  0.00000000  0.52072600  1
  O  O54  1  0.50000000  0.00000000  0.58832800  1
  O  O55  1  0.50000000  0.00000000  0.65972400  1
  O  O56  1  0.50000000  0.00000000  0.45060200  1
  O  O57  1  0.50000000  0.00000000  0.73164900  1
  O  O58  1  0.50000000  0.00000000  0.80314900  1
  O  O59  1  0.50000000  0.00000000  0.87496600  1
  O  O60  1  0.50000000  0.00000000  0.94659600  1
  O  O61  1  0.50000000  0.00000000  0.12899800  1
  O  O62  1  0.50000000  0.00000000  0.05768400  1
  O  O63  1  0.50000000  0.00000000  0.20044000  1
  O  O64  1  0.50000000  0.00000000  0.27193800  1
  O  O65  1  0.50000000  0.00000000  0.34346600  1
  O  O66  1  0.50000000  0.00000000  0.48575000  1
  O  O67  1  0.50000000  0.00000000  0.62447800  1
  O  O68  1  0.50000000  0.00000000  0.41492100  1
  O  O69  1  0.50000000  0.00000000  0.55462700  1
  O  O70  1  0.50000000  0.00000000  0.76798100  1
  O  O71  1  0.50000000  0.00000000  0.69793700  1
  O  O72  1  0.50000000  0.00000000  0.84123900  1
  O  O73  1  0.50000000  0.00000000  0.91135900  1
  O  O74  1  0.50000000  0.00000000  0.98661100  1
  O  O75  1  0.00000000  0.50000000  0.22784500  1
  O  O76  1  0.00000000  0.50000000  0.44250900  1
  O  O77  1  0.00000000  0.50000000  0.51418800  1
  O  O78  1  0.00000000  0.50000000  0.58601800  1
  O  O79  1  0.00000000  0.50000000  0.73079900  1
  O  O80  1  0.00000000  0.50000000  0.87390900  1
