# generated using pymatgen
data_Ho2CdS4
_symmetry_space_group_name_H-M   'P 1'
_cell_length_a   7.94845272
_cell_length_b   7.94845272
_cell_length_c   33.03095421
_cell_angle_alpha   82.79262785
_cell_angle_beta   82.79262785
_cell_angle_gamma   60.58567434
_symmetry_Int_Tables_number   1
_chemical_formula_structural   Ho2CdS4
_chemical_formula_sum   'Ho20 Cd10 S40'
_cell_volume   1798.52432276
_cell_formula_units_Z   10
loop_
 _symmetry_equiv_pos_site_id
 _symmetry_equiv_pos_as_xyz
  1  'x, y, z'
loop_
 _atom_site_type_symbol
 _atom_site_label
 _atom_site_symmetry_multiplicity
 _atom_site_fract_x
 _atom_site_fract_y
 _atom_site_fract_z
 _atom_site_occupancy
  Ho  Ho0  1  0.00394300  0.00394300  0.99931400  1
  Ho  Ho1  1  0.38031400  0.87270200  0.87538300  1
  Ho  Ho2  1  0.40439400  0.40439400  0.79938700  1
  Ho  Ho3  1  0.87270200  0.38031400  0.87538300  1
  Ho  Ho4  1  0.67584900  0.67584900  0.97388300  1
  Ho  Ho5  1  0.78040400  0.27271400  0.67550300  1
  Ho  Ho6  1  0.27271400  0.78040400  0.67550300  1
  Ho  Ho7  1  0.80438000  0.80438000  0.59950200  1
  Ho  Ho8  1  0.07580900  0.07580900  0.77391400  1
  Ho  Ho9  1  0.18065300  0.67274200  0.47563000  1
  Ho  Ho10  1  0.67274200  0.18065300  0.47563000  1
  Ho  Ho11  1  0.47551900  0.47551900  0.57421100  1
  Ho  Ho12  1  0.57779400  0.07418500  0.27377700  1
  Ho  Ho13  1  0.07418500  0.57779400  0.27377700  1
  Ho  Ho14  1  0.87276100  0.87276100  0.37421100  1
  Ho  Ho15  1  0.07444200  0.07444200  0.27380900  1
  Ho  Ho16  1  0.97714800  0.47290700  0.07590800  1
  Ho  Ho17  1  0.20295800  0.20295800  0.40029700  1
  Ho  Ho18  1  0.27806400  0.27806400  0.17411300  1
  Ho  Ho19  1  0.47290700  0.97714800  0.07590800  1
  Cd  Cd20  1  0.34615700  0.34615700  0.95123100  1
  Cd  Cd21  1  0.74590300  0.74590300  0.75066400  1
  Cd  Cd22  1  0.87081900  0.87081900  0.87568400  1
  Cd  Cd23  1  0.14584400  0.14584400  0.55094400  1
  Cd  Cd24  1  0.27058200  0.27058200  0.67586900  1
  Cd  Cd25  1  0.54818500  0.54818500  0.35041700  1
  Cd  Cd26  1  0.67027500  0.67027500  0.47608600  1
  Cd  Cd27  1  0.94770300  0.94770300  0.14893100  1
  Cd  Cd28  1  0.60194300  0.60194300  0.19826900  1
  Cd  Cd29  1  0.47281200  0.47281200  0.07674300  1
  S  S30  1  0.53511800  0.53511800  0.92346000  1
  S  S31  1  0.53245700  0.00618300  0.92396200  1
  S  S32  1  0.72180400  0.72180400  0.82928100  1
  S  S33  1  0.00618300  0.53245700  0.92396200  1
  S  S34  1  0.74753100  0.21460100  0.82635800  1
  S  S35  1  0.93506600  0.93506600  0.72339500  1
  S  S36  1  0.93257400  0.40586100  0.72385100  1
  S  S37  1  0.12179800  0.12179800  0.62920300  1
  S  S38  1  0.02780100  0.02780100  0.91979300  1
  S  S39  1  0.21460100  0.74753100  0.82635800  1
  S  S40  1  0.21500600  0.21500600  0.82639400  1
  S  S41  1  0.40586100  0.93257400  0.72385100  1
  S  S42  1  0.33507200  0.33507200  0.52332000  1
  S  S43  1  0.14753300  0.61487100  0.62620800  1
  S  S44  1  0.33276800  0.80600100  0.52372200  1
  S  S45  1  0.42786300  0.42786300  0.71977100  1
  S  S46  1  0.52144200  0.52144200  0.42886700  1
  S  S47  1  0.61487100  0.14753300  0.62620800  1
  S  S48  1  0.80600100  0.33276800  0.52372200  1
  S  S49  1  0.61498200  0.61498200  0.62628100  1
  S  S50  1  0.73526700  0.73526700  0.32318500  1
  S  S51  1  0.54662600  0.01519100  0.42636200  1
  S  S52  1  0.92362800  0.92362800  0.22953300  1
  S  S53  1  0.82782600  0.82782600  0.51971000  1
  S  S54  1  0.73666200  0.20341200  0.32350000  1
  S  S55  1  0.01519100  0.54662600  0.42636200  1
  S  S56  1  0.01391000  0.01391000  0.42627600  1
  S  S57  1  0.20341200  0.73666200  0.32350000  1
  S  S58  1  0.94544500  0.41376100  0.22696500  1
  S  S59  1  0.13579800  0.13579800  0.12419200  1
  S  S60  1  0.22688700  0.22688700  0.32024400  1
  S  S61  1  0.32274100  0.32274100  0.03007200  1
  S  S62  1  0.13126700  0.60613200  0.12429800  1
  S  S63  1  0.41376100  0.94544500  0.22696500  1
  S  S64  1  0.41486500  0.41486500  0.22729800  1
  S  S65  1  0.60613200  0.13126700  0.12429800  1
  S  S66  1  0.34705400  0.81538400  0.02625800  1
  S  S67  1  0.62724000  0.62724000  0.12025800  1
  S  S68  1  0.81538400  0.34705400  0.02625800  1
  S  S69  1  0.81467000  0.81467000  0.02662100  1
