# generated using pymatgen
data_TiNiO3
_symmetry_space_group_name_H-M   'P 1'
_cell_length_a   5.50517938
_cell_length_b   5.49939771
_cell_length_c   33.01173662
_cell_angle_alpha   55.03462497
_cell_angle_beta   54.94943479
_cell_angle_gamma   54.94504403
_symmetry_Int_Tables_number   1
_chemical_formula_structural   TiNiO3
_chemical_formula_sum   'Ti12 Ni12 O36'
_cell_volume   624.09541268
_cell_formula_units_Z   12
loop_
 _symmetry_equiv_pos_site_id
 _symmetry_equiv_pos_as_xyz
  1  'x, y, z'
loop_
 _atom_site_type_symbol
 _atom_site_label
 _atom_site_symmetry_multiplicity
 _atom_site_fract_x
 _atom_site_fract_y
 _atom_site_fract_z
 _atom_site_occupancy
  Ti  Ti0  1  0.15074500  0.14581100  0.19055400  1
  Ti  Ti1  1  0.14675000  0.14554300  0.35627500  1
  Ti  Ti2  1  0.87348800  0.86426300  0.13974800  1
  Ti  Ti3  1  0.14594800  0.14557000  0.52298600  1
  Ti  Ti4  1  0.86152300  0.85899300  0.30857200  1
  Ti  Ti5  1  0.14694600  0.14926200  0.68955300  1
  Ti  Ti6  1  0.86040300  0.85942700  0.47518100  1
  Ti  Ti7  1  0.14313000  0.14002500  0.85804800  1
  Ti  Ti8  1  0.86024100  0.86046700  0.64202800  1
  Ti  Ti9  1  0.86849100  0.85495400  0.80804700  1
  Ti  Ti10  1  0.63691000  0.64726700  0.94556100  1
  Ti  Ti11  1  0.82409500  0.86014700  0.98110000  1
  Ni  Ni12  1  0.14546300  0.15026300  0.02623800  1
  Ni  Ni13  1  0.33863100  0.35643700  0.06189000  1
  Ni  Ni14  1  0.35605300  0.35116800  0.22455200  1
  Ni  Ni15  1  0.65577200  0.65143800  0.11083100  1
  Ni  Ni16  1  0.35240600  0.35148200  0.39091100  1
  Ni  Ni17  1  0.65393300  0.65369200  0.27386800  1
  Ni  Ni18  1  0.35136400  0.35122900  0.55778200  1
  Ni  Ni19  1  0.65140400  0.65164800  0.44118900  1
  Ni  Ni20  1  0.35277000  0.34989300  0.72524300  1
  Ni  Ni21  1  0.65146400  0.65221100  0.60793100  1
  Ni  Ni22  1  0.35598400  0.35030200  0.89149100  1
  Ni  Ni23  1  0.65128100  0.65232700  0.77497900  1
  O  O24  1  0.04978000  0.75648200  0.07692100  1
  O  O25  1  0.44139500  0.05852900  0.12826300  1
  O  O26  1  0.75616100  0.46851000  0.00489200  1
  O  O27  1  0.23602000  0.56684700  0.15831300  1
  O  O28  1  0.57465900  0.95181800  0.03957700  1
  O  O29  1  0.05379300  0.77082700  0.24051500  1
  O  O30  1  0.94544700  0.24684300  0.09388500  1
  O  O31  1  0.43865000  0.05148600  0.29513700  1
  O  O32  1  0.77286100  0.43431700  0.17759400  1
  O  O33  1  0.23172200  0.55950300  0.32501800  1
  O  O34  1  0.56556100  0.94855000  0.20483600  1
  O  O35  1  0.05133100  0.76926900  0.40726200  1
  O  O36  1  0.94910700  0.23047800  0.26142900  1
  O  O37  1  0.43675400  0.05214100  0.46177900  1
  O  O38  1  0.77051800  0.43530800  0.34252100  1
  O  O39  1  0.23000400  0.55959900  0.49184000  1
  O  O40  1  0.56124700  0.94662000  0.37206900  1
  O  O41  1  0.05117800  0.76933800  0.57404200  1
  O  O42  1  0.94596200  0.23056200  0.42800100  1
  O  O43  1  0.43695300  0.05282700  0.62860300  1
  O  O44  1  0.76926900  0.43450500  0.50945500  1
  O  O45  1  0.23039500  0.56005900  0.65877000  1
  O  O46  1  0.56072000  0.94657800  0.53876100  1
  O  O47  1  0.05296700  0.77057400  0.74082100  1
  O  O48  1  0.94583600  0.23127200  0.59473000  1
  O  O49  1  0.43972500  0.05267300  0.79589400  1
  O  O50  1  0.76988900  0.43561600  0.67621700  1
  O  O51  1  0.23472300  0.55919000  0.82490700  1
  O  O52  1  0.56264500  0.94759000  0.70546500  1
  O  O53  1  0.05664900  0.76839700  0.90463600  1
  O  O54  1  0.94824300  0.22967400  0.76170600  1
  O  O55  1  0.46725400  0.04323800  0.95727600  1
  O  O56  1  0.77524700  0.43317800  0.84223800  1
  O  O57  1  0.25185600  0.58811400  0.98534200  1
  O  O58  1  0.56790400  0.93073500  0.87469500  1
  O  O59  1  0.92958100  0.25213200  0.92823000  1
