# generated using pymatgen
data_YbZr3F15
_symmetry_space_group_name_H-M   'P 1'
_cell_length_a   8.20667100
_cell_length_b   8.25543405
_cell_length_c   16.41002098
_cell_angle_alpha   99.50742622
_cell_angle_beta   99.44858915
_cell_angle_gamma   99.49237475
_symmetry_Int_Tables_number   1
_chemical_formula_structural   YbZr3F15
_chemical_formula_sum   'Yb4 Zr12 F60'
_cell_volume   1060.34617457
_cell_formula_units_Z   4
loop_
 _symmetry_equiv_pos_site_id
 _symmetry_equiv_pos_as_xyz
  1  'x, y, z'
loop_
 _atom_site_type_symbol
 _atom_site_label
 _atom_site_symmetry_multiplicity
 _atom_site_fract_x
 _atom_site_fract_y
 _atom_site_fract_z
 _atom_site_occupancy
  Yb  Yb0  1  0.31966200  0.17975100  0.87407600  1
  Yb  Yb1  1  0.24817600  0.68076000  0.40831700  1
  Yb  Yb2  1  0.75182400  0.31924000  0.59168300  1
  Yb  Yb3  1  0.68033800  0.82024900  0.12592400  1
  Zr  Zr4  1  0.24886500  0.68095400  0.91178600  1
  Zr  Zr5  1  0.17922600  0.74793600  0.66031400  1
  Zr  Zr6  1  0.24981200  0.25026700  0.62661500  1
  Zr  Zr7  1  0.18036900  0.74956900  0.16024000  1
  Zr  Zr8  1  0.32025200  0.18413500  0.37505900  1
  Zr  Zr9  1  0.25153300  0.24953200  0.12324400  1
  Zr  Zr10  1  0.74846700  0.75046800  0.87675600  1
  Zr  Zr11  1  0.67974800  0.81586500  0.62494100  1
  Zr  Zr12  1  0.81963100  0.25043100  0.83976000  1
  Zr  Zr13  1  0.75018800  0.74973300  0.37338500  1
  Zr  Zr14  1  0.82077400  0.25206400  0.33968600  1
  Zr  Zr15  1  0.75113500  0.31904600  0.08821400  1
  F  F16  1  0.00545900  0.77058800  0.88513500  1
  F  F17  1  0.03890900  0.46614100  0.87891800  1
  F  F18  1  0.03312600  0.15609300  0.84007500  1
  F  F19  1  0.00227200  0.78050100  0.38959200  1
  F  F20  1  0.18884700  0.65436700  0.77750300  1
  F  F21  1  0.24512700  0.95078200  0.76272100  1
  F  F22  1  0.31189100  0.93431200  0.92273900  1
  F  F23  1  0.02525000  0.45237000  0.36814900  1
  F  F24  1  0.21851800  0.22312100  0.99915600  1
  F  F25  1  0.22604300  0.99192400  0.61439100  1
  F  F26  1  0.15700400  0.69056300  0.53349800  1
  F  F27  1  0.05090600  0.15599900  0.34357200  1
  F  F28  1  0.34240000  0.46522400  0.91004800  1
  F  F29  1  0.27414100  0.28018700  0.75136300  1
  F  F30  1  0.27623400  0.50896500  0.63956600  1
  F  F31  1  0.17850900  0.65669000  0.26590100  1
  F  F32  1  0.25095700  0.96786000  0.27037000  1
  F  F33  1  0.31994000  0.96592800  0.42002500  1
  F  F34  1  0.22431900  0.22529500  0.49550400  1
  F  F35  1  0.22526100  0.99570300  0.11245700  1
  F  F36  1  0.14988400  0.68665900  0.02509700  1
  F  F37  1  0.49324100  0.72355700  0.85891000  1
  F  F38  1  0.45013200  0.80990800  0.67280500  1
  F  F39  1  0.34571000  0.43662100  0.40573400  1
  F  F40  1  0.27223900  0.27083900  0.25312300  1
  F  F41  1  0.27240400  0.50392500  0.13459000  1
  F  F42  1  0.54584100  0.25484900  0.98750300  1
  F  F43  1  0.47179400  0.75401500  0.52274500  1
  F  F44  1  0.56697400  0.18487800  0.82682100  1
  F  F45  1  0.49895400  0.72720700  0.36254800  1
  F  F46  1  0.50104600  0.27279300  0.63745200  1
  F  F47  1  0.43302600  0.81512200  0.17317900  1
  F  F48  1  0.52820600  0.24598500  0.47725500  1
  F  F49  1  0.45415900  0.74515100  0.01249700  1
  F  F50  1  0.72759600  0.49607500  0.86541000  1
  F  F51  1  0.72776100  0.72916100  0.74687700  1
  F  F52  1  0.65429000  0.56337900  0.59426600  1
  F  F53  1  0.54986800  0.19009200  0.32719500  1
  F  F54  1  0.50675900  0.27644300  0.14109000  1
  F  F55  1  0.85011600  0.31334100  0.97490300  1
  F  F56  1  0.77473900  0.00429700  0.88754300  1
  F  F57  1  0.77568100  0.77470500  0.50449600  1
  F  F58  1  0.68006000  0.03407200  0.57997500  1
  F  F59  1  0.74904300  0.03214000  0.72963000  1
  F  F60  1  0.82149100  0.34331000  0.73409900  1
  F  F61  1  0.72376600  0.49103500  0.36043400  1
  F  F62  1  0.72585900  0.71981300  0.24863700  1
  F  F63  1  0.65760000  0.53477600  0.08995200  1
  F  F64  1  0.94909400  0.84400100  0.65642800  1
  F  F65  1  0.84299600  0.30943700  0.46650200  1
  F  F66  1  0.77395700  0.00807600  0.38560900  1
  F  F67  1  0.78148200  0.77687900  0.00084400  1
  F  F68  1  0.97475000  0.54763000  0.63185100  1
  F  F69  1  0.68810900  0.06568800  0.07726100  1
  F  F70  1  0.75487300  0.04921800  0.23727900  1
  F  F71  1  0.81115300  0.34563300  0.22249700  1
  F  F72  1  0.99772800  0.21949900  0.61040800  1
  F  F73  1  0.96687400  0.84390700  0.15992500  1
  F  F74  1  0.96109100  0.53385900  0.12108200  1
  F  F75  1  0.99454100  0.22941200  0.11486500  1
