# generated using pymatgen
data_Ti11Fe13O36
_symmetry_space_group_name_H-M   'P 1'
_cell_length_a   5.59520100
_cell_length_b   10.32905781
_cell_length_c   11.71034273
_cell_angle_alpha   102.30725734
_cell_angle_beta   97.98894399
_cell_angle_gamma   89.22339505
_symmetry_Int_Tables_number   1
_chemical_formula_structural   Ti11Fe13O36
_chemical_formula_sum   'Ti11 Fe13 O36'
_cell_volume   654.71676068
_cell_formula_units_Z   1
loop_
 _symmetry_equiv_pos_site_id
 _symmetry_equiv_pos_as_xyz
  1  'x, y, z'
loop_
 _atom_site_type_symbol
 _atom_site_label
 _atom_site_symmetry_multiplicity
 _atom_site_fract_x
 _atom_site_fract_y
 _atom_site_fract_z
 _atom_site_occupancy
  Ti  Ti0  1  0.82752000  0.06123200  0.23765500  1
  Ti  Ti1  1  0.67044000  0.69269500  0.76491600  1
  Ti  Ti2  1  0.67089600  0.19229700  0.76443700  1
  Ti  Ti3  1  0.99407400  0.14066800  0.57250600  1
  Ti  Ti4  1  0.34337500  0.52031300  0.09393300  1
  Ti  Ti5  1  0.66165700  0.47646800  0.90077700  1
  Ti  Ti6  1  0.00966400  0.85715300  0.43670600  1
  Ti  Ti7  1  0.32635300  0.31607100  0.23906400  1
  Ti  Ti8  1  0.33313500  0.80496700  0.23043000  1
  Ti  Ti9  1  0.98566700  0.63731100  0.56863500  1
  Ti  Ti10  1  0.65267700  0.97753700  0.90286000  1
  Fe  Fe11  1  0.33784800  0.02363400  0.09768200  1
  Fe  Fe12  1  0.01506700  0.35942800  0.43132700  1
  Fe  Fe13  1  0.49885500  0.39260700  0.56846500  1
  Fe  Fe14  1  0.50580100  0.10741500  0.42830300  1
  Fe  Fe15  1  0.16311500  0.22366800  0.90474900  1
  Fe  Fe16  1  0.15873100  0.72835100  0.90593600  1
  Fe  Fe17  1  0.17257900  0.43976400  0.76097300  1
  Fe  Fe18  1  0.83563400  0.55720200  0.23851100  1
  Fe  Fe19  1  0.83407800  0.27120000  0.09487500  1
  Fe  Fe20  1  0.84036800  0.77487800  0.09741700  1
  Fe  Fe21  1  0.49255600  0.89411800  0.57222400  1
  Fe  Fe22  1  0.50392300  0.61101100  0.42843200  1
  Fe  Fe23  1  0.16958900  0.93813100  0.76410000  1
  O  O24  1  0.86235900  0.17326700  0.38801100  1
  O  O25  1  0.07482000  0.12940100  0.17156300  1
  O  O26  1  0.23419300  0.02861700  0.50780700  1
  O  O27  1  0.35278400  0.27755600  0.39003200  1
  O  O28  1  0.52792100  0.02330200  0.73825800  1
  O  O29  1  0.52939100  0.52214700  0.73902600  1
  O  O30  1  0.65988200  0.21959600  0.60903700  1
  O  O31  1  0.76142500  0.47698800  0.49719100  1
  O  O32  1  0.89897100  0.35931000  0.84009400  1
  O  O33  1  0.01523400  0.61577800  0.72587700  1
  O  O34  1  0.01556700  0.11119000  0.72367500  1
  O  O35  1  0.19996800  0.35268000  0.07291100  1
  O  O36  1  0.18595700  0.84602200  0.07353700  1
  O  O37  1  0.14030900  0.30897700  0.59345700  1
  O  O38  1  0.31830200  0.05375400  0.93822500  1
  O  O39  1  0.31818000  0.55158700  0.94056400  1
  O  O40  1  0.43433700  0.30450900  0.82588800  1
  O  O41  1  0.43381200  0.80470500  0.82892200  1
  O  O42  1  0.56144000  0.19162600  0.17654800  1
  O  O43  1  0.57748400  0.69669100  0.17300600  1
  O  O44  1  0.67674900  0.44898900  0.05656500  1
  O  O45  1  0.68712800  0.95361500  0.06150800  1
  O  O46  1  0.85739300  0.69254400  0.40281700  1
  O  O47  1  0.80548700  0.64472900  0.92787300  1
  O  O48  1  0.80358300  0.14671600  0.93026400  1
  O  O49  1  0.99167000  0.38488800  0.26686100  1
  O  O50  1  0.98058800  0.90627400  0.27771900  1
  O  O51  1  0.11512000  0.63778700  0.16397800  1
  O  O52  1  0.22816100  0.53179400  0.50491300  1
  O  O53  1  0.33971200  0.78124700  0.38778900  1
  O  O54  1  0.47883300  0.47828200  0.26271900  1
  O  O55  1  0.48992400  0.97512500  0.25985700  1
  O  O56  1  0.64858200  0.72334000  0.61037200  1
  O  O57  1  0.76960100  0.97315800  0.49499600  1
  O  O58  1  0.89083400  0.86312600  0.83987800  1
  O  O59  1  0.13069700  0.81256400  0.59334900  1
