data_image0
_chemical_formula_structural       As4V4
_chemical_formula_sum              "As4 V4"
_cell_length_a       5.85298
_cell_length_b       6.25615
_cell_length_c       3.32446
_cell_angle_alpha    90
_cell_angle_beta     90
_cell_angle_gamma    90

_space_group_name_H-M_alt    "P 1"
_space_group_IT_number       1

loop_
  _space_group_symop_operation_xyz
  'x, y, z'

loop_
  _atom_site_type_symbol
  _atom_site_label
  _atom_site_symmetry_multiplicity
  _atom_site_fract_x
  _atom_site_fract_y
  _atom_site_fract_z
  _atom_site_occupancy
  As  As1       1.0  0.19300  0.57300  0.25900  1.0000
  As  As2       1.0  0.69300  0.92700  0.25900  1.0000
  As  As3       1.0  0.30700  0.07310  0.75900  1.0000
  As  As4       1.0  0.80700  0.42700  0.75900  1.0000
  V   V1        1.0  0.00511  0.18200  0.25900  1.0000
  V   V2        1.0  0.50500  0.31800  0.25900  1.0000
  V   V3        1.0  0.49500  0.68200  0.75900  1.0000
  V   V4        1.0  0.99500  0.81800  0.75900  1.0000
