# generated using pymatgen
data_Li9Ni23O32
_symmetry_space_group_name_H-M   'P 1'
_cell_length_a   5.86460910
_cell_length_b   5.88391979
_cell_length_c   23.55033036
_cell_angle_alpha   59.79227178
_cell_angle_beta   60.06226102
_cell_angle_gamma   60.20963949
_symmetry_Int_Tables_number   1
_chemical_formula_structural   Li9Ni23O32
_chemical_formula_sum   'Li9 Ni23 O32'
_cell_volume   574.89235463
_cell_formula_units_Z   1
loop_
 _symmetry_equiv_pos_site_id
 _symmetry_equiv_pos_as_xyz
  1  'x, y, z'
loop_
 _atom_site_type_symbol
 _atom_site_label
 _atom_site_symmetry_multiplicity
 _atom_site_fract_x
 _atom_site_fract_y
 _atom_site_fract_z
 _atom_site_occupancy
  Li  Li0  1  0.40121800  0.40970500  0.21876700  1
  Li  Li1  1  0.39349700  0.88922200  0.10053400  1
  Li  Li2  1  0.89038100  0.39105100  0.10250900  1
  Li  Li3  1  0.39388500  0.39908200  0.34696900  1
  Li  Li4  1  0.38635600  0.38987700  0.47777600  1
  Li  Li5  1  0.39706400  0.39150100  0.59867100  1
  Li  Li6  1  0.90014300  0.40140100  0.59536300  1
  Li  Li7  1  0.39740400  0.39551900  0.84814100  1
  Li  Li8  1  0.88795000  0.39609200  0.84857200  1
  Ni  Ni9  1  0.39275900  0.39201900  0.10026100  1
  Ni  Ni10  1  0.39778300  0.88807400  0.22330600  1
  Ni  Ni11  1  0.39686600  0.89379000  0.34868300  1
  Ni  Ni12  1  0.89174700  0.39528900  0.22330300  1
  Ni  Ni13  1  0.89375800  0.89212100  0.09916300  1
  Ni  Ni14  1  0.89802700  0.39563300  0.34804500  1
  Ni  Ni15  1  0.90252800  0.89549500  0.22166700  1
  Ni  Ni16  1  0.39203100  0.90024100  0.47379700  1
  Ni  Ni17  1  0.39467700  0.39609100  0.72329300  1
  Ni  Ni18  1  0.39503900  0.90056500  0.59737200  1
  Ni  Ni19  1  0.89255000  0.39545400  0.47577600  1
  Ni  Ni20  1  0.89931500  0.89049200  0.34873800  1
  Ni  Ni21  1  0.89158700  0.89864000  0.47384300  1
  Ni  Ni22  1  0.39365600  0.89523300  0.72377400  1
  Ni  Ni23  1  0.39306700  0.38657900  0.97424900  1
  Ni  Ni24  1  0.39346300  0.89592300  0.84829700  1
  Ni  Ni25  1  0.89477300  0.39624800  0.72310700  1
  Ni  Ni26  1  0.89304900  0.89539200  0.59811200  1
  Ni  Ni27  1  0.89518500  0.89569400  0.72323300  1
  Ni  Ni28  1  0.39442700  0.89282100  0.97371100  1
  Ni  Ni29  1  0.89739100  0.39278200  0.97244200  1
  Ni  Ni30  1  0.89353500  0.89921700  0.84874300  1
  Ni  Ni31  1  0.89001300  0.89016200  0.97579300  1
  O  O32  1  0.14902400  0.13425500  0.03229000  1
  O  O33  1  0.14899100  0.63714100  0.03590700  1
  O  O34  1  0.14686700  0.14443100  0.16387900  1
  O  O35  1  0.13651900  0.64184300  0.16053200  1
  O  O36  1  0.13378400  0.12675500  0.29026400  1
  O  O37  1  0.64438000  0.15046900  0.03570000  1
  O  O38  1  0.62525700  0.65427200  0.03104800  1
  O  O39  1  0.64383000  0.13714700  0.16133500  1
  O  O40  1  0.14152800  0.64541800  0.28492100  1
  O  O41  1  0.13597700  0.14044400  0.41234000  1
  O  O42  1  0.12639200  0.66362300  0.40796200  1
  O  O43  1  0.13992700  0.13846400  0.53725800  1
  O  O44  1  0.65058300  0.65056100  0.16248100  1
  O  O45  1  0.66905300  0.11919100  0.29050100  1
  O  O46  1  0.65212800  0.64859000  0.28600000  1
  O  O47  1  0.66618300  0.13097300  0.41464800  1
  O  O48  1  0.12598800  0.67668100  0.52951600  1
  O  O49  1  0.15938100  0.12689500  0.66554300  1
  O  O50  1  0.14475100  0.64656600  0.66107400  1
  O  O51  1  0.14112200  0.15245500  0.78662300  1
  O  O52  1  0.66177200  0.65800800  0.40735900  1
  O  O53  1  0.65074900  0.14115500  0.53595700  1
  O  O54  1  0.64741500  0.66285000  0.53214300  1
  O  O55  1  0.62790200  0.12473000  0.66660100  1
  O  O56  1  0.15628300  0.66548600  0.78206100  1
  O  O57  1  0.16114700  0.11584800  0.91725600  1
  O  O58  1  0.13972400  0.65049200  0.91254200  1
  O  O59  1  0.64439500  0.64006100  0.66124500  1
  O  O60  1  0.64728800  0.14347100  0.78551100  1
  O  O61  1  0.62988200  0.66464600  0.78152000  1
  O  O62  1  0.64732900  0.13431700  0.91428700  1
  O  O63  1  0.63679500  0.65282400  0.91205600  1
