# generated using pymatgen
data_MgSiO3
_symmetry_space_group_name_H-M   'P 1'
_cell_length_a   10.04867239
_cell_length_b   10.04867239
_cell_length_c   16.39652185
_cell_angle_alpha   89.97774463
_cell_angle_beta   89.97774463
_cell_angle_gamma   70.23121932
_symmetry_Int_Tables_number   1
_chemical_formula_structural   MgSiO3
_chemical_formula_sum   'Mg32 Si32 O96'
_cell_volume   1558.07648062
_cell_formula_units_Z   32
loop_
 _symmetry_equiv_pos_site_id
 _symmetry_equiv_pos_as_xyz
  1  'x, y, z'
loop_
 _atom_site_type_symbol
 _atom_site_label
 _atom_site_symmetry_multiplicity
 _atom_site_fract_x
 _atom_site_fract_y
 _atom_site_fract_z
 _atom_site_occupancy
  Mg  Mg0  1  0.99923500  0.25158900  0.12291000  1
  Mg  Mg1  1  0.00228800  0.75004300  0.12375400  1
  Mg  Mg2  1  0.75238800  0.24761200  0.00000000  1
  Mg  Mg3  1  0.74841100  0.00076500  0.87709000  1
  Mg  Mg4  1  0.70952000  0.92431600  0.05573700  1
  Mg  Mg5  1  0.83787400  0.55538400  0.06881000  1
  Mg  Mg6  1  0.94001400  0.19884600  0.30802500  1
  Mg  Mg7  1  0.75218600  0.74553900  0.25062300  1
  Mg  Mg8  1  0.49720300  0.25047400  0.62607900  1
  Mg  Mg9  1  0.24447600  0.75552400  0.50000000  1
  Mg  Mg10  1  0.44461600  0.16212600  0.93119000  1
  Mg  Mg11  1  0.19211000  0.44106100  0.56222900  1
  Mg  Mg12  1  0.31384500  0.06627200  0.56155100  1
  Mg  Mg13  1  0.43082400  0.70282600  0.80873300  1
  Mg  Mg14  1  0.56625700  0.32247800  0.31661400  1
  Mg  Mg15  1  0.25446100  0.24781400  0.74937700  1
  Mg  Mg16  1  0.00169700  0.74788400  0.62197600  1
  Mg  Mg17  1  0.25211600  0.99830300  0.37802400  1
  Mg  Mg18  1  0.24995700  0.99771200  0.87624600  1
  Mg  Mg19  1  0.24783900  0.75216100  0.00000000  1
  Mg  Mg20  1  0.93372800  0.68615500  0.43844900  1
  Mg  Mg21  1  0.07568400  0.29048000  0.94426300  1
  Mg  Mg22  1  0.16301200  0.94737900  0.18605700  1
  Mg  Mg23  1  0.29717400  0.56917600  0.19126700  1
  Mg  Mg24  1  0.05262100  0.83698800  0.81394300  1
  Mg  Mg25  1  0.24300300  0.23647600  0.25109100  1
  Mg  Mg26  1  0.74952600  0.50279700  0.37392100  1
  Mg  Mg27  1  0.74552900  0.25447100  0.50000000  1
  Mg  Mg28  1  0.55893900  0.80789000  0.43777100  1
  Mg  Mg29  1  0.67752200  0.43374300  0.68338600  1
  Mg  Mg30  1  0.80115400  0.05998600  0.69197500  1
  Mg  Mg31  1  0.76352400  0.75699700  0.74890900  1
  Si  Si32  1  0.06050500  0.81491100  0.31527400  1
  Si  Si33  1  0.00163000  0.49945400  0.25452400  1
  Si  Si34  1  0.80591000  0.06331700  0.19189800  1
  Si  Si35  1  0.56375100  0.32003700  0.81777400  1
  Si  Si36  1  0.49981500  0.25229500  0.12724200  1
  Si  Si37  1  0.74770500  0.50018500  0.87275800  1
  Si  Si38  1  0.50054600  0.99837000  0.74547600  1
  Si  Si39  1  0.50417900  0.99864500  0.24769800  1
  Si  Si40  1  0.56296600  0.80175800  0.94316400  1
  Si  Si41  1  0.30893500  0.56560900  0.68892200  1
  Si  Si42  1  0.67996300  0.43624900  0.18222600  1
  Si  Si43  1  0.25143500  0.50008300  0.37389800  1
  Si  Si44  1  0.50366300  0.74795200  0.12594300  1
  Si  Si45  1  0.32372700  0.06212000  0.06888400  1
  Si  Si46  1  0.43439100  0.69106500  0.31107800  1
  Si  Si47  1  0.49980400  0.50019600  0.00000000  1
  Si  Si48  1  0.00135500  0.49582100  0.75230200  1
  Si  Si49  1  0.06563400  0.31361700  0.43891900  1
  Si  Si50  1  0.18508900  0.93949500  0.68472600  1
  Si  Si51  1  0.99675500  0.25147500  0.62422300  1
  Si  Si52  1  0.25204800  0.49633700  0.87405700  1
  Si  Si53  1  0.81091600  0.56279000  0.56319000  1
  Si  Si54  1  0.19824200  0.43703400  0.05683600  1
  Si  Si55  1  0.93668300  0.19409000  0.80810200  1
  Si  Si56  1  0.99586200  0.00413800  0.50000000  1
  Si  Si57  1  0.00054600  0.99945400  0.00000000  1
  Si  Si58  1  0.93788000  0.67627300  0.93111600  1
  Si  Si59  1  0.49991700  0.74856500  0.62610200  1
  Si  Si60  1  0.74852500  0.00324500  0.37577700  1
  Si  Si61  1  0.68638300  0.93436600  0.56108100  1
  Si  Si62  1  0.49715700  0.50284300  0.50000000  1
  Si  Si63  1  0.43721000  0.18908400  0.43681000  1
  O  O64  1  0.09366900  0.96255600  0.31700100  1
  O  O65  1  0.94956300  0.10343300  0.18739200  1
  O  O66  1  0.14829900  0.20462600  0.36813700  1
  O  O67  1  0.83164600  0.01752400  0.99033600  1
  O  O68  1  0.89053000  0.84850500  0.34098900  1
  O  O69  1  0.89027100  0.73052300  0.02412400  1
  O  O70  1  0.02072900  0.33461300  0.23476900  1
  O  O71  1  0.92675200  0.60469700  0.17822700  1
  O  O72  1  0.82149600  0.90083100  0.16795200  1
  O  O73  1  0.60565300  0.46988500  0.81505200  1
  O  O74  1  0.89663500  0.58024500  0.32899000  1
  O  O75  1  0.68432200  0.15585900  0.12544900  1
  O  O76  1  0.62581000  0.20943100  0.89304100  1
  O  O77  1  0.45266500  0.61746900  0.68638900  1
  O  O78  1  0.52217600  0.33988200  0.03469900  1
  O  O79  1  0.62865200  0.93892100  0.31879200  1
  O  O80  1  0.59807600  0.94891100  0.94123600  1
  O  O81  1  0.79056900  0.37419000  0.10695900  1
  O  O82  1  0.64831000  0.68652600  0.87042900  1
  O  O83  1  0.73746900  0.38366300  0.27395200  1
  O  O84  1  0.61593100  0.75077500  0.03909000  1
  O  O85  1  0.56896600  0.87080600  0.17889100  1
  O  O86  1  0.64810000  0.60864000  0.16720600  1
  O  O87  1  0.33108900  0.52757500  0.46911600  1
  O  O88  1  0.39136000  0.35190000  0.83279400  1
  O  O89  1  0.46748800  0.11339000  0.07006800  1
  O  O90  1  0.59894300  0.67753200  0.32779700  1
  O  O91  1  0.66011800  0.47782400  0.96530100  1
  O  O92  1  0.37661400  0.25425200  0.52567000  1
  O  O93  1  0.52247200  0.82655500  0.72311600  1
  O  O94  1  0.76129500  0.10743100  0.28952100  1
  O  O95  1  0.41975500  0.10336500  0.67101000  1
  O  O96  1  0.32246800  0.40105700  0.67220300  1
  O  O97  1  0.39530300  0.07324800  0.82177300  1
  O  O98  1  0.20975900  0.64171800  0.61169900  1
  O  O99  1  0.24922500  0.38406900  0.96091000  1
  O  O100  1  0.13486800  0.68284100  0.38192300  1
  O  O101  1  0.34520000  0.01491700  0.27303500  1
  O  O102  1  0.40071200  0.81542100  0.91963800  1
  O  O103  1  0.53011500  0.39434700  0.18494800  1
  O  O104  1  0.36181300  0.88924300  0.08508500  1
  O  O105  1  0.44118800  0.62563000  0.06967300  1
  O  O106  1  0.39227200  0.73340000  0.21243000  1
  O  O107  1  0.26947700  0.10972900  0.97587600  1
  O  O108  1  0.01113500  0.83833600  0.51283300  1
  O  O109  1  0.12919400  0.43103400  0.82110900  1
  O  O110  1  0.12409500  0.45240600  0.43435700  1
  O  O111  1  0.31715900  0.86513200  0.61807700  1
  O  O112  1  0.20602900  0.12854000  0.13962000  1
  O  O113  1  0.38253100  0.54733500  0.31361100  1
  O  O114  1  0.37437000  0.55881200  0.93032700  1
  O  O115  1  0.48287900  0.16637900  0.22183700  1
  O  O116  1  0.24434500  0.88500000  0.77570900  1
  O  O117  1  0.10143100  0.27340400  0.53819000  1
  O  O118  1  0.06107900  0.37134800  0.68120800  1
  O  O119  1  0.15149500  0.10947000  0.65901100  1
  O  O120  1  0.96283000  0.58883600  0.55992400  1
  O  O121  1  0.09916900  0.17850400  0.83204800  1
  O  O122  1  0.16166400  0.98886500  0.48716700  1
  O  O123  1  0.36840600  0.31629700  0.36568900  1
  O  O124  1  0.26660000  0.60772800  0.78757000  1
  O  O125  1  0.31347400  0.35169000  0.12957100  1
  O  O126  1  0.10487300  0.91572100  0.92461600  1
  O  O127  1  0.18457900  0.59928800  0.08036200  1
  O  O128  1  0.08427900  0.89512700  0.07538400  1
  O  O129  1  0.72659600  0.89856900  0.46181000  1
  O  O130  1  0.98247600  0.16835400  0.00966400  1
  O  O131  1  0.11500000  0.75565500  0.22429100  1
  O  O132  1  0.83362100  0.51712100  0.77816300  1
  O  O133  1  0.90078600  0.33099600  0.42067400  1
  O  O134  1  0.03744400  0.90633100  0.68299900  1
  O  O135  1  0.11075700  0.63818700  0.91491500  1
  O  O136  1  0.17344500  0.47752800  0.27688400  1
  O  O137  1  0.84140000  0.39322800  0.58870700  1
  O  O138  1  0.92902900  0.13190300  0.56979000  1
  O  O139  1  0.89256900  0.23870500  0.71047900  1
  O  O140  1  0.74574800  0.62338600  0.47433000  1
  O  O141  1  0.84414100  0.31567800  0.87455100  1
  O  O142  1  0.68370300  0.63159400  0.63431100  1
  O  O143  1  0.89656700  0.05043700  0.81260800  1
  O  O144  1  0.86809700  0.07097100  0.43021000  1
  O  O145  1  0.98508300  0.65480000  0.72696500  1
  O  O146  1  0.05108900  0.40192400  0.05876400  1
  O  O147  1  0.87146000  0.79397100  0.86038000  1
  O  O148  1  0.79537400  0.85170100  0.63186300  1
  O  O149  1  0.60396400  0.42922100  0.42514800  1
  O  O150  1  0.88661000  0.53251200  0.92993200  1
  O  O151  1  0.66900400  0.09921400  0.57932600  1
  O  O152  1  0.57077900  0.39603600  0.57485200  1
  O  O153  1  0.47242500  0.66891100  0.53088400  1
  O  O154  1  0.61633700  0.26253100  0.72604800  1
  O  O155  1  0.60677200  0.15860000  0.41129300  1
  O  O156  1  0.66538700  0.97927100  0.76523100  1
  O  O157  1  0.35828200  0.79024100  0.38830100  1
  O  O158  1  0.54759400  0.87590500  0.56564300  1
  O  O159  1  0.41116400  0.03717000  0.44007600  1
