# generated using pymatgen
data_Ti3Fe9O16
_symmetry_space_group_name_H-M   'P 1'
_cell_length_a   6.04585552
_cell_length_b   12.08126773
_cell_length_c   15.94356903
_cell_angle_alpha   40.92860352
_cell_angle_beta   55.37109306
_cell_angle_gamma   59.75695670
_symmetry_Int_Tables_number   1
_chemical_formula_structural   Ti3Fe9O16
_chemical_formula_sum   'Ti6 Fe18 O32'
_cell_volume   621.76620205
_cell_formula_units_Z   2
loop_
 _symmetry_equiv_pos_site_id
 _symmetry_equiv_pos_as_xyz
  1  'x, y, z'
loop_
 _atom_site_type_symbol
 _atom_site_label
 _atom_site_symmetry_multiplicity
 _atom_site_fract_x
 _atom_site_fract_y
 _atom_site_fract_z
 _atom_site_occupancy
  Ti  Ti0  1  0.00000000  0.62500000  0.25000000  1
  Ti  Ti1  1  0.51360300  0.36692800  0.24908900  1
  Ti  Ti2  1  0.01609000  0.37009300  0.74730800  1
  Ti  Ti3  1  0.48639700  0.88307200  0.25091100  1
  Ti  Ti4  1  0.98391000  0.87990700  0.75269200  1
  Ti  Ti5  1  0.50000000  0.62500000  0.75000000  1
  Fe  Fe6  1  0.12188400  0.02728600  0.06456200  1
  Fe  Fe7  1  0.00000000  0.12500000  0.25000000  1
  Fe  Fe8  1  0.12118900  0.52910300  0.06425100  1
  Fe  Fe9  1  0.50000000  0.12500000  0.25000000  1
  Fe  Fe10  1  0.12232000  0.27791000  0.56174800  1
  Fe  Fe11  1  0.50771400  0.00031000  0.49730700  1
  Fe  Fe12  1  0.50000000  0.62500000  0.25000000  1
  Fe  Fe13  1  0.50000000  0.12500000  0.75000000  1
  Fe  Fe14  1  0.49898100  0.49686600  0.50252700  1
  Fe  Fe15  1  0.11922900  0.77901500  0.56727500  1
  Fe  Fe16  1  0.87811600  0.22271400  0.43543800  1
  Fe  Fe17  1  0.50226100  0.37231900  0.74885200  1
  Fe  Fe18  1  0.49228600  0.24969000  0.00269300  1
  Fe  Fe19  1  0.87881100  0.72089700  0.43574900  1
  Fe  Fe20  1  0.49773900  0.87768100  0.75114800  1
  Fe  Fe21  1  0.50101900  0.75313400  0.99747300  1
  Fe  Fe22  1  0.88077100  0.47098500  0.93272500  1
  Fe  Fe23  1  0.87768000  0.97209000  0.93825200  1
  O  O24  1  0.27116600  0.05011400  0.13081300  1
  O  O25  1  0.25431100  0.29906300  0.12997800  1
  O  O26  1  0.72777300  0.05165200  0.13370900  1
  O  O27  1  0.27222700  0.19834700  0.36629100  1
  O  O28  1  0.24722600  0.55891300  0.13658000  1
  O  O29  1  0.24853900  0.44630900  0.36117400  1
  O  O30  1  0.24042600  0.79526500  0.13390100  1
  O  O31  1  0.24387200  0.04315800  0.63334300  1
  O  O32  1  0.73390400  0.31739800  0.13039100  1
  O  O33  1  0.72883400  0.19988500  0.36918700  1
  O  O34  1  0.72136600  0.55541700  0.13320100  1
  O  O35  1  0.27863400  0.69458300  0.36679900  1
  O  O36  1  0.23329500  0.31886100  0.62946500  1
  O  O37  1  0.26609600  0.93260200  0.36960900  1
  O  O38  1  0.75957400  0.45473500  0.36609900  1
  O  O39  1  0.23231200  0.20178700  0.86752500  1
  O  O40  1  0.23672800  0.54808800  0.63389800  1
  O  O41  1  0.75146100  0.80369100  0.13882600  1
  O  O42  1  0.76768800  0.04821400  0.63247500  1
  O  O43  1  0.75277400  0.69108700  0.36342000  1
  O  O44  1  0.72903000  0.31239000  0.62830700  1
  O  O45  1  0.27677900  0.44654000  0.86497600  1
  O  O46  1  0.25467100  0.80556300  0.63771400  1
  O  O47  1  0.74568900  0.95093700  0.37002200  1
  O  O48  1  0.25420700  0.69191000  0.86280400  1
  O  O49  1  0.75612800  0.20684200  0.86665700  1
  O  O50  1  0.74579300  0.55809000  0.63719600  1
  O  O51  1  0.74532900  0.44443600  0.86228600  1
  O  O52  1  0.72322100  0.80345900  0.63502400  1
  O  O53  1  0.27097000  0.93761100  0.87169300  1
  O  O54  1  0.76327200  0.70191200  0.86610200  1
  O  O55  1  0.76670500  0.93114000  0.87053500  1
