# generated using pymatgen
data_Sr(ReO3)3
_symmetry_space_group_name_H-M   'P 1'
_cell_length_a   9.30350200
_cell_length_b   9.33391900
_cell_length_c   9.37132400
_cell_angle_alpha   90.00000000
_cell_angle_beta   90.00000000
_cell_angle_gamma   90.00000000
_symmetry_Int_Tables_number   1
_chemical_formula_structural   Sr(ReO3)3
_chemical_formula_sum   'Sr4 Re12 O36'
_cell_volume   813.78829006
_cell_formula_units_Z   4
loop_
 _symmetry_equiv_pos_site_id
 _symmetry_equiv_pos_as_xyz
  1  'x, y, z'
loop_
 _atom_site_type_symbol
 _atom_site_label
 _atom_site_symmetry_multiplicity
 _atom_site_fract_x
 _atom_site_fract_y
 _atom_site_fract_z
 _atom_site_occupancy
  Sr  Sr0  1  0.17657400  0.82064700  0.82167400  1
  Sr  Sr1  1  0.67657400  0.67935300  0.32167400  1
  Sr  Sr2  1  0.17657400  0.17935300  0.17832600  1
  Sr  Sr3  1  0.67657400  0.32064700  0.67832600  1
  Re  Re4  1  0.86316400  0.00000000  0.50000000  1
  Re  Re5  1  0.50228000  0.00523200  0.36026300  1
  Re  Re6  1  0.50240300  0.86241400  0.00131300  1
  Re  Re7  1  0.00240300  0.63758600  0.50131300  1
  Re  Re8  1  0.36316400  0.50000000  0.00000000  1
  Re  Re9  1  0.00228000  0.50523200  0.13973700  1
  Re  Re10  1  0.00228000  0.49476800  0.86026300  1
  Re  Re11  1  0.63921700  0.50000000  0.00000000  1
  Re  Re12  1  0.00240300  0.36241400  0.49868700  1
  Re  Re13  1  0.50240300  0.13758600  0.99868700  1
  Re  Re14  1  0.50228000  0.99476800  0.63973700  1
  Re  Re15  1  0.13921700  0.00000000  0.50000000  1
  O  O16  1  0.66136700  0.00000000  0.00000000  1
  O  O17  1  0.49384000  0.86243800  0.79745400  1
  O  O18  1  0.29578600  0.99442900  0.63936300  1
  O  O19  1  0.50738200  0.83838500  0.49528200  1
  O  O20  1  0.00180300  0.99538400  0.66320300  1
  O  O21  1  0.29578600  0.00557100  0.36063700  1
  O  O22  1  0.50219300  0.86224700  0.20623000  1
  O  O23  1  0.13775800  0.79627300  0.50459200  1
  O  O24  1  0.63775800  0.70372700  0.00459200  1
  O  O25  1  0.16136700  0.50000000  0.50000000  1
  O  O26  1  0.86013800  0.79458900  0.49621700  1
  O  O27  1  0.36013800  0.70541100  0.99621700  1
  O  O28  1  0.99384000  0.63756200  0.29745400  1
  O  O29  1  0.20538500  0.49772800  0.13775800  1
  O  O30  1  0.50180300  0.49538400  0.83679700  1
  O  O31  1  0.83156900  0.50000000  0.50000000  1
  O  O32  1  0.00738200  0.66161500  0.99528200  1
  O  O33  1  0.00219300  0.36224700  0.29377000  1
  O  O34  1  0.20538500  0.50227200  0.86224200  1
  O  O35  1  0.79578600  0.50557100  0.13936300  1
  O  O36  1  0.00219300  0.63775300  0.70623000  1
  O  O37  1  0.00738200  0.33838500  0.00471800  1
  O  O38  1  0.50180300  0.50461600  0.16320300  1
  O  O39  1  0.79578600  0.49442900  0.86063700  1
  O  O40  1  0.99384000  0.36243800  0.70254600  1
  O  O41  1  0.63775800  0.29627300  0.99540800  1
  O  O42  1  0.13775800  0.20372700  0.49540800  1
  O  O43  1  0.36013800  0.29458900  0.00378300  1
  O  O44  1  0.86013800  0.20541100  0.50378300  1
  O  O45  1  0.50219300  0.13775300  0.79377000  1
  O  O46  1  0.70538500  0.00227200  0.63775800  1
  O  O47  1  0.33156900  0.00000000  0.00000000  1
  O  O48  1  0.00180300  0.00461600  0.33679700  1
  O  O49  1  0.50738200  0.16161500  0.50471800  1
  O  O50  1  0.70538500  0.99772800  0.36224200  1
  O  O51  1  0.49384000  0.13756200  0.20254600  1
