# generated using pymatgen
data_Ho2TiO5
_symmetry_space_group_name_H-M   'P 1'
_cell_length_a   7.41089067
_cell_length_b   7.41089067
_cell_length_c   17.77621955
_cell_angle_alpha   89.47158481
_cell_angle_beta   89.47158481
_cell_angle_gamma   58.75277637
_symmetry_Int_Tables_number   1
_chemical_formula_structural   Ho2TiO5
_chemical_formula_sum   'Ho16 Ti8 O40'
_cell_volume   834.62235194
_cell_formula_units_Z   8
loop_
 _symmetry_equiv_pos_site_id
 _symmetry_equiv_pos_as_xyz
  1  'x, y, z'
loop_
 _atom_site_type_symbol
 _atom_site_label
 _atom_site_symmetry_multiplicity
 _atom_site_fract_x
 _atom_site_fract_y
 _atom_site_fract_z
 _atom_site_occupancy
  Ho  Ho0  1  0.34197800  0.34197800  0.17859600  1
  Ho  Ho1  1  0.51572600  0.51572600  0.99776300  1
  Ho  Ho2  1  0.82630400  0.33716900  0.16663700  1
  Ho  Ho3  1  0.98192500  0.98192500  0.99107200  1
  Ho  Ho4  1  0.18207100  0.18207100  0.34019300  1
  Ho  Ho5  1  0.33716900  0.82630400  0.16663700  1
  Ho  Ho6  1  0.50217300  0.02072700  0.50430100  1
  Ho  Ho7  1  0.68513100  0.68513100  0.32589100  1
  Ho  Ho8  1  0.82617000  0.82617000  0.15066600  1
  Ho  Ho9  1  0.02072700  0.50217300  0.50430100  1
  Ho  Ho10  1  0.18948200  0.68201600  0.82192600  1
  Ho  Ho11  1  0.01734900  0.01734900  0.51496800  1
  Ho  Ho12  1  0.34676300  0.34676300  0.67263300  1
  Ho  Ho13  1  0.68201600  0.18948200  0.82192600  1
  Ho  Ho14  1  0.49775100  0.49775100  0.51017800  1
  Ho  Ho15  1  0.17231400  0.17231400  0.84565800  1
  Ti  Ti16  1  0.02457400  0.49964900  0.99931000  1
  Ti  Ti17  1  0.49964900  0.02457400  0.99931000  1
  Ti  Ti18  1  0.83678000  0.83678000  0.67273400  1
  Ti  Ti19  1  0.67282800  0.16832000  0.33514600  1
  Ti  Ti20  1  0.16832000  0.67282800  0.33514600  1
  Ti  Ti21  1  0.34818400  0.84005500  0.66358200  1
  Ti  Ti22  1  0.84005500  0.34818400  0.66358200  1
  Ti  Ti23  1  0.66636700  0.66636700  0.83729000  1
  O  O24  1  0.80733300  0.80733300  0.02284700  1
  O  O25  1  0.69858600  0.13423800  0.20958700  1
  O  O26  1  0.13423800  0.69858600  0.20958700  1
  O  O27  1  0.85001300  0.29478400  0.04239900  1
  O  O28  1  0.36312000  0.36312000  0.31001200  1
  O  O29  1  0.37623300  0.81770200  0.54720600  1
  O  O30  1  0.33433000  0.78794500  0.31714800  1
  O  O31  1  0.49381800  0.49381800  0.12195000  1
  O  O32  1  0.16139000  0.16139000  0.21502700  1
  O  O33  1  0.29478400  0.85001300  0.04239900  1
  O  O34  1  0.81770200  0.37623300  0.54720600  1
  O  O35  1  0.48089900  0.05303000  0.10282900  1
  O  O36  1  0.51953500  0.98662900  0.38058200  1
  O  O37  1  0.78794500  0.33433000  0.31714800  1
  O  O38  1  0.67860900  0.67860900  0.20477700  1
  O  O39  1  0.08555100  0.08555100  0.63887600  1
  O  O40  1  0.96403800  0.51139400  0.65413700  1
  O  O41  1  0.87631000  0.50833200  0.90614100  1
  O  O42  1  0.16808600  0.16808600  0.46342100  1
  O  O43  1  0.88693900  0.88693900  0.32610300  1
  O  O44  1  0.84449100  0.84449100  0.55930600  1
  O  O45  1  0.05303000  0.48089900  0.10282900  1
  O  O46  1  0.98662900  0.51953500  0.38058200  1
  O  O47  1  0.50833200  0.87631000  0.90614100  1
  O  O48  1  0.13125900  0.72493600  0.69339100  1
  O  O49  1  0.32804800  0.32804800  0.79469100  1
  O  O50  1  0.51139400  0.96403800  0.65413700  1
  O  O51  1  0.19112200  0.68710800  0.44358800  1
  O  O52  1  0.34121000  0.34121000  0.55082500  1
  O  O53  1  0.60725200  0.18147700  0.95666100  1
  O  O54  1  0.79921200  0.79921200  0.78262300  1
  O  O55  1  0.52485000  0.52485000  0.65454600  1
  O  O56  1  0.51892200  0.51892200  0.86288100  1
  O  O57  1  0.68710800  0.19112200  0.44358800  1
  O  O58  1  0.72493600  0.13125900  0.69339100  1
  O  O59  1  0.85498400  0.35648200  0.77216600  1
  O  O60  1  0.18147700  0.60725200  0.95666100  1
  O  O61  1  0.00282300  0.00282300  0.87177300  1
  O  O62  1  0.21872400  0.21872400  0.96584200  1
  O  O63  1  0.35648200  0.85498400  0.77216600  1
