# generated using pymatgen
data_Rb16Sn16F47
_symmetry_space_group_name_H-M   'P 1'
_cell_length_a   10.33243200
_cell_length_b   10.36384497
_cell_length_c   16.98735740
_cell_angle_alpha   72.34711533
_cell_angle_beta   72.54675713
_cell_angle_gamma   80.36036461
_symmetry_Int_Tables_number   1
_chemical_formula_structural   Rb16Sn16F47
_chemical_formula_sum   'Rb16 Sn16 F47'
_cell_volume   1647.74336107
_cell_formula_units_Z   1
loop_
 _symmetry_equiv_pos_site_id
 _symmetry_equiv_pos_as_xyz
  1  'x, y, z'
loop_
 _atom_site_type_symbol
 _atom_site_label
 _atom_site_symmetry_multiplicity
 _atom_site_fract_x
 _atom_site_fract_y
 _atom_site_fract_z
 _atom_site_occupancy
  Rb  Rb0  1  0.51395600  0.98319000  0.87305200  1
  Rb  Rb1  1  0.88448100  0.85217100  0.77953000  1
  Rb  Rb2  1  0.14784100  0.11511100  0.97080400  1
  Rb  Rb3  1  0.01794300  0.48570900  0.87846000  1
  Rb  Rb4  1  0.98075200  0.51443300  0.63025600  1
  Rb  Rb5  1  0.84515300  0.89117200  0.53224000  1
  Rb  Rb6  1  0.11206000  0.14384600  0.72235000  1
  Rb  Rb7  1  0.48939900  0.02081300  0.62720800  1
  Rb  Rb8  1  0.50865900  0.97767300  0.37443100  1
  Rb  Rb9  1  0.89035100  0.84930100  0.28073600  1
  Rb  Rb10  1  0.15461200  0.10936300  0.46777400  1
  Rb  Rb11  1  0.01840800  0.48447700  0.37121000  1
  Rb  Rb12  1  0.97819100  0.50883100  0.12272300  1
  Rb  Rb13  1  0.85526900  0.88754900  0.02783100  1
  Rb  Rb14  1  0.11658600  0.14815600  0.21990400  1
  Rb  Rb15  1  0.48221300  0.01317500  0.12498700  1
  Sn  Sn16  1  0.37036600  0.38315000  0.97480500  1
  Sn  Sn17  1  0.24500400  0.75548100  0.87603300  1
  Sn  Sn18  1  0.74919700  0.25082100  0.87481600  1
  Sn  Sn19  1  0.61538900  0.63138100  0.77607100  1
  Sn  Sn20  1  0.38210100  0.36105100  0.72651400  1
  Sn  Sn21  1  0.25363700  0.74703600  0.62750900  1
  Sn  Sn22  1  0.78272100  0.25371200  0.61226800  1
  Sn  Sn23  1  0.63638300  0.61948900  0.52373800  1
  Sn  Sn24  1  0.36305200  0.38117700  0.47681300  1
  Sn  Sn25  1  0.21691300  0.74692800  0.38832400  1
  Sn  Sn26  1  0.74522400  0.25290800  0.37331300  1
  Sn  Sn27  1  0.61854900  0.64309400  0.27235800  1
  Sn  Sn28  1  0.38209000  0.37291900  0.22375100  1
  Sn  Sn29  1  0.25068100  0.74776000  0.12525000  1
  Sn  Sn30  1  0.74619000  0.21593100  0.13659500  1
  Sn  Sn31  1  0.63855800  0.61815000  0.02356400  1
  F  F32  1  0.83615500  0.67676900  0.95983000  1
  F  F33  1  0.27566900  0.84133300  0.98047900  1
  F  F34  1  0.61402400  0.70902400  0.88689800  1
  F  F35  1  0.42596900  0.18126500  0.96970400  1
  F  F36  1  0.95343300  0.23532700  0.87186800  1
  F  F37  1  0.08748100  0.91313200  0.87419000  1
  F  F38  1  0.76666300  0.04747000  0.87699600  1
  F  F39  1  0.81826100  0.57476500  0.78142900  1
  F  F40  1  0.29399300  0.38649500  0.86150700  1
  F  F41  1  0.66697700  0.83017000  0.71206700  1
  F  F42  1  0.15598100  0.72469500  0.76753000  1
  F  F43  1  0.84359100  0.27367400  0.72761200  1
  F  F44  1  0.32222000  0.16459900  0.79073400  1
  F  F45  1  0.70887500  0.61088300  0.63847700  1
  F  F46  1  0.62864400  0.14917800  0.70382700  1
  F  F47  1  0.18163400  0.42943300  0.71977900  1
  F  F48  1  0.23909300  0.95174000  0.62248300  1
  F  F49  1  0.92057700  0.08248600  0.62182500  1
  F  F50  1  0.05213400  0.76535200  0.62184700  1
  F  F51  1  0.58194200  0.82051000  0.52912000  1
  F  F52  1  0.37217700  0.28607200  0.61397500  1
  F  F53  1  0.84350200  0.65809300  0.46714100  1
  F  F54  1  0.72238700  0.16273800  0.52095300  1
  F  F55  1  0.27778900  0.83964200  0.47626100  1
  F  F56  1  0.15635700  0.34170400  0.53286900  1
  F  F57  1  0.62804300  0.71456600  0.38562500  1
  F  F58  1  0.41948200  0.18091500  0.47017800  1
  F  F59  1  0.94837800  0.23502500  0.37517500  1
  F  F60  1  0.07844000  0.91802900  0.37709700  1
  F  F61  1  0.75962100  0.04934200  0.37552200  1
  F  F62  1  0.81827700  0.57170100  0.28037000  1
  F  F63  1  0.37061300  0.85095800  0.29535200  1
  F  F64  1  0.28998600  0.38970700  0.36112700  1
  F  F65  1  0.67731500  0.84159700  0.21016100  1
  F  F66  1  0.15601000  0.72382700  0.27263500  1
  F  F67  1  0.84094300  0.27240900  0.22929200  1
  F  F68  1  0.33806900  0.17156700  0.28634000  1
  F  F69  1  0.71084700  0.62271900  0.13683500  1
  F  F70  1  0.17942500  0.42334800  0.21907800  1
  F  F71  1  0.22960200  0.95139100  0.12376600  1
  F  F72  1  0.91877300  0.08068900  0.12630800  1
  F  F73  1  0.04730400  0.75919100  0.12668800  1
  F  F74  1  0.57319000  0.81868600  0.02948400  1
  F  F75  1  0.84866800  0.37223200  0.04595100  1
  F  F76  1  0.38973400  0.29125400  0.11234600  1
  F  F77  1  0.72675000  0.15710600  0.02142100  1
  F  F78  1  0.17047100  0.33343500  0.03692800  1
