# generated using pymatgen
data_Mg(FeO2)2
_symmetry_space_group_name_H-M   'P 1'
_cell_length_a   5.90294386
_cell_length_b   5.89413572
_cell_length_c   29.09040092
_cell_angle_alpha   60.29372277
_cell_angle_beta   60.45401376
_cell_angle_gamma   60.25991111
_symmetry_Int_Tables_number   1
_chemical_formula_structural   Mg(FeO2)2
_chemical_formula_sum   'Mg10 Fe20 O40'
_cell_volume   721.12143231
_cell_formula_units_Z   10
loop_
 _symmetry_equiv_pos_site_id
 _symmetry_equiv_pos_as_xyz
  1  'x, y, z'
loop_
 _atom_site_type_symbol
 _atom_site_label
 _atom_site_symmetry_multiplicity
 _atom_site_fract_x
 _atom_site_fract_y
 _atom_site_fract_z
 _atom_site_occupancy
  Mg  Mg0  1  0.97876700  0.00840500  0.00323400  1
  Mg  Mg1  1  0.12237500  0.62799300  0.12543400  1
  Mg  Mg2  1  0.62457100  0.12836600  0.12490700  1
  Mg  Mg3  1  0.12437900  0.62442500  0.32537500  1
  Mg  Mg4  1  0.62439900  0.12463600  0.32534200  1
  Mg  Mg5  1  0.12549200  0.62527600  0.52472200  1
  Mg  Mg6  1  0.62534300  0.12521200  0.52475500  1
  Mg  Mg7  1  0.12769000  0.62197600  0.72376500  1
  Mg  Mg8  1  0.62471600  0.12321500  0.72414600  1
  Mg  Mg9  1  0.12777900  0.62112000  0.92532000  1
  Fe  Fe10  1  0.25641700  0.25921200  0.04907900  1
  Fe  Fe11  1  0.99017700  0.99055700  0.20260500  1
  Fe  Fe12  1  0.25890000  0.26019900  0.24840900  1
  Fe  Fe13  1  0.99113600  0.99022700  0.40178700  1
  Fe  Fe14  1  0.62295200  0.64168300  0.02446900  1
  Fe  Fe15  1  0.62437300  0.62735600  0.12639600  1
  Fe  Fe16  1  0.25879700  0.25975300  0.44829800  1
  Fe  Fe17  1  0.99190200  0.99047600  0.60115100  1
  Fe  Fe18  1  0.62420700  0.62567300  0.22590800  1
  Fe  Fe19  1  0.62433600  0.62453400  0.32534200  1
  Fe  Fe20  1  0.62485400  0.62488400  0.42511400  1
  Fe  Fe21  1  0.25937100  0.25900200  0.64770000  1
  Fe  Fe22  1  0.99760100  0.99946900  0.79746800  1
  Fe  Fe23  1  0.62546800  0.62523800  0.52461700  1
  Fe  Fe24  1  0.62610400  0.62460500  0.62406700  1
  Fe  Fe25  1  0.25877000  0.24106000  0.84949200  1
  Fe  Fe26  1  0.62430100  0.62295100  0.72267200  1
  Fe  Fe27  1  0.62953600  0.11275500  0.92573900  1
  Fe  Fe28  1  0.62685400  0.61961700  0.82466800  1
  Fe  Fe29  1  0.62242400  0.63543500  0.92849400  1
  O  O30  1  0.39420500  0.40463300  0.07151100  1
  O  O31  1  0.39419300  0.39591300  0.16940500  1
  O  O32  1  0.39941600  0.85351500  0.07675300  1
  O  O33  1  0.84722900  0.41010100  0.07499000  1
  O  O34  1  0.39338300  0.39428500  0.27346000  1
  O  O35  1  0.39892000  0.85069300  0.17630200  1
  O  O36  1  0.84893200  0.40009800  0.17632700  1
  O  O37  1  0.39395900  0.39366300  0.36955700  1
  O  O38  1  0.39872300  0.84951900  0.27569000  1
  O  O39  1  0.84824900  0.85343700  0.08401100  1
  O  O40  1  0.84889400  0.39928000  0.27573100  1
  O  O41  1  0.85408600  0.85740200  0.17814900  1
  O  O42  1  0.39398300  0.39446600  0.47298600  1
  O  O43  1  0.40097200  0.84929600  0.37508200  1
  O  O44  1  0.84891000  0.40088800  0.37522300  1
  O  O45  1  0.40039000  0.84914800  0.47491800  1
  O  O46  1  0.85453500  0.85512300  0.28130800  1
  O  O47  1  0.39500800  0.39438500  0.56893600  1
  O  O48  1  0.84902800  0.40004100  0.47505500  1
  O  O49  1  0.85571100  0.85523100  0.37720300  1
  O  O50  1  0.39630800  0.39363500  0.67197400  1
  O  O51  1  0.40166700  0.85033500  0.57425100  1
  O  O52  1  0.39408200  0.38965700  0.76922900  1
  O  O53  1  0.85091600  0.40096400  0.57429700  1
  O  O54  1  0.39948100  0.84831100  0.67366300  1
  O  O55  1  0.85577600  0.85606600  0.48051300  1
  O  O56  1  0.84965200  0.39758200  0.67378900  1
  O  O57  1  0.85675300  0.85575400  0.57650600  1
  O  O58  1  0.39782600  0.36141400  0.87728400  1
  O  O59  1  0.39590400  0.84961600  0.77224300  1
  O  O60  1  0.40381400  0.36689300  0.96895100  1
  O  O61  1  0.85620000  0.39492200  0.77102600  1
  O  O62  1  0.85495400  0.85424700  0.68001800  1
  O  O63  1  0.39588000  0.84520300  0.87404500  1
  O  O64  1  0.85934900  0.35418400  0.87700500  1
  O  O65  1  0.86251300  0.85241700  0.77637800  1
  O  O66  1  0.39353900  0.88519000  0.97625200  1
  O  O67  1  0.85336800  0.41463800  0.97702800  1
  O  O68  1  0.86149600  0.87921400  0.87877200  1
  O  O69  1  0.84780400  0.87333100  0.97370300  1
