# generated using pymatgen
data_Al2NiO4
_symmetry_space_group_name_H-M   'P 1'
_cell_length_a   5.75109943
_cell_length_b   5.75109943
_cell_length_c   23.54600433
_cell_angle_alpha   82.66975197
_cell_angle_beta   82.66975197
_cell_angle_gamma   60.28087513
_symmetry_Int_Tables_number   1
_chemical_formula_structural   Al2NiO4
_chemical_formula_sum   'Al20 Ni10 O40'
_cell_volume   668.94907274
_cell_formula_units_Z   10
loop_
 _symmetry_equiv_pos_site_id
 _symmetry_equiv_pos_as_xyz
  1  'x, y, z'
loop_
 _atom_site_type_symbol
 _atom_site_label
 _atom_site_symmetry_multiplicity
 _atom_site_fract_x
 _atom_site_fract_y
 _atom_site_fract_z
 _atom_site_occupancy
  Al  Al0  1  0.92877600  0.92877600  0.22764300  1
  Al  Al1  1  0.29503000  0.79946200  0.10058300  1
  Al  Al2  1  0.79946200  0.29503000  0.10058300  1
  Al  Al3  1  0.52984900  0.52984900  0.42662000  1
  Al  Al4  1  0.89962500  0.40013200  0.30005000  1
  Al  Al5  1  0.26901600  0.26901600  0.17313200  1
  Al  Al6  1  0.40013200  0.89962500  0.30005000  1
  Al  Al7  1  0.13016000  0.13016000  0.62630000  1
  Al  Al8  1  0.50010600  0.00028400  0.49986000  1
  Al  Al9  1  0.87032200  0.87032200  0.37338200  1
  Al  Al10  1  0.00028400  0.50010600  0.49986000  1
  Al  Al11  1  0.73260400  0.73260400  0.82496000  1
  Al  Al12  1  0.10060500  0.60064400  0.69954600  1
  Al  Al13  1  0.47053000  0.47053000  0.57308500  1
  Al  Al14  1  0.60064400  0.10060500  0.69954600  1
  Al  Al15  1  0.69930400  0.20393900  0.89918900  1
  Al  Al16  1  0.07097400  0.07097400  0.77321600  1
  Al  Al17  1  0.99866200  0.99866200  0.00227900  1
  Al  Al18  1  0.20393900  0.69930400  0.89918900  1
  Al  Al19  1  0.66863500  0.66863500  0.97580300  1
  Ni  Ni20  1  0.32569400  0.32569400  0.02549600  1
  Ni  Ni21  1  0.59937000  0.59937000  0.19973500  1
  Ni  Ni22  1  0.79921900  0.79921900  0.10052000  1
  Ni  Ni23  1  0.19999600  0.19999600  0.40002200  1
  Ni  Ni24  1  0.39985600  0.39985600  0.30014800  1
  Ni  Ni25  1  0.80008900  0.80008900  0.59987600  1
  Ni  Ni26  1  0.00009300  0.00009300  0.49995300  1
  Ni  Ni27  1  0.40113300  0.40113300  0.79997900  1
  Ni  Ni28  1  0.60025300  0.60025300  0.69970900  1
  Ni  Ni29  1  0.20263900  0.20263900  0.89939000  1
  O  O30  1  0.68669800  0.14627000  0.05089600  1
  O  O31  1  0.14627000  0.68669800  0.05089600  1
  O  O32  1  0.95564300  0.95564300  0.15002700  1
  O  O33  1  0.12817500  0.12817500  0.05355300  1
  O  O34  1  0.25811700  0.76081000  0.25355900  1
  O  O35  1  0.45133400  0.45133400  0.14524300  1
  O  O36  1  0.63976200  0.63976200  0.05322200  1
  O  O37  1  0.76081000  0.25811700  0.25355900  1
  O  O38  1  0.43602800  0.94244400  0.14638100  1
  O  O39  1  0.55843300  0.55843300  0.34806100  1
  O  O40  1  0.74534500  0.74534500  0.25429000  1
  O  O41  1  0.94244400  0.43602800  0.14638100  1
  O  O42  1  0.85740400  0.36172000  0.45336900  1
  O  O43  1  0.05345500  0.05345500  0.34640000  1
  O  O44  1  0.24115600  0.24115600  0.25223800  1
  O  O45  1  0.36172000  0.85740400  0.45336900  1
  O  O46  1  0.03822600  0.54234900  0.34699300  1
  O  O47  1  0.15886600  0.15886600  0.54766900  1
  O  O48  1  0.34660500  0.34660500  0.45393800  1
  O  O49  1  0.54234900  0.03822600  0.34699300  1
  O  O50  1  0.45733800  0.96207700  0.65314600  1
  O  O51  1  0.65361000  0.65361000  0.54631600  1
  O  O52  1  0.96207700  0.45733800  0.65314600  1
  O  O53  1  0.84133100  0.84133100  0.45237200  1
  O  O54  1  0.63846700  0.14236300  0.54688000  1
  O  O55  1  0.75985400  0.75985400  0.74663700  1
  O  O56  1  0.94715800  0.94715800  0.65358900  1
  O  O57  1  0.14236300  0.63846700  0.54688000  1
  O  O58  1  0.25406900  0.25406900  0.74635100  1
  O  O59  1  0.05569000  0.56557900  0.85270500  1
  O  O60  1  0.44147000  0.44147000  0.65219000  1
  O  O61  1  0.23869700  0.74283800  0.74684300  1
  O  O62  1  0.56557900  0.05569000  0.85270500  1
  O  O63  1  0.36648300  0.36648300  0.94045900  1
  O  O64  1  0.55234600  0.55234600  0.85294600  1
  O  O65  1  0.74283800  0.23869700  0.74684300  1
  O  O66  1  0.85861000  0.85861000  0.94968300  1
  O  O67  1  0.04203900  0.04203900  0.85265200  1
  O  O68  1  0.84887100  0.32900300  0.95044400  1
  O  O69  1  0.32900300  0.84887100  0.95044400  1
