# generated using pymatgen
data_CaTl2O4
_symmetry_space_group_name_H-M   'P 1'
_cell_length_a   5.85791657
_cell_length_b   5.85791657
_cell_length_c   10.65250900
_cell_angle_alpha   90.00000000
_cell_angle_beta   90.00000000
_cell_angle_gamma   146.44851025
_symmetry_Int_Tables_number   1
_chemical_formula_structural   CaTl2O4
_chemical_formula_sum   'Ca2 Tl4 O8'
_cell_volume   202.03046028
_cell_formula_units_Z   2
loop_
 _symmetry_equiv_pos_site_id
 _symmetry_equiv_pos_as_xyz
  1  'x, y, z'
loop_
 _atom_site_type_symbol
 _atom_site_label
 _atom_site_symmetry_multiplicity
 _atom_site_fract_x
 _atom_site_fract_y
 _atom_site_fract_z
 _atom_site_occupancy
  Ca  Ca0  1  0.10817800  0.89182200  0.25000000  1
  Ca  Ca1  1  0.89182200  0.10817800  0.75000000  1
  Tl  Tl2  1  0.63464500  0.36535500  0.57205500  1
  Tl  Tl3  1  0.36535500  0.63464500  0.42794500  1
  Tl  Tl4  1  0.36535500  0.63464500  0.07205500  1
  Tl  Tl5  1  0.63464500  0.36535500  0.92794500  1
  O  O6  1  0.46319400  0.53680600  0.25000000  1
  O  O7  1  0.53680600  0.46319400  0.75000000  1
  O  O8  1  0.00000000  0.00000000  0.50000000  1
  O  O9  1  0.00000000  0.00000000  0.00000000  1
  O  O10  1  0.71970500  0.28029500  0.11744200  1
  O  O11  1  0.28029500  0.71970500  0.88255800  1
  O  O12  1  0.71970500  0.28029500  0.38255800  1
  O  O13  1  0.28029500  0.71970500  0.61744200  1
