# generated using pymatgen
data_Zn(FeO2)2
_symmetry_space_group_name_H-M   'P 1'
_cell_length_a   6.00763228
_cell_length_b   5.95669249
_cell_length_c   29.82888751
_cell_angle_alpha   59.95822403
_cell_angle_beta   60.26394379
_cell_angle_gamma   60.36925691
_symmetry_Int_Tables_number   1
_chemical_formula_structural   Zn(FeO2)2
_chemical_formula_sum   'Zn10 Fe20 O40'
_cell_volume   758.14632615
_cell_formula_units_Z   10
loop_
 _symmetry_equiv_pos_site_id
 _symmetry_equiv_pos_as_xyz
  1  'x, y, z'
loop_
 _atom_site_type_symbol
 _atom_site_label
 _atom_site_symmetry_multiplicity
 _atom_site_fract_x
 _atom_site_fract_y
 _atom_site_fract_z
 _atom_site_occupancy
  Zn  Zn0  1  0.00130000  0.99401200  0.00221400  1
  Zn  Zn1  1  0.12373800  0.62415500  0.12559100  1
  Zn  Zn2  1  0.99161900  0.00013500  0.20164600  1
  Zn  Zn3  1  0.12274500  0.62630500  0.32495700  1
  Zn  Zn4  1  0.99480300  0.00799200  0.39791900  1
  Zn  Zn5  1  0.12641300  0.62429800  0.52467400  1
  Zn  Zn6  1  0.99766700  0.99634300  0.60117400  1
  Zn  Zn7  1  0.12232500  0.62422000  0.72536800  1
  Zn  Zn8  1  0.25044400  0.25644600  0.84851000  1
  Zn  Zn9  1  0.99094200  0.00384700  0.79993700  1
  Fe  Fe10  1  0.25580200  0.24810300  0.04955700  1
  Fe  Fe11  1  0.62345300  0.12152700  0.12601000  1
  Fe  Fe12  1  0.62711800  0.62061500  0.02627100  1
  Fe  Fe13  1  0.25919300  0.24068000  0.25190600  1
  Fe  Fe14  1  0.62329300  0.62486800  0.12602300  1
  Fe  Fe15  1  0.62555400  0.12576500  0.32488100  1
  Fe  Fe16  1  0.63353300  0.62139900  0.22470600  1
  Fe  Fe17  1  0.26327000  0.24806400  0.44806500  1
  Fe  Fe18  1  0.62549300  0.62442500  0.32487700  1
  Fe  Fe19  1  0.63407500  0.11737500  0.52458700  1
  Fe  Fe20  1  0.62470300  0.63041700  0.42291200  1
  Fe  Fe21  1  0.26650800  0.24998900  0.64697800  1
  Fe  Fe22  1  0.63311400  0.62591600  0.52468100  1
  Fe  Fe23  1  0.62705900  0.12501200  0.72436800  1
  Fe  Fe24  1  0.63037600  0.62151500  0.62524900  1
  Fe  Fe25  1  0.62783000  0.62516900  0.72340100  1
  Fe  Fe26  1  0.12118200  0.62604400  0.92571500  1
  Fe  Fe27  1  0.62675500  0.12205200  0.92531300  1
  Fe  Fe28  1  0.61513700  0.63344000  0.82419200  1
  Fe  Fe29  1  0.62685400  0.62533500  0.92519800  1
  O  O30  1  0.39753800  0.38960400  0.07259300  1
  O  O31  1  0.38818800  0.37565300  0.17211000  1
  O  O32  1  0.39830600  0.84959300  0.07244400  1
  O  O33  1  0.85545900  0.38922200  0.07327600  1
  O  O34  1  0.39736200  0.36316600  0.27900200  1
  O  O35  1  0.39205000  0.86523500  0.17537900  1
  O  O36  1  0.85475500  0.40088700  0.17495500  1
  O  O37  1  0.40930000  0.37416100  0.36831700  1
  O  O38  1  0.39795300  0.84442300  0.27887300  1
  O  O39  1  0.84666900  0.87035800  0.08247300  1
  O  O40  1  0.85554100  0.86957900  0.17483000  1
  O  O41  1  0.85210100  0.37017500  0.28168600  1
  O  O42  1  0.38911500  0.37802900  0.47529400  1
  O  O43  1  0.40948000  0.87546900  0.36777100  1
  O  O44  1  0.84543100  0.41343000  0.37149400  1
  O  O45  1  0.38952500  0.85609900  0.47519300  1
  O  O46  1  0.39781100  0.37616400  0.56903800  1
  O  O47  1  0.82938000  0.87511000  0.28427200  1
  O  O48  1  0.84603600  0.88400700  0.37138000  1
  O  O49  1  0.86747200  0.38108900  0.47446700  1
  O  O50  1  0.39674100  0.39491500  0.67155600  1
  O  O51  1  0.40613600  0.85515700  0.57694800  1
  O  O52  1  0.40763400  0.39631100  0.76582000  1
  O  O53  1  0.40860900  0.84795100  0.67267600  1
  O  O54  1  0.85774900  0.87468100  0.47911000  1
  O  O55  1  0.84588300  0.40763800  0.57706700  1
  O  O56  1  0.84909100  0.85834300  0.57660600  1
  O  O57  1  0.86863100  0.38310900  0.66944900  1
  O  O58  1  0.37827100  0.38177400  0.87897300  1
  O  O59  1  0.38950000  0.88094900  0.77322000  1
  O  O60  1  0.84183600  0.85768200  0.68199000  1
  O  O61  1  0.38304400  0.38007900  0.97136500  1
  O  O62  1  0.37898600  0.84955300  0.87851200  1
  O  O63  1  0.84151300  0.41154300  0.77190600  1
  O  O64  1  0.85559900  0.87207400  0.77293100  1
  O  O65  1  0.84691800  0.38451900  0.87685000  1
  O  O66  1  0.40990600  0.85091300  0.97752800  1
  O  O67  1  0.85371400  0.40690100  0.97728600  1
  O  O68  1  0.86392000  0.86587900  0.88132300  1
  O  O69  1  0.85455600  0.85311500  0.97715300  1
