# generated using pymatgen
data_Nd4(WO5)3
_symmetry_space_group_name_H-M   'P 1'
_cell_length_a   10.05713900
_cell_length_b   10.29202400
_cell_length_c   24.58221500
_cell_angle_alpha   90.00000000
_cell_angle_beta   90.00000000
_cell_angle_gamma   90.00000000
_symmetry_Int_Tables_number   1
_chemical_formula_structural   Nd4(WO5)3
_chemical_formula_sum   'Nd32 W24 O120'
_cell_volume   2544.46367720
_cell_formula_units_Z   8
loop_
 _symmetry_equiv_pos_site_id
 _symmetry_equiv_pos_as_xyz
  1  'x, y, z'
loop_
 _atom_site_type_symbol
 _atom_site_label
 _atom_site_symmetry_multiplicity
 _atom_site_fract_x
 _atom_site_fract_y
 _atom_site_fract_z
 _atom_site_occupancy
  Nd  Nd0  1  0.75000000  0.75149400  0.12645100  1
  Nd  Nd1  1  0.75000000  0.74850600  0.62645100  1
  Nd  Nd2  1  0.97121300  0.99623700  0.37140900  1
  Nd  Nd3  1  0.99302700  0.97277300  0.87045900  1
  Nd  Nd4  1  0.99302700  0.52722700  0.37045900  1
  Nd  Nd5  1  0.97121300  0.50376300  0.87140900  1
  Nd  Nd6  1  0.99399800  0.24981400  0.49241100  1
  Nd  Nd7  1  0.99399800  0.25018600  0.99241100  1
  Nd  Nd8  1  0.00600200  0.75018600  0.50758900  1
  Nd  Nd9  1  0.00600200  0.74981400  0.00758900  1
  Nd  Nd10  1  0.00697300  0.02722700  0.12954100  1
  Nd  Nd11  1  0.02878700  0.00376300  0.62859100  1
  Nd  Nd12  1  0.02878700  0.49623700  0.12859100  1
  Nd  Nd13  1  0.00697300  0.47277300  0.62954100  1
  Nd  Nd14  1  0.25000000  0.25149400  0.37354900  1
  Nd  Nd15  1  0.25000000  0.24850600  0.87354900  1
  Nd  Nd16  1  0.25000000  0.99534100  0.25704200  1
  Nd  Nd17  1  0.25000000  0.50465900  0.75704200  1
  Nd  Nd18  1  0.49302700  0.02722700  0.12954100  1
  Nd  Nd19  1  0.47121300  0.49623700  0.12859100  1
  Nd  Nd20  1  0.47121300  0.00376300  0.62859100  1
  Nd  Nd21  1  0.49302700  0.47277300  0.62954100  1
  Nd  Nd22  1  0.49399800  0.74981400  0.00758900  1
  Nd  Nd23  1  0.49399800  0.75018600  0.50758900  1
  Nd  Nd24  1  0.50600200  0.25018600  0.99241100  1
  Nd  Nd25  1  0.50600200  0.24981400  0.49241100  1
  Nd  Nd26  1  0.52878700  0.99623700  0.37140900  1
  Nd  Nd27  1  0.50697300  0.97277300  0.87045900  1
  Nd  Nd28  1  0.50697300  0.52722700  0.37045900  1
  Nd  Nd29  1  0.52878700  0.50376300  0.87140900  1
  Nd  Nd30  1  0.75000000  0.00465900  0.74295800  1
  Nd  Nd31  1  0.75000000  0.49534100  0.24295800  1
  W  W32  1  0.75000000  0.54932400  0.50783300  1
  W  W33  1  0.75000000  0.95067600  0.00783300  1
  W  W34  1  0.75000000  0.55384600  0.01005900  1
  W  W35  1  0.94477600  0.74226700  0.73940300  1
  W  W36  1  0.94477600  0.75773300  0.23940300  1
  W  W37  1  0.05522400  0.25773300  0.26059700  1
  W  W38  1  0.05522400  0.24226700  0.76059700  1
  W  W39  1  0.25000000  0.45067600  0.49216700  1
  W  W40  1  0.25000000  0.44615400  0.98994100  1
  W  W41  1  0.25000000  0.05384600  0.48994100  1
  W  W42  1  0.25000000  0.04932400  0.99216700  1
  W  W43  1  0.25000000  0.75190300  0.14663300  1
  W  W44  1  0.25000000  0.75519400  0.39753500  1
  W  W45  1  0.25000000  0.74809700  0.64663300  1
  W  W46  1  0.25000000  0.74480600  0.89753500  1
  W  W47  1  0.44477600  0.25773300  0.26059700  1
  W  W48  1  0.44477600  0.24226700  0.76059700  1
  W  W49  1  0.55522400  0.74226700  0.73940300  1
  W  W50  1  0.55522400  0.75773300  0.23940300  1
  W  W51  1  0.75000000  0.24809700  0.85336700  1
  W  W52  1  0.75000000  0.25190300  0.35336700  1
  W  W53  1  0.75000000  0.94615400  0.51005900  1
  W  W54  1  0.75000000  0.24480600  0.60246500  1
  W  W55  1  0.75000000  0.25519400  0.10246500  1
  O  O56  1  0.75000000  0.38043800  0.15277400  1
  O  O57  1  0.75000000  0.11956200  0.65277400  1
  O  O58  1  0.75000000  0.39618000  0.63881000  1
  O  O59  1  0.75000000  0.74633600  0.99531200  1
  O  O60  1  0.87914700  0.24925200  0.28851600  1
  O  O61  1  0.87914700  0.25074800  0.78851600  1
  O  O62  1  0.88203200  0.89492100  0.56648200  1
  O  O63  1  0.88029200  0.60179700  0.56405400  1
  O  O64  1  0.88029200  0.89820300  0.06405400  1
  O  O65  1  0.88203200  0.60507900  0.06648200  1
  O  O66  1  0.88948900  0.25027400  0.40252500  1
  O  O67  1  0.88948900  0.24972600  0.90252500  1
  O  O68  1  0.89164500  0.55565400  0.45874200  1
  O  O69  1  0.89298100  0.54663000  0.96182600  1
  O  O70  1  0.89298100  0.95337000  0.46182600  1
  O  O71  1  0.89164500  0.94434600  0.95874200  1
  O  O72  1  0.90224600  0.87388000  0.18144100  1
  O  O73  1  0.89072700  0.61672400  0.18205600  1
  O  O74  1  0.89072700  0.88327600  0.68205600  1
  O  O75  1  0.90224600  0.62612000  0.68144100  1
  O  O76  1  0.93872900  0.24786300  0.58966100  1
  O  O77  1  0.93872900  0.25213700  0.08966100  1
  O  O78  1  0.98905100  0.86966100  0.29373200  1
  O  O79  1  0.94063800  0.60585000  0.28563100  1
  O  O80  1  0.94063800  0.89415000  0.78563100  1
  O  O81  1  0.98905100  0.63033900  0.79373200  1
  O  O82  1  0.05936200  0.10585000  0.21436900  1
  O  O83  1  0.01094900  0.36966100  0.20626800  1
  O  O84  1  0.01094900  0.13033900  0.70626800  1
  O  O85  1  0.05936200  0.39415000  0.71436900  1
  O  O86  1  0.06127100  0.74786300  0.91033900  1
  O  O87  1  0.06127100  0.75213700  0.41033900  1
  O  O88  1  0.09775400  0.37388000  0.31855900  1
  O  O89  1  0.10927300  0.38327600  0.81794400  1
  O  O90  1  0.10927300  0.11672400  0.31794400  1
  O  O91  1  0.09775400  0.12612000  0.81855900  1
  O  O92  1  0.11051100  0.74972600  0.59747500  1
  O  O93  1  0.11051100  0.75027400  0.09747500  1
  O  O94  1  0.10701900  0.04663000  0.53817400  1
  O  O95  1  0.10835500  0.44434600  0.54125800  1
  O  O96  1  0.10835500  0.05565400  0.04125800  1
  O  O97  1  0.10701900  0.45337000  0.03817400  1
  O  O98  1  0.11796800  0.39492100  0.93351800  1
  O  O99  1  0.11796800  0.10507900  0.43351800  1
  O  O100  1  0.11970800  0.10179700  0.93594600  1
  O  O101  1  0.11970800  0.39820300  0.43594600  1
  O  O102  1  0.12085300  0.74925200  0.21148400  1
  O  O103  1  0.12085300  0.75074800  0.71148400  1
  O  O104  1  0.25000000  0.88043800  0.34722600  1
  O  O105  1  0.25000000  0.25609500  0.24713000  1
  O  O106  1  0.25000000  0.89618000  0.86119000  1
  O  O107  1  0.25000000  0.24390500  0.74713000  1
  O  O108  1  0.25000000  0.87627600  0.46928600  1
  O  O109  1  0.25000000  0.25366400  0.00468800  1
  O  O110  1  0.25000000  0.94010500  0.15452900  1
  O  O111  1  0.25000000  0.24633600  0.50468800  1
  O  O112  1  0.25000000  0.60382000  0.36119000  1
  O  O113  1  0.25000000  0.62760700  0.47688600  1
  O  O114  1  0.25000000  0.87239300  0.97688600  1
  O  O115  1  0.25000000  0.93704000  0.64945600  1
  O  O116  1  0.25000000  0.56296000  0.14945600  1
  O  O117  1  0.25000000  0.61956200  0.84722600  1
  O  O118  1  0.25000000  0.55989500  0.65452900  1
  O  O119  1  0.25000000  0.62372400  0.96928600  1
  O  O120  1  0.37914700  0.74925200  0.21148400  1
  O  O121  1  0.37914700  0.75074800  0.71148400  1
  O  O122  1  0.38203200  0.10507900  0.43351800  1
  O  O123  1  0.38029200  0.10179700  0.93594600  1
  O  O124  1  0.38029200  0.39820300  0.43594600  1
  O  O125  1  0.38203200  0.39492100  0.93351800  1
  O  O126  1  0.38948900  0.75027400  0.09747500  1
  O  O127  1  0.39164500  0.05565400  0.04125800  1
  O  O128  1  0.39298100  0.45337000  0.03817400  1
  O  O129  1  0.39298100  0.04663000  0.53817400  1
  O  O130  1  0.39164500  0.44434600  0.54125800  1
  O  O131  1  0.38948900  0.74972600  0.59747500  1
  O  O132  1  0.39072700  0.11672400  0.31794400  1
  O  O133  1  0.40224600  0.37388000  0.31855900  1
  O  O134  1  0.40224600  0.12612000  0.81855900  1
  O  O135  1  0.39072700  0.38327600  0.81794400  1
  O  O136  1  0.43872900  0.74786300  0.91033900  1
  O  O137  1  0.43872900  0.75213700  0.41033900  1
  O  O138  1  0.44063800  0.10585000  0.21436900  1
  O  O139  1  0.48905100  0.36966100  0.20626800  1
  O  O140  1  0.48905100  0.13033900  0.70626800  1
  O  O141  1  0.44063800  0.39415000  0.71436900  1
  O  O142  1  0.51094900  0.86966100  0.29373200  1
  O  O143  1  0.55936200  0.89415000  0.78563100  1
  O  O144  1  0.55936200  0.60585000  0.28563100  1
  O  O145  1  0.51094900  0.63033900  0.79373200  1
  O  O146  1  0.56127100  0.24786300  0.58966100  1
  O  O147  1  0.56127100  0.25213700  0.08966100  1
  O  O148  1  0.59775400  0.87388000  0.18144100  1
  O  O149  1  0.60927300  0.88327600  0.68205600  1
  O  O150  1  0.60927300  0.61672400  0.18205600  1
  O  O151  1  0.59775400  0.62612000  0.68144100  1
  O  O152  1  0.61051100  0.25027400  0.40252500  1
  O  O153  1  0.60835500  0.55565400  0.45874200  1
  O  O154  1  0.60701900  0.95337000  0.46182600  1
  O  O155  1  0.61051100  0.24972600  0.90252500  1
  O  O156  1  0.60701900  0.54663000  0.96182600  1
  O  O157  1  0.60835500  0.94434600  0.95874200  1
  O  O158  1  0.61796800  0.89492100  0.56648200  1
  O  O159  1  0.61970800  0.60179700  0.56405400  1
  O  O160  1  0.61970800  0.89820300  0.06405400  1
  O  O161  1  0.61796800  0.60507900  0.06648200  1
  O  O162  1  0.62085300  0.25074800  0.78851600  1
  O  O163  1  0.62085300  0.24925200  0.28851600  1
  O  O164  1  0.75000000  0.06296000  0.35054400  1
  O  O165  1  0.75000000  0.05989500  0.84547100  1
  O  O166  1  0.75000000  0.10382000  0.13881000  1
  O  O167  1  0.75000000  0.12372400  0.53071400  1
  O  O168  1  0.75000000  0.37239300  0.52311400  1
  O  O169  1  0.75000000  0.44010500  0.34547100  1
  O  O170  1  0.75000000  0.43704000  0.85054400  1
  O  O171  1  0.75000000  0.75609500  0.25287000  1
  O  O172  1  0.75000000  0.75366400  0.49531200  1
  O  O173  1  0.75000000  0.74390500  0.75287000  1
  O  O174  1  0.75000000  0.12760700  0.02311400  1
  O  O175  1  0.75000000  0.37627600  0.03071400  1
