# generated using pymatgen
data_LaAl22O34
_symmetry_space_group_name_H-M   'P 1'
_cell_length_a   9.81579100
_cell_length_b   11.30419523
_cell_length_c   11.82845905
_cell_angle_alpha   103.85832092
_cell_angle_beta   98.02442727
_cell_angle_gamma   90.01157655
_symmetry_Int_Tables_number   1
_chemical_formula_structural   LaAl22O34
_chemical_formula_sum   'La2 Al44 O68'
_cell_volume   1261.02673731
_cell_formula_units_Z   2
loop_
 _symmetry_equiv_pos_site_id
 _symmetry_equiv_pos_as_xyz
  1  'x, y, z'
loop_
 _atom_site_type_symbol
 _atom_site_label
 _atom_site_symmetry_multiplicity
 _atom_site_fract_x
 _atom_site_fract_y
 _atom_site_fract_z
 _atom_site_occupancy
  La  La0  1  0.50000000  0.50000000  0.50000000  1
  La  La1  1  0.00000000  0.00000000  0.50000000  1
  Al  Al2  1  0.50067700  0.75105400  0.00214500  1
  Al  Al3  1  0.45015000  0.42722800  0.20491000  1
  Al  Al4  1  0.45322100  0.67805200  0.21617100  1
  Al  Al5  1  0.49932300  0.24894600  0.99785500  1
  Al  Al6  1  0.32380300  0.48754000  0.94949200  1
  Al  Al7  1  0.27168000  0.41041200  0.64910700  1
  Al  Al8  1  0.22193800  0.33606200  0.35103900  1
  Al  Al9  1  0.20329800  0.05288300  0.21563500  1
  Al  Al10  1  0.95020400  0.17977900  0.21604000  1
  Al  Al11  1  0.45171900  0.92965600  0.21588100  1
  Al  Al12  1  0.45052300  0.17813300  0.21531100  1
  Al  Al13  1  0.17422200  0.26183500  0.05119300  1
  Al  Al14  1  0.32616800  0.98606000  0.94981300  1
  Al  Al15  1  0.05001200  0.07471600  0.79473800  1
  Al  Al16  1  0.29569700  0.19507400  0.78344900  1
  Al  Al17  1  0.27832300  0.91043800  0.64889100  1
  Al  Al18  1  0.22809000  0.83597600  0.35086300  1
  Al  Al19  1  0.70430300  0.80492600  0.21655100  1
  Al  Al20  1  0.95347000  0.67976700  0.21544200  1
  Al  Al21  1  0.20410400  0.55317600  0.21641600  1
  Al  Al22  1  0.94998800  0.92528400  0.20526200  1
  Al  Al23  1  0.17580000  0.76214700  0.04954100  1
  Al  Al24  1  0.82577800  0.73816500  0.94880700  1
  Al  Al25  1  0.00000000  0.00000000  0.00000000  1
  Al  Al26  1  0.04809600  0.57174600  0.78453100  1
  Al  Al27  1  0.79670200  0.94711700  0.78436500  1
  Al  Al28  1  0.04979600  0.82022100  0.78396000  1
  Al  Al29  1  0.29693100  0.69502300  0.78455100  1
  Al  Al30  1  0.77806200  0.66393800  0.64896100  1
  Al  Al31  1  0.72832000  0.58958800  0.35089300  1
  Al  Al32  1  0.70306900  0.30497700  0.21544900  1
  Al  Al33  1  0.95190400  0.42825400  0.21546900  1
  Al  Al34  1  0.67619700  0.51246000  0.05050800  1
  Al  Al35  1  0.82420000  0.23785300  0.95045900  1
  Al  Al36  1  0.00000000  0.50000000  0.00000000  1
  Al  Al37  1  0.54677900  0.32194800  0.78382900  1
  Al  Al38  1  0.54985000  0.57277200  0.79509000  1
  Al  Al39  1  0.79589600  0.44682400  0.78358400  1
  Al  Al40  1  0.04653000  0.32023300  0.78455800  1
  Al  Al41  1  0.77191000  0.16402400  0.64913700  1
  Al  Al42  1  0.72167700  0.08956200  0.35110900  1
  Al  Al43  1  0.67383200  0.01394000  0.05018700  1
  Al  Al44  1  0.54947700  0.82186700  0.78468900  1
  Al  Al45  1  0.54828100  0.07034400  0.78411900  1
  O  O46  1  0.45492300  0.67506100  0.71332700  1
  O  O47  1  0.35168800  0.52778400  0.11116400  1
  O  O48  1  0.40479100  0.34370000  0.89897200  1
  O  O49  1  0.40661500  0.60724900  0.90082800  1
  O  O50  1  0.45181600  0.17899300  0.71627400  1
  O  O51  1  0.19908900  0.30000700  0.70865500  1
  O  O52  1  0.45444300  0.43010700  0.70628000  1
  O  O53  1  0.28088300  0.39057100  0.50012600  1
  O  O54  1  0.29668400  0.19649900  0.28867300  1
  O  O55  1  0.30476400  0.44899500  0.29383000  1
  O  O56  1  0.35186300  0.02718500  0.11077000  1
  O  O57  1  0.09386100  0.14158000  0.10106300  1
  O  O58  1  0.35947100  0.27567600  0.09877400  1
  O  O59  1  0.14067600  0.97583200  0.90073100  1
  O  O60  1  0.90633800  0.09322300  0.90069700  1
  O  O61  1  0.40710700  0.84126600  0.89950000  1
  O  O62  1  0.40278500  0.10668600  0.89893000  1
  O  O63  1  0.14809900  0.22178500  0.88941900  1
  O  O64  1  0.95489200  0.93142700  0.71324800  1
  O  O65  1  0.20377600  0.80185400  0.71096500  1
  O  O66  1  0.19531200  0.05200000  0.70604600  1
  O  O67  1  0.95455800  0.17291000  0.70639500  1
  O  O68  1  0.45419200  0.92632800  0.70844700  1
  O  O69  1  0.21926400  0.89054900  0.49988600  1
  O  O70  1  0.80468800  0.94800000  0.29395400  1
  O  O71  1  0.04544200  0.82709000  0.29360500  1
  O  O72  1  0.30064400  0.69574100  0.29174600  1
  O  O73  1  0.29825700  0.94660100  0.28884500  1
  O  O74  1  0.04510800  0.06857300  0.28675200  1
  O  O75  1  0.85190100  0.77821500  0.11058100  1
  O  O76  1  0.09428300  0.64426600  0.10046600  1
  O  O77  1  0.85932400  0.02416800  0.09926900  1
  O  O78  1  0.09366200  0.90677700  0.09930300  1
  O  O79  1  0.36006000  0.77445500  0.09923600  1
  O  O80  1  0.64052900  0.72432400  0.90122600  1
  O  O81  1  0.90313800  0.59261700  0.89900500  1
  O  O82  1  0.13972900  0.47537000  0.90130000  1
  O  O83  1  0.90613900  0.85842000  0.89893700  1
  O  O84  1  0.14842400  0.72243100  0.88869200  1
  O  O85  1  0.95187400  0.42894800  0.71638200  1
  O  O86  1  0.69523600  0.55100500  0.70617000  1
  O  O87  1  0.70331600  0.80350100  0.71132700  1
  O  O88  1  0.20163700  0.55202900  0.71140600  1
  O  O89  1  0.95400800  0.67766200  0.70838400  1
  O  O90  1  0.71911700  0.60942900  0.49987400  1
  O  O91  1  0.54555700  0.56989300  0.29372000  1
  O  O92  1  0.79836300  0.44797100  0.28859400  1
  O  O93  1  0.04599200  0.32233800  0.29161600  1
  O  O94  1  0.80091100  0.69999300  0.29134500  1
  O  O95  1  0.04812600  0.57105200  0.28361800  1
  O  O96  1  0.85157600  0.27756900  0.11130800  1
  O  O97  1  0.59338500  0.39275100  0.09917200  1
  O  O98  1  0.59520900  0.65630000  0.10102800  1
  O  O99  1  0.86027100  0.52463000  0.09870000  1
  O  O100  1  0.09686200  0.40738300  0.10099500  1
  O  O101  1  0.63994000  0.22554500  0.90076400  1
  O  O102  1  0.90571700  0.35573400  0.89953400  1
  O  O103  1  0.64831200  0.47221600  0.88883600  1
  O  O104  1  0.70174300  0.05339900  0.71115500  1
  O  O105  1  0.69935600  0.30425900  0.70825400  1
  O  O106  1  0.78073600  0.10945100  0.50011400  1
  O  O107  1  0.54580800  0.07367200  0.29155300  1
  O  O108  1  0.79622400  0.19814600  0.28903500  1
  O  O109  1  0.54507700  0.32493900  0.28667300  1
  O  O110  1  0.59721500  0.89331400  0.10107000  1
  O  O111  1  0.59289300  0.15873400  0.10050000  1
  O  O112  1  0.64813700  0.97281500  0.88923000  1
  O  O113  1  0.54818400  0.82100700  0.28372600  1
