# generated using pymatgen
data_Sr2La14Mg4(Fe4O15)3
_symmetry_space_group_name_H-M   'P 1'
_cell_length_a   5.63867200
_cell_length_b   7.94419146
_cell_length_c   22.57416709
_cell_angle_alpha   90.16747773
_cell_angle_beta   90.02187346
_cell_angle_gamma   90.01959578
_symmetry_Int_Tables_number   1
_chemical_formula_structural   Sr2La14Mg4(Fe4O15)3
_chemical_formula_sum   'Sr2 La14 Mg4 Fe12 O45'
_cell_volume   1011.19836317
_cell_formula_units_Z   1
loop_
 _symmetry_equiv_pos_site_id
 _symmetry_equiv_pos_as_xyz
  1  'x, y, z'
loop_
 _atom_site_type_symbol
 _atom_site_label
 _atom_site_symmetry_multiplicity
 _atom_site_fract_x
 _atom_site_fract_y
 _atom_site_fract_z
 _atom_site_occupancy
  Sr  Sr0  1  0.99415400  0.75205000  0.01056200  1
  Sr  Sr1  1  0.98628600  0.74945600  0.75598200  1
  La  La2  1  0.98457300  0.74438900  0.50384000  1
  La  La3  1  0.99338500  0.75282500  0.24744700  1
  La  La4  1  0.52687500  0.75444900  0.88626200  1
  La  La5  1  0.52666600  0.74571100  0.63378000  1
  La  La6  1  0.52249300  0.74896200  0.37826700  1
  La  La7  1  0.51072200  0.75199800  0.12708800  1
  La  La8  1  0.48476000  0.24601900  0.87285200  1
  La  La9  1  0.48235800  0.25211300  0.62014500  1
  La  La10  1  0.48600500  0.25160300  0.37027000  1
  La  La11  1  0.49316200  0.25056200  0.11879700  1
  La  La12  1  0.01817900  0.25123500  0.74611900  1
  La  La13  1  0.01660500  0.25286200  0.49249200  1
  La  La14  1  0.01150700  0.25080600  0.24201500  1
  La  La15  1  0.00028700  0.24546400  0.99867500  1
  Mg  Mg16  1  0.99189700  0.01677300  0.87543600  1
  Mg  Mg17  1  0.99344800  0.47968300  0.62489500  1
  Mg  Mg18  1  0.99075500  0.48245900  0.37331500  1
  Mg  Mg19  1  0.98924600  0.01787800  0.37347900  1
  Fe  Fe20  1  0.50037700  0.50496900  0.00035400  1
  Fe  Fe21  1  0.50544800  0.50437500  0.75014500  1
  Fe  Fe22  1  0.50432300  0.50545800  0.25107900  1
  Fe  Fe23  1  0.50169800  0.50593600  0.50003500  1
  Fe  Fe24  1  0.50386100  0.99555200  0.99888500  1
  Fe  Fe25  1  0.50334100  0.99336200  0.75271600  1
  Fe  Fe26  1  0.50212100  0.99712300  0.25138100  1
  Fe  Fe27  1  0.50197100  0.99335100  0.49797200  1
  Fe  Fe28  1  0.98910700  0.48220500  0.87627400  1
  Fe  Fe29  1  0.00275400  0.49770900  0.12492500  1
  Fe  Fe30  1  0.99188800  0.01935400  0.62431200  1
  Fe  Fe31  1  0.00243400  0.00393500  0.12498800  1
  O  O32  1  0.08147400  0.75073400  0.12668700  1
  O  O33  1  0.22735800  0.04692100  0.80622700  1
  O  O34  1  0.22980500  0.01842800  0.30773500  1
  O  O35  1  0.23038000  0.03545700  0.55783500  1
  O  O36  1  0.22612200  0.45822600  0.80883400  1
  O  O37  1  0.22671900  0.05235800  0.05636600  1
  O  O38  1  0.23847600  0.46403000  0.55896700  1
  O  O39  1  0.24127300  0.48308600  0.30996800  1
  O  O40  1  0.22740700  0.44565900  0.05660300  1
  O  O41  1  0.27440100  0.48164400  0.92863700  1
  O  O42  1  0.27107400  0.45242700  0.68259500  1
  O  O43  1  0.26770200  0.46011200  0.43345000  1
  O  O44  1  0.27318000  0.44440500  0.18320700  1
  O  O45  1  0.28296400  0.01706700  0.92807500  1
  O  O46  1  0.27113000  0.03893400  0.67899500  1
  O  O47  1  0.27518500  0.04063200  0.43140400  1
  O  O48  1  0.27431300  0.05710600  0.18258700  1
  O  O49  1  0.43224800  0.74906900  0.00544600  1
  O  O50  1  0.42101800  0.74968800  0.74318400  1
  O  O51  1  0.40713700  0.75103600  0.49636800  1
  O  O52  1  0.41889900  0.75084600  0.23655500  1
  O  O53  1  0.59402700  0.24926500  0.75399200  1
  O  O54  1  0.58644000  0.25153100  0.26155100  1
  O  O55  1  0.59245500  0.24627500  0.50433500  1
  O  O56  1  0.57657900  0.25252400  0.99326600  1
  O  O57  1  0.72544700  0.94682000  0.82026100  1
  O  O58  1  0.73527500  0.55296400  0.82070000  1
  O  O59  1  0.74863900  0.93035000  0.56825100  1
  O  O60  1  0.73567400  0.93379800  0.31712200  1
  O  O61  1  0.71973500  0.97471600  0.07101000  1
  O  O62  1  0.74423400  0.56218400  0.56666700  1
  O  O63  1  0.74638800  0.57263800  0.31609300  1
  O  O64  1  0.72045300  0.52868400  0.07058600  1
  O  O65  1  0.77705500  0.94664100  0.68875200  1
  O  O66  1  0.76772700  0.55141300  0.68961100  1
  O  O67  1  0.77597900  0.94431900  0.94269200  1
  O  O68  1  0.77799500  0.56178400  0.94094900  1
  O  O69  1  0.77780100  0.96663200  0.19392000  1
  O  O70  1  0.77796200  0.53568300  0.19358600  1
  O  O71  1  0.77602000  0.93298300  0.44107800  1
  O  O72  1  0.76961800  0.56041700  0.44030800  1
  O  O73  1  0.90950400  0.25332400  0.88349900  1
  O  O74  1  0.90108100  0.24552000  0.62411600  1
  O  O75  1  0.89559600  0.25022900  0.38114500  1
  O  O76  1  0.91756500  0.25081500  0.12938300  1
