# generated using pymatgen
data_Ca18Nd2Si3P9(O16F)3
_symmetry_space_group_name_H-M   'P 1'
_cell_length_a   13.89648200
_cell_length_b   9.53799800
_cell_length_c   9.57541661
_cell_angle_alpha   60.17222626
_cell_angle_beta   90.00000000
_cell_angle_gamma   90.00000000
_symmetry_Int_Tables_number   1
_chemical_formula_structural   Ca18Nd2Si3P9(O16F)3
_chemical_formula_sum   'Ca18 Nd2 Si3 P9 O48 F3'
_cell_volume   1101.03594366
_cell_formula_units_Z   1
loop_
 _symmetry_equiv_pos_site_id
 _symmetry_equiv_pos_as_xyz
  1  'x, y, z'
loop_
 _atom_site_type_symbol
 _atom_site_label
 _atom_site_symmetry_multiplicity
 _atom_site_fract_x
 _atom_site_fract_y
 _atom_site_fract_z
 _atom_site_occupancy
  Ca  Ca0  1  0.24994100  0.00239500  0.75430700  1
  Ca  Ca1  1  0.75005900  0.00239500  0.75430700  1
  Ca  Ca2  1  0.25044000  0.24232500  0.00067100  1
  Ca  Ca3  1  0.74956000  0.24232500  0.00067100  1
  Ca  Ca4  1  0.37513600  0.66049000  0.67513400  1
  Ca  Ca5  1  0.87574400  0.66615600  0.66989400  1
  Ca  Ca6  1  0.12425600  0.66615600  0.66989400  1
  Ca  Ca7  1  0.62486400  0.66049000  0.67513400  1
  Ca  Ca8  1  0.50000000  0.27699200  0.72673800  1
  Ca  Ca9  1  0.25027600  0.75513300  0.24571100  1
  Ca  Ca10  1  0.74972400  0.75513300  0.24571100  1
  Ca  Ca11  1  0.12213100  0.32640800  0.33215000  1
  Ca  Ca12  1  0.62446700  0.33011600  0.33280500  1
  Ca  Ca13  1  0.87786900  0.32640800  0.33215000  1
  Ca  Ca14  1  0.37553300  0.33011600  0.33280500  1
  Ca  Ca15  1  0.50000000  0.71538800  0.00557800  1
  Ca  Ca16  1  0.00000000  0.00487700  0.25962500  1
  Ca  Ca17  1  0.50000000  0.01414700  0.27178900  1
  Nd  Nd18  1  0.00000000  0.24066900  0.75296500  1
  Nd  Nd19  1  0.00000000  0.74962800  0.00201800  1
  Si  Si20  1  0.00000000  0.39316200  0.97120600  1
  Si  Si21  1  0.50000000  0.38095300  0.97459500  1
  Si  Si22  1  0.00000000  0.97514900  0.63544100  1
  P  P23  1  0.50000000  0.97222000  0.64626300  1
  P  P24  1  0.25175900  0.37669800  0.59290800  1
  P  P25  1  0.74824100  0.37669800  0.59290800  1
  P  P26  1  0.00000000  0.63617300  0.38952900  1
  P  P27  1  0.50000000  0.64840800  0.37958000  1
  P  P28  1  0.24998200  0.02622800  0.37471100  1
  P  P29  1  0.75001800  0.02622800  0.37471100  1
  P  P30  1  0.25123400  0.59665400  0.02994900  1
  P  P31  1  0.74876600  0.59665400  0.02994900  1
  O  O32  1  0.90770600  0.91955600  0.76161800  1
  O  O33  1  0.41106900  0.91967600  0.75954700  1
  O  O34  1  0.09229400  0.91955600  0.76161800  1
  O  O35  1  0.58893100  0.91967600  0.75954700  1
  O  O36  1  0.25113700  0.66707000  0.84542500  1
  O  O37  1  0.74886300  0.66707000  0.84542500  1
  O  O38  1  0.00000000  0.59367800  0.87399200  1
  O  O39  1  0.50000000  0.58174200  0.87024300  1
  O  O40  1  0.09328800  0.33646900  0.90417100  1
  O  O41  1  0.59321000  0.31789600  0.91499600  1
  O  O42  1  0.90671200  0.33646900  0.90417100  1
  O  O43  1  0.40679000  0.31789600  0.91499600  1
  O  O44  1  0.00000000  0.87301500  0.53957600  1
  O  O45  1  0.50000000  0.87710700  0.55160200  1
  O  O46  1  0.25227900  0.49531800  0.65846400  1
  O  O47  1  0.74772100  0.49531800  0.65846400  1
  O  O48  1  0.25114100  0.84115400  0.49020000  1
  O  O49  1  0.74885900  0.84115400  0.49020000  1
  O  O50  1  0.00000000  0.53541200  0.57793000  1
  O  O51  1  0.50000000  0.55668700  0.56845100  1
  O  O52  1  0.34174900  0.26599000  0.64451600  1
  O  O53  1  0.83726000  0.26214400  0.65694600  1
  O  O54  1  0.65825100  0.26599000  0.64451600  1
  O  O55  1  0.16274000  0.26214400  0.65694600  1
  O  O56  1  0.91018900  0.74697600  0.33283600  1
  O  O57  1  0.41128300  0.76206700  0.31764600  1
  O  O58  1  0.08981100  0.74697600  0.33283600  1
  O  O59  1  0.58871700  0.76206700  0.31764600  1
  O  O60  1  0.24768700  0.46860700  0.40535100  1
  O  O61  1  0.75231300  0.46860700  0.40535100  1
  O  O62  1  0.00000000  0.17206000  0.51865600  1
  O  O63  1  0.50000000  0.15614100  0.52428800  1
  O  O64  1  0.00000000  0.52283400  0.31607800  1
  O  O65  1  0.50000000  0.52309900  0.32089800  1
  O  O66  1  0.24853200  0.12017200  0.46971800  1
  O  O67  1  0.75146800  0.12017200  0.46971800  1
  O  O68  1  0.34040500  0.65275400  0.08654600  1
  O  O69  1  0.83864500  0.65561300  0.08402100  1
  O  O70  1  0.16135500  0.65561300  0.08402100  1
  O  O71  1  0.65959500  0.65275400  0.08654600  1
  O  O72  1  0.75028100  0.40864900  0.12227400  1
  O  O73  1  0.24971900  0.40864900  0.12227400  1
  O  O74  1  0.00000000  0.31799500  0.16586100  1
  O  O75  1  0.50000000  0.31758600  0.16907200  1
  O  O76  1  0.16122500  0.07996100  0.26147500  1
  O  O77  1  0.65957200  0.08317400  0.26508400  1
  O  O78  1  0.34042800  0.08317400  0.26508400  1
  O  O79  1  0.83877500  0.07996100  0.26147500  1
  F  F80  1  0.25143900  0.99661700  0.00050900  1
  F  F81  1  0.74856100  0.99661700  0.00050900  1
  F  F82  1  0.00000000  0.99994200  0.00886300  1
