# generated using pymatgen
data_Ga2NiO4
_symmetry_space_group_name_H-M   'P 1'
_cell_length_a   5.91552830
_cell_length_b   5.91552830
_cell_length_c   19.56325313
_cell_angle_alpha   81.51376866
_cell_angle_beta   81.51376866
_cell_angle_gamma   60.62245012
_symmetry_Int_Tables_number   1
_chemical_formula_structural   Ga2NiO4
_chemical_formula_sum   'Ga16 Ni8 O32'
_cell_volume   587.77222478
_cell_formula_units_Z   8
loop_
 _symmetry_equiv_pos_site_id
 _symmetry_equiv_pos_as_xyz
  1  'x, y, z'
loop_
 _atom_site_type_symbol
 _atom_site_label
 _atom_site_symmetry_multiplicity
 _atom_site_fract_x
 _atom_site_fract_y
 _atom_site_fract_z
 _atom_site_occupancy
  Ga  Ga0  1  0.30691700  0.30691700  0.06144300  1
  Ga  Ga1  1  0.78276000  0.27756400  0.15812700  1
  Ga  Ga2  1  0.65675500  0.65675500  0.02807900  1
  Ga  Ga3  1  0.55628200  0.55628200  0.31511600  1
  Ga  Ga4  1  0.27756400  0.78276000  0.15812700  1
  Ga  Ga5  1  0.25584800  0.25584800  0.25046700  1
  Ga  Ga6  1  0.03114200  0.53134400  0.40698600  1
  Ga  Ga7  1  0.80639600  0.80639600  0.56476800  1
  Ga  Ga8  1  0.75643500  0.75643500  0.74666200  1
  Ga  Ga9  1  0.53134400  0.03114200  0.40698600  1
  Ga  Ga10  1  0.28137800  0.78139400  0.65622000  1
  Ga  Ga11  1  0.50618300  0.50618300  0.49842100  1
  Ga  Ga12  1  0.05601700  0.05601700  0.81466100  1
  Ga  Ga13  1  0.78139400  0.28137800  0.65622000  1
  Ga  Ga14  1  0.53224100  0.02907500  0.90467400  1
  Ga  Ga15  1  0.02907500  0.53224100  0.90467400  1
  Ni  Ni16  1  0.00293600  0.00293600  0.00039600  1
  Ni  Ni17  1  0.78172100  0.78172100  0.15784900  1
  Ni  Ni18  1  0.03109400  0.03109400  0.40674600  1
  Ni  Ni19  1  0.90613600  0.90613600  0.28190600  1
  Ni  Ni20  1  0.28130400  0.28130400  0.65605900  1
  Ni  Ni21  1  0.15620300  0.15620300  0.53137200  1
  Ni  Ni22  1  0.53227900  0.53227900  0.90477200  1
  Ni  Ni23  1  0.40622000  0.40622000  0.78086300  1
  O  O24  1  0.94577100  0.47429300  0.09449400  1
  O  O25  1  0.58996900  0.58996900  0.21459000  1
  O  O26  1  0.47429300  0.94577100  0.09449400  1
  O  O27  1  0.47608900  0.47608900  0.09492200  1
  O  O28  1  0.09207300  0.09207300  0.21703100  1
  O  O29  1  0.20123500  0.71743900  0.34701200  1
  O  O30  1  0.84084800  0.84084800  0.46501600  1
  O  O31  1  0.09553100  0.60782300  0.21699600  1
  O  O32  1  0.71743900  0.20123500  0.34701200  1
  O  O33  1  0.97284700  0.97284700  0.10525800  1
  O  O34  1  0.60782300  0.09553100  0.21699600  1
  O  O35  1  0.72300100  0.72300100  0.34720000  1
  O  O36  1  0.33981800  0.33981800  0.46558000  1
  O  O37  1  0.45123300  0.96758300  0.59670200  1
  O  O38  1  0.09084800  0.09084800  0.71485400  1
  O  O39  1  0.34522300  0.86095200  0.46575500  1
  O  O40  1  0.96758300  0.45123300  0.59670200  1
  O  O41  1  0.22146200  0.22146200  0.34918100  1
  O  O42  1  0.86095200  0.34522300  0.46575500  1
  O  O43  1  0.97315600  0.97315600  0.59696500  1
  O  O44  1  0.58931600  0.58931600  0.71464800  1
  O  O45  1  0.70091500  0.21750200  0.84635700  1
  O  O46  1  0.59474000  0.11222200  0.71499500  1
  O  O47  1  0.34134700  0.34134700  0.96373000  1
  O  O48  1  0.21750200  0.70091500  0.84635700  1
  O  O49  1  0.47174500  0.47174500  0.59738900  1
  O  O50  1  0.11222200  0.59474000  0.71499500  1
  O  O51  1  0.22248200  0.22248200  0.84707300  1
  O  O52  1  0.83230500  0.83230500  0.96394800  1
  O  O53  1  0.83743300  0.37534900  0.96584500  1
  O  O54  1  0.72182800  0.72182800  0.84470500  1
  O  O55  1  0.37534900  0.83743300  0.96584500  1
