# generated using pymatgen
data_Li2Fe3NiO8
_symmetry_space_group_name_H-M   'P 1'
_cell_length_a   8.38819600
_cell_length_b   8.34529300
_cell_length_c   8.40217696
_cell_angle_alpha   89.89938326
_cell_angle_beta   90.00000000
_cell_angle_gamma   90.00000000
_symmetry_Int_Tables_number   1
_chemical_formula_structural   Li2Fe3NiO8
_chemical_formula_sum   'Li8 Fe12 Ni4 O32'
_cell_volume   588.16789246
_cell_formula_units_Z   4
loop_
 _symmetry_equiv_pos_site_id
 _symmetry_equiv_pos_as_xyz
  1  'x, y, z'
loop_
 _atom_site_type_symbol
 _atom_site_label
 _atom_site_symmetry_multiplicity
 _atom_site_fract_x
 _atom_site_fract_y
 _atom_site_fract_z
 _atom_site_occupancy
  Li  Li0  1  0.12200400  0.12784500  0.12426400  1
  Li  Li1  1  0.25210800  0.00084000  0.75403400  1
  Li  Li2  1  0.24979500  0.50091100  0.25266200  1
  Li  Li3  1  0.37518300  0.37393100  0.62213800  1
  Li  Li4  1  0.62200400  0.87215500  0.87573600  1
  Li  Li5  1  0.75210800  0.99916000  0.24596600  1
  Li  Li6  1  0.74979500  0.49908900  0.74733800  1
  Li  Li7  1  0.87518300  0.62606900  0.37786200  1
  Fe  Fe8  1  0.11794400  0.87383700  0.37342900  1
  Fe  Fe9  1  0.12363900  0.62655000  0.62140400  1
  Fe  Fe10  1  0.12604800  0.37024500  0.87892900  1
  Fe  Fe11  1  0.37320600  0.13190400  0.37617400  1
  Fe  Fe12  1  0.37658400  0.87536400  0.11644800  1
  Fe  Fe13  1  0.38424500  0.62585300  0.87500000  1
  Fe  Fe14  1  0.61794400  0.12616300  0.62657100  1
  Fe  Fe15  1  0.62363900  0.37345000  0.37859600  1
  Fe  Fe16  1  0.62604800  0.62975500  0.12107100  1
  Fe  Fe17  1  0.87320600  0.86809600  0.62382600  1
  Fe  Fe18  1  0.87658400  0.12463600  0.88355200  1
  Fe  Fe19  1  0.88424500  0.37414700  0.12500000  1
  Ni  Ni20  1  0.99950600  0.75003100  0.00053700  1
  Ni  Ni21  1  0.49689100  0.75236800  0.49873600  1
  Ni  Ni22  1  0.49950600  0.24996900  0.99946300  1
  Ni  Ni23  1  0.99689100  0.24763200  0.50126400  1
  O  O24  1  0.10539600  0.37771500  0.11328900  1
  O  O25  1  0.10961500  0.14518200  0.87163300  1
  O  O26  1  0.11702500  0.85895600  0.61753000  1
  O  O27  1  0.12628300  0.63966300  0.39719600  1
  O  O28  1  0.12144600  0.39774900  0.63905400  1
  O  O29  1  0.13509500  0.61484200  0.86626400  1
  O  O30  1  0.13350800  0.86507800  0.13394200  1
  O  O31  1  0.13778300  0.10783100  0.37803400  1
  O  O32  1  0.36369600  0.38443500  0.88482300  1
  O  O33  1  0.35640900  0.62523600  0.64155100  1
  O  O34  1  0.35424100  0.88977300  0.35246900  1
  O  O35  1  0.38313900  0.11318600  0.13235300  1
  O  O36  1  0.37615800  0.86182200  0.89545800  1
  O  O37  1  0.38577700  0.63685400  0.11527500  1
  O  O38  1  0.38895400  0.35723100  0.37395300  1
  O  O39  1  0.39624000  0.12252600  0.61319300  1
  O  O40  1  0.60539600  0.62228500  0.88671100  1
  O  O41  1  0.60961500  0.85481800  0.12836700  1
  O  O42  1  0.61702500  0.14104400  0.38247000  1
  O  O43  1  0.62628300  0.36033700  0.60280400  1
  O  O44  1  0.62144600  0.60225100  0.36094600  1
  O  O45  1  0.63509500  0.38515800  0.13373600  1
  O  O46  1  0.63350800  0.13492200  0.86605800  1
  O  O47  1  0.63778300  0.89216900  0.62196600  1
  O  O48  1  0.86369600  0.61556500  0.11517700  1
  O  O49  1  0.85640900  0.37476400  0.35844900  1
  O  O50  1  0.85424100  0.11022700  0.64753100  1
  O  O51  1  0.88313900  0.88681400  0.86764700  1
  O  O52  1  0.87615800  0.13817800  0.10454200  1
  O  O53  1  0.88577700  0.36314600  0.88472500  1
  O  O54  1  0.88895400  0.64276900  0.62604700  1
  O  O55  1  0.89624000  0.87747400  0.38680700  1
