# generated using pymatgen
data_Na26In4O19
_symmetry_space_group_name_H-M   'P 1'
_cell_length_a   12.48743002
_cell_length_b   12.48743002
_cell_length_c   12.48168558
_cell_angle_alpha   70.42894296
_cell_angle_beta   70.42894296
_cell_angle_gamma   108.97344728
_symmetry_Int_Tables_number   1
_chemical_formula_structural   Na26In4O19
_chemical_formula_sum   'Na52 In8 O38'
_cell_volume   1503.74155323
_cell_formula_units_Z   2
loop_
 _symmetry_equiv_pos_site_id
 _symmetry_equiv_pos_as_xyz
  1  'x, y, z'
loop_
 _atom_site_type_symbol
 _atom_site_label
 _atom_site_symmetry_multiplicity
 _atom_site_fract_x
 _atom_site_fract_y
 _atom_site_fract_z
 _atom_site_occupancy
  Na  Na0  1  0.18563400  0.55692400  0.85782900  1
  Na  Na1  1  0.44063900  0.68167200  0.64869000  1
  Na  Na2  1  0.14726200  0.59039700  0.17403400  1
  Na  Na3  1  0.32108400  0.64173100  0.41103700  1
  Na  Na4  1  0.73489700  0.55436000  0.59194900  1
  Na  Na5  1  0.86887200  0.61721500  0.75716700  1
  Na  Na6  1  0.41043400  0.85446800  0.45815900  1
  Na  Na7  1  0.35578000  0.54256900  0.08634600  1
  Na  Na8  1  0.63824000  0.68333900  0.44596400  1
  Na  Na9  1  0.89563700  0.82240000  0.51841100  1
  Na  Na10  1  0.08510800  0.65103000  0.53907800  1
  Na  Na11  1  0.94982600  0.60291400  0.36931600  1
  Na  Na12  1  0.55436000  0.73489700  0.09194900  1
  Na  Na13  1  0.81608600  0.68139800  0.22871700  1
  Na  Na14  1  0.17074300  0.75902600  0.68473100  1
  Na  Na15  1  0.38030200  0.75508700  0.87498200  1
  Na  Na16  1  0.61721500  0.86887200  0.25716700  1
  Na  Na17  1  0.68333900  0.63824000  0.94596400  1
  Na  Na18  1  0.84721200  0.94705200  0.30138300  1
  Na  Na19  1  0.82240000  0.89563700  0.01841100  1
  Na  Na20  1  0.60291400  0.94982600  0.86931600  1
  Na  Na21  1  0.65103000  0.08510800  0.03907800  1
  Na  Na22  1  0.75902600  0.17074300  0.18473100  1
  Na  Na23  1  0.68139800  0.81608600  0.72871700  1
  Na  Na24  1  0.04492900  0.90078500  0.16368100  1
  Na  Na25  1  0.05599100  0.14035800  0.31635500  1
  Na  Na26  1  0.94705200  0.84721200  0.80138300  1
  Na  Na27  1  0.41576900  0.05753000  0.25603200  1
  Na  Na28  1  0.23880400  0.91255100  0.93845100  1
  Na  Na29  1  0.24634500  0.11358600  0.13465200  1
  Na  Na30  1  0.90078500  0.04492900  0.66368100  1
  Na  Na31  1  0.14035800  0.05599100  0.81635500  1
  Na  Na32  1  0.18644400  0.35045600  0.05622900  1
  Na  Na33  1  0.37422700  0.96090100  0.68238100  1
  Na  Na34  1  0.45664700  0.31260600  0.12999800  1
  Na  Na35  1  0.44052400  0.12984400  0.91051000  1
  Na  Na36  1  0.05753000  0.41576900  0.75603200  1
  Na  Na37  1  0.91255100  0.23880400  0.43845100  1
  Na  Na38  1  0.31493100  0.25865200  0.83229700  1
  Na  Na39  1  0.11358600  0.24634500  0.63465200  1
  Na  Na40  1  0.35045600  0.18644400  0.55622900  1
  Na  Na41  1  0.64173100  0.32108400  0.91103700  1
  Na  Na42  1  0.59039700  0.14726200  0.67403400  1
  Na  Na43  1  0.96090100  0.37422700  0.18238100  1
  Na  Na44  1  0.31260600  0.45664700  0.62999800  1
  Na  Na45  1  0.12984400  0.44052400  0.41051000  1
  Na  Na46  1  0.25865200  0.31493100  0.33229700  1
  Na  Na47  1  0.85446800  0.41043400  0.95815900  1
  Na  Na48  1  0.54256900  0.35578000  0.58634600  1
  Na  Na49  1  0.55692400  0.18563400  0.35782900  1
  Na  Na50  1  0.75508700  0.38030200  0.37498200  1
  Na  Na51  1  0.68167200  0.44063900  0.14869000  1
  In  In52  1  0.49743600  0.49743800  0.82057000  1
  In  In53  1  0.49743800  0.49743600  0.32057000  1
  In  In54  1  0.18168400  0.00117600  0.50146100  1
  In  In55  1  0.00073700  0.68375100  0.00026500  1
  In  In56  1  0.31424400  0.82013000  0.18243900  1
  In  In57  1  0.68375100  0.00073700  0.50026500  1
  In  In58  1  0.00117600  0.18168400  0.00146100  1
  In  In59  1  0.82013000  0.31424400  0.68243900  1
  O  O60  1  0.36632000  0.56243500  0.88479900  1
  O  O61  1  0.25106300  0.62668900  0.62340200  1
  O  O62  1  0.49666600  0.49741900  0.65033500  1
  O  O63  1  0.69145800  0.62508400  0.75465200  1
  O  O64  1  0.49741900  0.49666600  0.15033500  1
  O  O65  1  0.60907200  0.86473000  0.44519200  1
  O  O66  1  0.62508400  0.69145800  0.25465200  1
  O  O67  1  0.38771500  0.75274800  0.05471000  1
  O  O68  1  0.44607000  0.88553200  0.24608400  1
  O  O69  1  0.85739100  0.74413700  0.37632700  1
  O  O70  1  0.04373100  0.80554300  0.59171300  1
  O  O71  1  0.94231700  0.55666200  0.19407300  1
  O  O72  1  0.15339800  0.64197600  0.34791100  1
  O  O73  1  0.86473000  0.60907200  0.94519200  1
  O  O74  1  0.74413700  0.85739100  0.87632700  1
  O  O75  1  0.55666200  0.94231700  0.69407300  1
  O  O76  1  0.80554300  0.04373100  0.09171300  1
  O  O77  1  0.35373100  0.00108000  0.49795200  1
  O  O78  1  0.99911900  0.85260300  0.00292300  1
  O  O79  1  0.06514400  0.11585100  0.13397600  1
  O  O80  1  0.25045800  0.13598100  0.30756100  1
  O  O81  1  0.19564600  0.74955100  0.86624000  1
  O  O82  1  0.26100800  0.95198700  0.09775500  1
  O  O83  1  0.00108000  0.35373100  0.99795200  1
  O  O84  1  0.85260300  0.99911900  0.50292300  1
  O  O85  1  0.11585100  0.06514400  0.63397600  1
  O  O86  1  0.74955100  0.19564600  0.36624000  1
  O  O87  1  0.13598100  0.25045800  0.80756100  1
  O  O88  1  0.95198700  0.26100800  0.59775500  1
  O  O89  1  0.62668900  0.25106300  0.12340200  1
  O  O90  1  0.37490800  0.12738900  0.74588100  1
  O  O91  1  0.43168900  0.30288600  0.95180100  1
  O  O92  1  0.64197600  0.15339800  0.84791100  1
  O  O93  1  0.12738900  0.37490800  0.24588100  1
  O  O94  1  0.30288600  0.43168900  0.45180100  1
  O  O95  1  0.56243500  0.36632000  0.38479900  1
  O  O96  1  0.75274800  0.38771500  0.55471000  1
  O  O97  1  0.88553200  0.44607000  0.74608400  1
