# generated using pymatgen
data_Ba5Sr2Nd8(CuO5)5
_symmetry_space_group_name_H-M   'P 1'
_cell_length_a   5.84597000
_cell_length_b   6.79262700
_cell_length_c   33.95873100
_cell_angle_alpha   90.00000000
_cell_angle_beta   90.00000000
_cell_angle_gamma   90.00000000
_symmetry_Int_Tables_number   1
_chemical_formula_structural   Ba5Sr2Nd8(CuO5)5
_chemical_formula_sum   'Ba10 Sr4 Nd16 Cu10 O50'
_cell_volume   1348.48401345
_cell_formula_units_Z   2
loop_
 _symmetry_equiv_pos_site_id
 _symmetry_equiv_pos_as_xyz
  1  'x, y, z'
loop_
 _atom_site_type_symbol
 _atom_site_label
 _atom_site_symmetry_multiplicity
 _atom_site_fract_x
 _atom_site_fract_y
 _atom_site_fract_z
 _atom_site_occupancy
  Ba  Ba0  1  0.50000000  0.50310800  0.80142700  1
  Ba  Ba1  1  0.50000000  0.50000000  0.00000000  1
  Ba  Ba2  1  0.50000000  0.49689200  0.19857300  1
  Ba  Ba3  1  0.50000000  0.50219200  0.39981500  1
  Ba  Ba4  1  0.50000000  0.49780800  0.60018500  1
  Ba  Ba5  1  0.50000000  0.00310800  0.69857300  1
  Ba  Ba6  1  0.50000000  0.00219200  0.10018500  1
  Ba  Ba7  1  0.50000000  0.99689200  0.30142700  1
  Ba  Ba8  1  0.50000000  0.99780800  0.89981500  1
  Ba  Ba9  1  0.50000000  0.00000000  0.50000000  1
  Sr  Sr10  1  0.00000000  0.67381900  0.86566400  1
  Sr  Sr11  1  0.00000000  0.32618100  0.13433600  1
  Sr  Sr12  1  0.00000000  0.82618100  0.36566400  1
  Sr  Sr13  1  0.00000000  0.17381900  0.63433600  1
  Nd  Nd14  1  0.00000000  0.32589500  0.73437300  1
  Nd  Nd15  1  0.00000000  0.17634400  0.83550100  1
  Nd  Nd16  1  0.00000000  0.82589500  0.76562700  1
  Nd  Nd17  1  0.00000000  0.32923600  0.93458000  1
  Nd  Nd18  1  0.00000000  0.17380700  0.03512500  1
  Nd  Nd19  1  0.00000000  0.82619300  0.96487500  1
  Nd  Nd20  1  0.00000000  0.67076400  0.06542000  1
  Nd  Nd21  1  0.00000000  0.82365600  0.16449900  1
  Nd  Nd22  1  0.00000000  0.32365600  0.33550100  1
  Nd  Nd23  1  0.00000000  0.67410500  0.26562700  1
  Nd  Nd24  1  0.00000000  0.17076400  0.43458000  1
  Nd  Nd25  1  0.00000000  0.32619300  0.53512500  1
  Nd  Nd26  1  0.00000000  0.67380700  0.46487500  1
  Nd  Nd27  1  0.00000000  0.82923600  0.56542000  1
  Nd  Nd28  1  0.00000000  0.67634400  0.66449900  1
  Nd  Nd29  1  0.00000000  0.17410500  0.23437300  1
  Cu  Cu30  1  0.50000000  0.00445700  0.79882400  1
  Cu  Cu31  1  0.50000000  0.50445700  0.70117600  1
  Cu  Cu32  1  0.50000000  0.00000000  0.00000000  1
  Cu  Cu33  1  0.50000000  0.49573700  0.90096500  1
  Cu  Cu34  1  0.50000000  0.99554300  0.20117600  1
  Cu  Cu35  1  0.50000000  0.49554300  0.29882400  1
  Cu  Cu36  1  0.50000000  0.00426300  0.40096500  1
  Cu  Cu37  1  0.50000000  0.50426300  0.09903500  1
  Cu  Cu38  1  0.50000000  0.50000000  0.50000000  1
  Cu  Cu39  1  0.50000000  0.99573700  0.59903500  1
  O  O40  1  0.00000000  0.99204400  0.70227200  1
  O  O41  1  0.00000000  0.00847600  0.90125100  1
  O  O42  1  0.00000000  0.99152400  0.09874900  1
  O  O43  1  0.00000000  0.50000000  0.00000000  1
  O  O44  1  0.00000000  0.50795600  0.20227200  1
  O  O45  1  0.00000000  0.00795600  0.29772800  1
  O  O46  1  0.00000000  0.00000000  0.50000000  1
  O  O47  1  0.00000000  0.49152400  0.40125100  1
  O  O48  1  0.00000000  0.50847600  0.59874900  1
  O  O49  1  0.26337200  0.87130600  0.82545000  1
  O  O50  1  0.26241300  0.63873400  0.72798200  1
  O  O51  1  0.25782100  0.86255200  0.02701200  1
  O  O52  1  0.26241300  0.86126600  0.22798200  1
  O  O53  1  0.26470700  0.64591200  0.12672200  1
  O  O54  1  0.26470700  0.85408800  0.62672200  1
  O  O55  1  0.26470700  0.35408800  0.87327800  1
  O  O56  1  0.26347600  0.63189400  0.92935500  1
  O  O57  1  0.26347600  0.86810600  0.42935500  1
  O  O58  1  0.26337200  0.62869400  0.32545000  1
  O  O59  1  0.26347600  0.36810600  0.07064500  1
  O  O60  1  0.25782100  0.63744800  0.52701200  1
  O  O61  1  0.25782100  0.13744800  0.97298800  1
  O  O62  1  0.26241300  0.36126600  0.27201800  1
  O  O63  1  0.26241300  0.13873400  0.77201800  1
  O  O64  1  0.25782100  0.36255200  0.47298800  1
  O  O65  1  0.26337200  0.12869400  0.17455000  1
  O  O66  1  0.26470700  0.14591200  0.37327800  1
  O  O67  1  0.26337200  0.37130600  0.67455000  1
  O  O68  1  0.26347600  0.13189400  0.57064500  1
  O  O69  1  0.73529300  0.35408800  0.87327800  1
  O  O70  1  0.73662800  0.87130600  0.82545000  1
  O  O71  1  0.73758700  0.13873400  0.77201800  1
  O  O72  1  0.73652400  0.36810600  0.07064500  1
  O  O73  1  0.73758700  0.36126600  0.27201800  1
  O  O74  1  0.73758700  0.63873400  0.72798200  1
  O  O75  1  0.73652400  0.63189400  0.92935500  1
  O  O76  1  0.74217900  0.86255200  0.02701200  1
  O  O77  1  0.73758700  0.86126600  0.22798200  1
  O  O78  1  0.73652400  0.86810600  0.42935500  1
  O  O79  1  0.74217900  0.13744800  0.97298800  1
  O  O80  1  0.73662800  0.12869400  0.17455000  1
  O  O81  1  0.73529300  0.14591200  0.37327800  1
  O  O82  1  0.74217900  0.36255200  0.47298800  1
  O  O83  1  0.73662800  0.37130600  0.67455000  1
  O  O84  1  0.73529300  0.64591200  0.12672200  1
  O  O85  1  0.73662800  0.62869400  0.32545000  1
  O  O86  1  0.73529300  0.85408800  0.62672200  1
  O  O87  1  0.73652400  0.13189400  0.57064500  1
  O  O88  1  0.74217900  0.63744800  0.52701200  1
  O  O89  1  0.00000000  0.49204400  0.79772800  1
