# generated using pymatgen
data_K2ZrFe(PO4)3
_symmetry_space_group_name_H-M   'P 1'
_cell_length_a   10.22476300
_cell_length_b   10.23061500
_cell_length_c   20.43212879
_cell_angle_alpha   89.95328482
_cell_angle_beta   90.00000000
_cell_angle_gamma   90.00000000
_symmetry_Int_Tables_number   1
_chemical_formula_structural   K2ZrFe(PO4)3
_chemical_formula_sum   'K16 Zr8 Fe8 P24 O96'
_cell_volume   2137.31466140
_cell_formula_units_Z   8
loop_
 _symmetry_equiv_pos_site_id
 _symmetry_equiv_pos_as_xyz
  1  'x, y, z'
loop_
 _atom_site_type_symbol
 _atom_site_label
 _atom_site_symmetry_multiplicity
 _atom_site_fract_x
 _atom_site_fract_y
 _atom_site_fract_z
 _atom_site_occupancy
  K  K0  1  0.93701700  0.30780400  0.71270900  1
  K  K1  1  0.93738800  0.31184800  0.21893500  1
  K  K2  1  0.80059000  0.96034000  0.34881600  1
  K  K3  1  0.80009400  0.94986300  0.84900500  1
  K  K4  1  0.70443600  0.55715900  0.60579700  1
  K  K5  1  0.69882800  0.55102100  0.09865200  1
  K  K6  1  0.57648000  0.16790700  0.46744500  1
  K  K7  1  0.56278600  0.18699700  0.96851200  1
  K  K8  1  0.43701700  0.69219600  0.28729100  1
  K  K9  1  0.43738800  0.68815200  0.78106500  1
  K  K10  1  0.30059000  0.03966000  0.65118400  1
  K  K11  1  0.30009400  0.05013700  0.15099500  1
  K  K12  1  0.20443600  0.44284100  0.39420300  1
  K  K13  1  0.19882800  0.44897900  0.90134800  1
  K  K14  1  0.07648000  0.83209300  0.53255500  1
  K  K15  1  0.06278600  0.81300300  0.03148800  1
  Zr  Zr16  1  0.91433900  0.16431800  0.04311400  1
  Zr  Zr17  1  0.85627800  0.60927300  0.42865800  1
  Zr  Zr18  1  0.58511600  0.33291700  0.29365300  1
  Zr  Zr19  1  0.58821300  0.33538100  0.79276900  1
  Zr  Zr20  1  0.41433900  0.83568200  0.95688600  1
  Zr  Zr21  1  0.35627800  0.39072700  0.57134200  1
  Zr  Zr22  1  0.08511600  0.66708300  0.70634700  1
  Zr  Zr23  1  0.08821300  0.66461900  0.20723100  1
  Fe  Fe24  1  0.91472300  0.15902100  0.54248800  1
  Fe  Fe25  1  0.85532000  0.60513500  0.92768900  1
  Fe  Fe26  1  0.64618100  0.89668900  0.67738500  1
  Fe  Fe27  1  0.64272000  0.89563100  0.17762500  1
  Fe  Fe28  1  0.41472300  0.84097900  0.45751200  1
  Fe  Fe29  1  0.35532000  0.39486500  0.07231100  1
  Fe  Fe30  1  0.14618100  0.10331100  0.32261500  1
  Fe  Fe31  1  0.14272000  0.10436900  0.82237500  1
  P  P32  1  0.95711600  0.98525000  0.68666200  1
  P  P33  1  0.95601500  0.98101100  0.19009600  1
  P  P34  1  0.87875300  0.28521900  0.38784200  1
  P  P35  1  0.87991500  0.29322100  0.88414800  1
  P  P36  1  0.76773500  0.62689900  0.26789900  1
  P  P37  1  0.76809600  0.63061100  0.77175500  1
  P  P38  1  0.72496500  0.88008000  0.52235900  1
  P  P39  1  0.73206300  0.87112200  0.02149500  1
  P  P40  1  0.63203200  0.20469700  0.63338000  1
  P  P41  1  0.62019400  0.20659000  0.13471300  1
  P  P42  1  0.53644700  0.52879800  0.43625600  1
  P  P43  1  0.54358000  0.51811600  0.93942800  1
  P  P44  1  0.45601500  0.01898900  0.80990400  1
  P  P45  1  0.45711600  0.01475000  0.31333800  1
  P  P46  1  0.37875300  0.71478100  0.61215800  1
  P  P47  1  0.37991500  0.70677900  0.11585200  1
  P  P48  1  0.26809600  0.36938900  0.22824500  1
  P  P49  1  0.26773500  0.37310100  0.73210100  1
  P  P50  1  0.22496500  0.11992000  0.47764100  1
  P  P51  1  0.23206300  0.12887800  0.97850500  1
  P  P52  1  0.13203200  0.79530300  0.36662000  1
  P  P53  1  0.12019400  0.79341000  0.86528700  1
  P  P54  1  0.03644700  0.47120200  0.56374400  1
  P  P55  1  0.04358000  0.48188400  0.06057200  1
  O  O56  1  0.99619700  0.32965400  0.57493900  1
  O  O57  1  0.99641400  0.34012500  0.07432600  1
  O  O58  1  0.97857800  0.20107500  0.35108600  1
  O  O59  1  0.98126600  0.20512600  0.85065100  1
  O  O60  1  0.97824700  0.05972200  0.62158700  1
  O  O61  1  0.97665200  0.05731000  0.12486500  1
  O  O62  1  0.94923300  0.54301000  0.51297300  1
  O  O63  1  0.95703800  0.54882500  0.00908000  1
  O  O64  1  0.92138200  0.43202600  0.38484400  1
  O  O65  1  0.92187600  0.43789800  0.88281500  1
  O  O66  1  0.91071300  0.60643400  0.74867300  1
  O  O67  1  0.91163200  0.60124200  0.24808900  1
  O  O68  1  0.85406100  0.24336500  0.45893100  1
  O  O69  1  0.85311700  0.24754000  0.95541500  1
  O  O70  1  0.81301700  0.98572100  0.70977500  1
  O  O71  1  0.81108100  0.98254500  0.21116800  1
  O  O72  1  0.80418200  0.00679300  0.51116400  1
  O  O73  1  0.80848900  0.00123300  0.01064700  1
  O  O74  1  0.79407900  0.77372700  0.47893400  1
  O  O75  1  0.79941700  0.76777600  0.97869300  1
  O  O76  1  0.76490300  0.67141000  0.34073400  1
  O  O77  1  0.76477400  0.67179300  0.84424400  1
  O  O78  1  0.75811400  0.22872600  0.59473700  1
  O  O79  1  0.75026200  0.22664500  0.09629500  1
  O  O80  1  0.74613100  0.27096600  0.35009800  1
  O  O81  1  0.74921900  0.27195300  0.84626600  1
  O  O82  1  0.73084700  0.83054100  0.59389400  1
  O  O83  1  0.73346700  0.83019500  0.09412500  1
  O  O84  1  0.69998200  0.73227100  0.72800700  1
  O  O85  1  0.70068200  0.72761500  0.22437300  1
  O  O86  1  0.69410600  0.49526700  0.26024300  1
  O  O87  1  0.69319300  0.49957800  0.76059300  1
  O  O88  1  0.68041800  0.51805700  0.45988700  1
  O  O89  1  0.68840300  0.51653100  0.96064900  1
  O  O90  1  0.65190300  0.25389100  0.70463200  1
  O  O91  1  0.64802500  0.25139100  0.20609900  1
  O  O92  1  0.58392800  0.90210500  0.49831100  1
  O  O93  1  0.59007100  0.89758800  0.99781900  1
  O  O94  1  0.58244000  0.06270100  0.63252700  1
  O  O95  1  0.57691000  0.06200800  0.13375000  1
  O  O96  1  0.54540400  0.94877400  0.26162000  1
  O  O97  1  0.54271800  0.95199100  0.75861000  1
  O  O98  1  0.51813100  0.45082600  0.37166300  1
  O  O99  1  0.52368000  0.44111500  0.87437100  1
  O  O100  1  0.52412500  0.29221400  0.60076300  1
  O  O101  1  0.51786200  0.29398500  0.10155800  1
  O  O102  1  0.50322200  0.15862200  0.32498300  1
  O  O103  1  0.50299000  0.16102000  0.82306200  1
  O  O104  1  0.49619700  0.67034600  0.42506100  1
  O  O105  1  0.49641400  0.65987500  0.92567400  1
  O  O106  1  0.47857800  0.79892500  0.64891400  1
  O  O107  1  0.48126600  0.79487400  0.14934900  1
  O  O108  1  0.47665200  0.94269000  0.87513500  1
  O  O109  1  0.47824700  0.94027800  0.37841300  1
  O  O110  1  0.44923300  0.45699000  0.48702700  1
  O  O111  1  0.45703800  0.45117500  0.99092000  1
  O  O112  1  0.42138200  0.56797400  0.61515600  1
  O  O113  1  0.42187600  0.56210200  0.11718500  1
  O  O114  1  0.41071300  0.39356600  0.25132700  1
  O  O115  1  0.41163200  0.39875800  0.75191100  1
  O  O116  1  0.35406100  0.75663500  0.54106900  1
  O  O117  1  0.35311700  0.75246000  0.04458500  1
  O  O118  1  0.31301700  0.01427900  0.29022500  1
  O  O119  1  0.31108100  0.01745500  0.78883200  1
  O  O120  1  0.30418200  0.99320700  0.48883600  1
  O  O121  1  0.30848900  0.99876700  0.98935300  1
  O  O122  1  0.29407900  0.22627300  0.52106600  1
  O  O123  1  0.29941700  0.23222400  0.02130700  1
  O  O124  1  0.26490300  0.32859000  0.65926600  1
  O  O125  1  0.26477400  0.32820700  0.15575600  1
  O  O126  1  0.25811400  0.77127400  0.40526300  1
  O  O127  1  0.25026200  0.77335500  0.90370500  1
  O  O128  1  0.24613100  0.72903400  0.64990200  1
  O  O129  1  0.24921900  0.72804700  0.15373400  1
  O  O130  1  0.23084700  0.16945900  0.40610600  1
  O  O131  1  0.23346700  0.16980500  0.90587500  1
  O  O132  1  0.19998200  0.26772900  0.27199300  1
  O  O133  1  0.20068200  0.27238500  0.77562700  1
  O  O134  1  0.19410600  0.50473300  0.73975700  1
  O  O135  1  0.19319300  0.50042200  0.23940700  1
  O  O136  1  0.18041800  0.48194300  0.54011300  1
  O  O137  1  0.18840300  0.48346900  0.03935100  1
  O  O138  1  0.15190300  0.74610900  0.29536800  1
  O  O139  1  0.14802500  0.74860900  0.79390100  1
  O  O140  1  0.08392800  0.09789500  0.50168900  1
  O  O141  1  0.09007100  0.10241200  0.00218100  1
  O  O142  1  0.08244000  0.93729900  0.36747300  1
  O  O143  1  0.07691000  0.93799200  0.86625000  1
  O  O144  1  0.04540400  0.05122600  0.73838000  1
  O  O145  1  0.04271800  0.04800900  0.24139000  1
  O  O146  1  0.01813100  0.54917400  0.62833700  1
  O  O147  1  0.02368000  0.55888500  0.12562900  1
  O  O148  1  0.02412500  0.70778600  0.39923700  1
  O  O149  1  0.01786200  0.70601500  0.89844200  1
  O  O150  1  0.00322200  0.84137800  0.67501700  1
  O  O151  1  0.00299000  0.83898000  0.17693800  1
