# generated using pymatgen
data_Sr10P6BrO24F
_symmetry_space_group_name_H-M   'P 1'
_cell_length_a   7.31866800
_cell_length_b   9.97497500
_cell_length_c   17.27021100
_cell_angle_alpha   89.99889192
_cell_angle_beta   90.00000000
_cell_angle_gamma   90.00000000
_symmetry_Int_Tables_number   1
_chemical_formula_structural   Sr10P6BrO24F
_chemical_formula_sum   'Sr20 P12 Br2 O48 F2'
_cell_volume   1260.78637260
_cell_formula_units_Z   2
loop_
 _symmetry_equiv_pos_site_id
 _symmetry_equiv_pos_as_xyz
  1  'x, y, z'
loop_
 _atom_site_type_symbol
 _atom_site_label
 _atom_site_symmetry_multiplicity
 _atom_site_fract_x
 _atom_site_fract_y
 _atom_site_fract_z
 _atom_site_occupancy
  Sr  Sr0  1  0.75000000  0.74151900  0.00412800  1
  Sr  Sr1  1  0.75000000  0.61533300  0.37619500  1
  Sr  Sr2  1  0.99982500  0.49860000  0.16770400  1
  Sr  Sr3  1  0.50017500  0.49860000  0.16770400  1
  Sr  Sr4  1  0.25000000  0.36992800  0.38074100  1
  Sr  Sr5  1  0.75000000  0.25195000  0.50446400  1
  Sr  Sr6  1  0.75000000  0.13541800  0.13026100  1
  Sr  Sr7  1  0.75000000  0.12550500  0.86620900  1
  Sr  Sr8  1  0.49980400  0.99844600  0.33454500  1
  Sr  Sr9  1  0.99980400  0.00155400  0.66545500  1
  Sr  Sr10  1  0.50019600  0.00155400  0.66545500  1
  Sr  Sr11  1  0.00019600  0.99844600  0.33454500  1
  Sr  Sr12  1  0.25000000  0.87449500  0.13379100  1
  Sr  Sr13  1  0.25000000  0.86458200  0.86973900  1
  Sr  Sr14  1  0.25000000  0.74805000  0.49553600  1
  Sr  Sr15  1  0.75000000  0.63007200  0.61925900  1
  Sr  Sr16  1  0.49982500  0.50140000  0.83229600  1
  Sr  Sr17  1  0.00017500  0.50140000  0.83229600  1
  Sr  Sr18  1  0.25000000  0.38466700  0.62380500  1
  Sr  Sr19  1  0.25000000  0.25848100  0.99587200  1
  P  P20  1  0.25000000  0.61086700  0.01820800  1
  P  P21  1  0.25000000  0.66726700  0.30215900  1
  P  P22  1  0.75000000  0.28544500  0.31755500  1
  P  P23  1  0.25000000  0.22131200  0.18790400  1
  P  P24  1  0.25000000  0.11585600  0.51484700  1
  P  P25  1  0.25000000  0.17008500  0.79463600  1
  P  P26  1  0.75000000  0.82991500  0.20536400  1
  P  P27  1  0.75000000  0.88414400  0.48515300  1
  P  P28  1  0.75000000  0.77868800  0.81209600  1
  P  P29  1  0.25000000  0.71455500  0.68244500  1
  P  P30  1  0.75000000  0.33273300  0.69784100  1
  P  P31  1  0.75000000  0.38913300  0.98179200  1
  Br  Br32  1  0.00000000  0.00000000  0.00000000  1
  Br  Br33  1  0.50000000  0.00000000  0.00000000  1
  O  O34  1  0.42258200  0.68794800  0.04588700  1
  O  O35  1  0.07741800  0.68794800  0.04588700  1
  O  O36  1  0.75000000  0.68754700  0.16828900  1
  O  O37  1  0.25000000  0.66689400  0.21156400  1
  O  O38  1  0.42192400  0.58995000  0.33035500  1
  O  O39  1  0.07807600  0.58995000  0.33035500  1
  O  O40  1  0.25000000  0.47317600  0.06146400  1
  O  O41  1  0.75000000  0.40913600  0.07126800  1
  O  O42  1  0.75000000  0.40473400  0.25928800  1
  O  O43  1  0.25000000  0.35313100  0.23664500  1
  O  O44  1  0.92154700  0.28909900  0.37054600  1
  O  O45  1  0.57845300  0.28909900  0.37054600  1
  O  O46  1  0.42287100  0.22502100  0.13539600  1
  O  O47  1  0.07712900  0.22502100  0.13539600  1
  O  O48  1  0.07825400  0.19689900  0.54021900  1
  O  O49  1  0.42174600  0.19689900  0.54021900  1
  O  O50  1  0.75000000  0.18585000  0.66697900  1
  O  O51  1  0.75000000  0.14903000  0.27283700  1
  O  O52  1  0.25000000  0.17712600  0.70439800  1
  O  O53  1  0.25000000  0.09447200  0.24055000  1
  O  O54  1  0.07761800  0.08893700  0.81909000  1
  O  O55  1  0.42238200  0.08893700  0.81909000  1
  O  O56  1  0.25000000  0.09300900  0.42562600  1
  O  O57  1  0.25000000  0.97896300  0.55879500  1
  O  O58  1  0.75000000  0.02103700  0.44120500  1
  O  O59  1  0.75000000  0.90699100  0.57437400  1
  O  O60  1  0.92238200  0.91106300  0.18091000  1
  O  O61  1  0.57761800  0.91106300  0.18091000  1
  O  O62  1  0.75000000  0.90552800  0.75945000  1
  O  O63  1  0.75000000  0.82287400  0.29560200  1
  O  O64  1  0.25000000  0.85097000  0.72716300  1
  O  O65  1  0.25000000  0.81415000  0.33302100  1
  O  O66  1  0.92174600  0.80310100  0.45978100  1
  O  O67  1  0.57825400  0.80310100  0.45978100  1
  O  O68  1  0.92287100  0.77497900  0.86460400  1
  O  O69  1  0.57712900  0.77497900  0.86460400  1
  O  O70  1  0.07845300  0.71090100  0.62945400  1
  O  O71  1  0.42154700  0.71090100  0.62945400  1
  O  O72  1  0.75000000  0.64686900  0.76335500  1
  O  O73  1  0.25000000  0.59526600  0.74071200  1
  O  O74  1  0.25000000  0.59086400  0.92873200  1
  O  O75  1  0.75000000  0.52682400  0.93853600  1
  O  O76  1  0.92192400  0.41005000  0.66964500  1
  O  O77  1  0.57807600  0.41005000  0.66964500  1
  O  O78  1  0.75000000  0.33310600  0.78843600  1
  O  O79  1  0.25000000  0.31245300  0.83171100  1
  O  O80  1  0.57741800  0.31205200  0.95411300  1
  O  O81  1  0.92258200  0.31205200  0.95411300  1
  F  F82  1  0.75000000  0.49755900  0.50017800  1
  F  F83  1  0.25000000  0.50244100  0.49982200  1
