# generated using pymatgen
data_V2CdO6
_symmetry_space_group_name_H-M   'P 1'
_cell_length_a   5.11523513
_cell_length_b   5.11523513
_cell_length_c   7.08481268
_cell_angle_alpha   69.04528102
_cell_angle_beta   69.04528102
_cell_angle_gamma   41.37167229
_symmetry_Int_Tables_number   1
_chemical_formula_structural   V2CdO6
_chemical_formula_sum   'V2 Cd1 O6'
_cell_volume   113.21841763
_cell_formula_units_Z   1
loop_
 _symmetry_equiv_pos_site_id
 _symmetry_equiv_pos_as_xyz
  1  'x, y, z'
loop_
 _atom_site_type_symbol
 _atom_site_label
 _atom_site_symmetry_multiplicity
 _atom_site_fract_x
 _atom_site_fract_y
 _atom_site_fract_z
 _atom_site_occupancy
  V  V0  1  0.18675200  0.18675200  0.36242900  1
  V  V1  1  0.81324800  0.81324800  0.63757100  1
  Cd  Cd2  1  0.00000000  0.00000000  0.00000000  1
  O  O3  1  0.03014900  0.03014900  0.30222000  1
  O  O4  1  0.96985100  0.96985100  0.69778000  1
  O  O5  1  0.33484200  0.33484200  0.12976400  1
  O  O6  1  0.66515800  0.66515800  0.87023600  1
  O  O7  1  0.30362900  0.30362900  0.56430600  1
  O  O8  1  0.69637100  0.69637100  0.43569400  1
