# generated using pymatgen
data_SrAlF5
_symmetry_space_group_name_H-M   'P 1'
_cell_length_a   10.80540670
_cell_length_b   10.80540670
_cell_length_c   10.80540670
_cell_angle_alpha   96.43125636
_cell_angle_beta   96.43125636
_cell_angle_gamma   140.89377810
_symmetry_Int_Tables_number   1
_chemical_formula_structural   SrAlF5
_chemical_formula_sum   'Sr8 Al8 F40'
_cell_volume   749.87924527
_cell_formula_units_Z   8
loop_
 _symmetry_equiv_pos_site_id
 _symmetry_equiv_pos_as_xyz
  1  'x, y, z'
loop_
 _atom_site_type_symbol
 _atom_site_label
 _atom_site_symmetry_multiplicity
 _atom_site_fract_x
 _atom_site_fract_y
 _atom_site_fract_z
 _atom_site_occupancy
  Sr  Sr0  1  0.95242900  0.22857300  0.17331900  1
  Sr  Sr1  1  0.77911000  0.95242900  0.72385600  1
  Sr  Sr2  1  0.22857300  0.05525400  0.27614400  1
  Sr  Sr3  1  0.05525400  0.77911000  0.82668100  1
  Sr  Sr4  1  0.25676400  0.57301300  0.82219900  1
  Sr  Sr5  1  0.43456600  0.25676400  0.68375100  1
  Sr  Sr6  1  0.57301300  0.75081500  0.31624900  1
  Sr  Sr7  1  0.75081500  0.43456600  0.17780100  1
  Al  Al8  1  0.26374200  0.26374200  0.00000000  1
  Al  Al9  1  0.75871800  0.75871800  0.00000000  1
  Al  Al10  1  0.50330700  0.00330700  0.50000000  1
  Al  Al11  1  0.00330700  0.50330700  0.50000000  1
  Al  Al12  1  0.66850700  0.18446900  0.84735100  1
  Al  Al13  1  0.82115700  0.66850700  0.48403900  1
  Al  Al14  1  0.18446900  0.33711800  0.51596100  1
  Al  Al15  1  0.33711800  0.82115700  0.15264900  1
  F  F16  1  0.01121100  0.01121100  0.00000000  1
  F  F17  1  0.51138800  0.51138800  0.00000000  1
  F  F18  1  0.13558200  0.29338500  0.91796300  1
  F  F19  1  0.21762000  0.13558200  0.84219700  1
  F  F20  1  0.29338500  0.37542200  0.15780300  1
  F  F21  1  0.37542200  0.21762000  0.08203700  1
  F  F22  1  0.64748000  0.80603400  0.91926000  1
  F  F23  1  0.72821900  0.64748000  0.84144500  1
  F  F24  1  0.80603400  0.88677400  0.15855500  1
  F  F25  1  0.88677400  0.72821900  0.08074000  1
  F  F26  1  0.75335600  0.25335600  0.50000000  1
  F  F27  1  0.25335600  0.75335600  0.50000000  1
  F  F28  1  0.55872000  0.11744900  0.66776000  1
  F  F29  1  0.89095900  0.55872000  0.44127100  1
  F  F30  1  0.11744900  0.44968900  0.55872900  1
  F  F31  1  0.44968900  0.89095900  0.33224000  1
  F  F32  1  0.06842200  0.61125600  0.67372500  1
  F  F33  1  0.39469700  0.06842200  0.45716600  1
  F  F34  1  0.61125600  0.93753100  0.54283400  1
  F  F35  1  0.93753100  0.39469700  0.32627500  1
  F  F36  1  0.78089200  0.42873000  0.85905700  1
  F  F37  1  0.92183500  0.78089200  0.35216300  1
  F  F38  1  0.42873000  0.56967200  0.64783700  1
  F  F39  1  0.56967200  0.92183500  0.14094300  1
  F  F40  1  0.43527600  0.08280500  0.85773600  1
  F  F41  1  0.57754000  0.43527600  0.35247100  1
  F  F42  1  0.08280500  0.22506900  0.64752900  1
  F  F43  1  0.22506900  0.57754000  0.14226400  1
  F  F44  1  0.88659500  0.27696200  0.81312200  1
  F  F45  1  0.07347300  0.88659500  0.60963300  1
  F  F46  1  0.27696200  0.46384000  0.39036700  1
  F  F47  1  0.46384000  0.07347300  0.18687800  1
  F  F48  1  0.53978800  0.93123600  0.81165600  1
  F  F49  1  0.72813200  0.53978800  0.60855200  1
  F  F50  1  0.93123600  0.11958000  0.39144800  1
  F  F51  1  0.11958000  0.72813200  0.18834400  1
  F  F52  1  0.76962600  0.25726900  0.02299400  1
  F  F53  1  0.74663200  0.76962600  0.51235600  1
  F  F54  1  0.25726900  0.23427500  0.48764400  1
  F  F55  1  0.23427500  0.74663200  0.97700600  1
