# generated using pymatgen
data_MnP2O7
_symmetry_space_group_name_H-M   'P 1'
_cell_length_a   8.21398500
_cell_length_b   5.05021800
_cell_length_c   13.41954356
_cell_angle_alpha   75.66831798
_cell_angle_beta   90.00000000
_cell_angle_gamma   90.00000000
_symmetry_Int_Tables_number   1
_chemical_formula_structural   MnP2O7
_chemical_formula_sum   'Mn4 P8 O28'
_cell_volume   539.35079103
_cell_formula_units_Z   4
loop_
 _symmetry_equiv_pos_site_id
 _symmetry_equiv_pos_as_xyz
  1  'x, y, z'
loop_
 _atom_site_type_symbol
 _atom_site_label
 _atom_site_symmetry_multiplicity
 _atom_site_fract_x
 _atom_site_fract_y
 _atom_site_fract_z
 _atom_site_occupancy
  Mn  Mn0  1  0.84277700  0.66074200  0.12721700  1
  Mn  Mn1  1  0.34277700  0.33925800  0.37278300  1
  Mn  Mn2  1  0.65722300  0.66074200  0.62721700  1
  Mn  Mn3  1  0.15722300  0.33925800  0.87278300  1
  P  P4  1  0.69768000  0.26277900  0.47498200  1
  P  P5  1  0.45332400  0.54636700  0.19165500  1
  P  P6  1  0.95332400  0.45363300  0.30834500  1
  P  P7  1  0.19768000  0.73722100  0.02501800  1
  P  P8  1  0.80232000  0.26277900  0.97498200  1
  P  P9  1  0.04667600  0.54636700  0.69165500  1
  P  P10  1  0.54667600  0.45363300  0.80834500  1
  P  P11  1  0.30232000  0.73722100  0.52501800  1
  O  O12  1  0.56923200  0.32253500  0.71567700  1
  O  O13  1  0.86724200  0.73242200  0.26410500  1
  O  O14  1  0.32577400  0.46261400  0.49782700  1
  O  O15  1  0.12696000  0.48160900  0.34112400  1
  O  O16  1  0.06123200  0.79283600  0.09536300  1
  O  O17  1  0.23640200  0.97534200  0.93339700  1
  O  O18  1  0.86369100  0.28293100  0.40863200  1
  O  O19  1  0.36369100  0.71706900  0.09136800  1
  O  O20  1  0.56123200  0.20716400  0.40463700  1
  O  O21  1  0.62696000  0.51839100  0.15887600  1
  O  O22  1  0.73640200  0.02465800  0.56660300  1
  O  O23  1  0.36724200  0.26757800  0.23589500  1
  O  O24  1  0.82577400  0.53738600  0.00217300  1
  O  O25  1  0.06923200  0.67746500  0.78432300  1
  O  O26  1  0.93076800  0.32253500  0.21567700  1
  O  O27  1  0.17422600  0.46261400  0.99782700  1
  O  O28  1  0.63275800  0.73242200  0.76410500  1
  O  O29  1  0.26359800  0.97534200  0.43339700  1
  O  O30  1  0.37304000  0.48160900  0.84112400  1
  O  O31  1  0.43876800  0.79283600  0.59536300  1
  O  O32  1  0.63630900  0.28293100  0.90863200  1
  O  O33  1  0.13630900  0.71706900  0.59136800  1
  O  O34  1  0.76359800  0.02465800  0.06660300  1
  O  O35  1  0.93876800  0.20716400  0.90463700  1
  O  O36  1  0.87304000  0.51839100  0.65887600  1
  O  O37  1  0.67422600  0.53738600  0.50217300  1
  O  O38  1  0.13275800  0.26757800  0.73589500  1
  O  O39  1  0.43076800  0.67746500  0.28432300  1
