# generated using pymatgen
data_V3As2
_symmetry_space_group_name_H-M   'P 1'
_cell_length_a   9.43930300
_cell_length_b   9.43930300
_cell_length_c   3.29671400
_cell_angle_alpha   90.00000000
_cell_angle_beta   90.00000000
_cell_angle_gamma   90.00000000
_symmetry_Int_Tables_number   1
_chemical_formula_structural   V3As2
_chemical_formula_sum   'V12 As8'
_cell_volume   293.73867167
_cell_formula_units_Z   4
loop_
 _symmetry_equiv_pos_site_id
 _symmetry_equiv_pos_as_xyz
  1  'x, y, z'
loop_
 _atom_site_type_symbol
 _atom_site_label
 _atom_site_symmetry_multiplicity
 _atom_site_fract_x
 _atom_site_fract_y
 _atom_site_fract_z
 _atom_site_occupancy
  V  V0  1  0.17844000  0.13234800  0.50000000  1
  V  V1  1  0.13234800  0.82156000  0.50000000  1
  V  V2  1  0.86765200  0.17844000  0.50000000  1
  V  V3  1  0.82156000  0.86765200  0.50000000  1
  V  V4  1  0.28478400  0.39763400  0.00000000  1
  V  V5  1  0.39763400  0.71521600  0.00000000  1
  V  V6  1  0.60236600  0.28478400  0.00000000  1
  V  V7  1  0.71521600  0.60236600  0.00000000  1
  V  V8  1  0.50000000  0.00000000  0.50000000  1
  V  V9  1  0.00000000  0.50000000  0.50000000  1
  V  V10  1  0.50000000  0.50000000  0.50000000  1
  V  V11  1  0.00000000  0.00000000  0.00000000  1
  As  As12  1  0.41056100  0.24541300  0.50000000  1
  As  As13  1  0.24541300  0.58943900  0.50000000  1
  As  As14  1  0.75458700  0.41056100  0.50000000  1
  As  As15  1  0.58943900  0.75458700  0.50000000  1
  As  As16  1  0.03955100  0.28552600  0.00000000  1
  As  As17  1  0.28552600  0.96044900  0.00000000  1
  As  As18  1  0.71447400  0.03955100  0.00000000  1
  As  As19  1  0.96044900  0.71447400  0.00000000  1
