# generated using pymatgen
data_Fe3P2H3O11
_symmetry_space_group_name_H-M   'P 1'
_cell_length_a   8.13736100
_cell_length_b   9.61858800
_cell_length_c   9.89886800
_cell_angle_alpha   90.00000000
_cell_angle_beta   90.00000000
_cell_angle_gamma   90.00000000
_symmetry_Int_Tables_number   1
_chemical_formula_structural   Fe3P2H3O11
_chemical_formula_sum   'Fe12 P8 H12 O44'
_cell_volume   774.78363482
_cell_formula_units_Z   4
loop_
 _symmetry_equiv_pos_site_id
 _symmetry_equiv_pos_as_xyz
  1  'x, y, z'
loop_
 _atom_site_type_symbol
 _atom_site_label
 _atom_site_symmetry_multiplicity
 _atom_site_fract_x
 _atom_site_fract_y
 _atom_site_fract_z
 _atom_site_occupancy
  Fe  Fe0  1  0.00000000  0.00000000  0.00000000  1
  Fe  Fe1  1  0.50000000  0.50000000  0.00000000  1
  Fe  Fe2  1  0.00000000  0.00000000  0.50000000  1
  Fe  Fe3  1  0.50000000  0.50000000  0.50000000  1
  Fe  Fe4  1  0.63703300  0.04934400  0.11241100  1
  Fe  Fe5  1  0.13703300  0.45065600  0.88758900  1
  Fe  Fe6  1  0.36296700  0.04934400  0.38758900  1
  Fe  Fe7  1  0.86296700  0.45065600  0.61241100  1
  Fe  Fe8  1  0.36296700  0.95065600  0.88758900  1
  Fe  Fe9  1  0.86296700  0.54934400  0.11241100  1
  Fe  Fe10  1  0.63703300  0.95065600  0.61241100  1
  Fe  Fe11  1  0.13703300  0.54934400  0.38758900  1
  P  P12  1  0.28578800  0.20869300  0.10498300  1
  P  P13  1  0.78578800  0.29130700  0.89501700  1
  P  P14  1  0.71421200  0.20869300  0.39501700  1
  P  P15  1  0.21421200  0.29130700  0.60498300  1
  P  P16  1  0.71421200  0.79130700  0.89501700  1
  P  P17  1  0.21421200  0.70869300  0.10498300  1
  P  P18  1  0.28578800  0.79130700  0.60498300  1
  P  P19  1  0.78578800  0.70869300  0.39501700  1
  H  H20  1  0.50000000  0.84732800  0.25000000  1
  H  H21  1  0.00000000  0.65267200  0.75000000  1
  H  H22  1  0.50000000  0.15267200  0.75000000  1
  H  H23  1  0.00000000  0.34732800  0.25000000  1
  H  H24  1  0.15546100  0.87022000  0.31065000  1
  H  H25  1  0.65546100  0.62978000  0.68935000  1
  H  H26  1  0.84453900  0.87022000  0.18935000  1
  H  H27  1  0.34453900  0.62978000  0.81065000  1
  H  H28  1  0.84453900  0.12978000  0.68935000  1
  H  H29  1  0.34453900  0.37022000  0.31065000  1
  H  H30  1  0.15546100  0.12978000  0.81065000  1
  H  H31  1  0.65546100  0.37022000  0.18935000  1
  O  O32  1  0.33201100  0.21160300  0.25753900  1
  O  O33  1  0.83201100  0.28839700  0.74246100  1
  O  O34  1  0.66798900  0.21160300  0.24246100  1
  O  O35  1  0.16798900  0.28839700  0.75753900  1
  O  O36  1  0.66798900  0.78839700  0.74246100  1
  O  O37  1  0.16798900  0.71160300  0.25753900  1
  O  O38  1  0.33201100  0.78839700  0.75753900  1
  O  O39  1  0.83201100  0.71160300  0.24246100  1
  O  O40  1  0.41394000  0.11217200  0.03006000  1
  O  O41  1  0.91394000  0.38782800  0.96994000  1
  O  O42  1  0.58606000  0.11217200  0.46994000  1
  O  O43  1  0.08606000  0.38782800  0.53006000  1
  O  O44  1  0.58606000  0.88782800  0.96994000  1
  O  O45  1  0.08606000  0.61217200  0.03006000  1
  O  O46  1  0.41394000  0.88782800  0.53006000  1
  O  O47  1  0.91394000  0.61217200  0.46994000  1
  O  O48  1  0.29748000  0.35841400  0.04339700  1
  O  O49  1  0.79748000  0.14158600  0.95660300  1
  O  O50  1  0.70252000  0.35841400  0.45660300  1
  O  O51  1  0.20252000  0.14158600  0.54339700  1
  O  O52  1  0.70252000  0.64158600  0.95660300  1
  O  O53  1  0.20252000  0.85841400  0.04339700  1
  O  O54  1  0.29748000  0.64158600  0.54339700  1
  O  O55  1  0.79748000  0.85841400  0.45660300  1
  O  O56  1  0.11016300  0.15687600  0.08912800  1
  O  O57  1  0.61016300  0.34312400  0.91087200  1
  O  O58  1  0.88983700  0.15687600  0.41087200  1
  O  O59  1  0.38983700  0.34312400  0.58912800  1
  O  O60  1  0.88983700  0.84312400  0.91087200  1
  O  O61  1  0.38983700  0.65687600  0.08912800  1
  O  O62  1  0.11016300  0.84312400  0.58912800  1
  O  O63  1  0.61016300  0.65687600  0.41087200  1
  O  O64  1  0.50000000  0.94896200  0.25000000  1
  O  O65  1  0.00000000  0.55103800  0.75000000  1
  O  O66  1  0.50000000  0.05103800  0.75000000  1
  O  O67  1  0.00000000  0.44896200  0.25000000  1
  O  O68  1  0.15156700  0.96776000  0.34552300  1
  O  O69  1  0.65156700  0.53224000  0.65447700  1
  O  O70  1  0.84843300  0.96776000  0.15447700  1
  O  O71  1  0.34843300  0.53224000  0.84552300  1
  O  O72  1  0.84843300  0.03224000  0.65447700  1
  O  O73  1  0.34843300  0.46776000  0.34552300  1
  O  O74  1  0.15156700  0.03224000  0.84552300  1
  O  O75  1  0.65156700  0.46776000  0.15447700  1
