# generated using pymatgen
data_Al(PO3)3
_symmetry_space_group_name_H-M   'P 1'
_cell_length_a   11.51486715
_cell_length_b   11.51486715
_cell_length_c   9.36966394
_cell_angle_alpha   70.19456464
_cell_angle_beta   70.19456464
_cell_angle_gamma   110.88974656
_symmetry_Int_Tables_number   1
_chemical_formula_structural   Al(PO3)3
_chemical_formula_sum   'Al6 P18 O54'
_cell_volume   930.82840154
_cell_formula_units_Z   6
loop_
 _symmetry_equiv_pos_site_id
 _symmetry_equiv_pos_as_xyz
  1  'x, y, z'
loop_
 _atom_site_type_symbol
 _atom_site_label
 _atom_site_symmetry_multiplicity
 _atom_site_fract_x
 _atom_site_fract_y
 _atom_site_fract_z
 _atom_site_occupancy
  Al  Al0  1  0.41934200  0.59499500  0.48579200  1
  Al  Al1  1  0.59499500  0.41934200  0.98579200  1
  Al  Al2  1  0.08560900  0.92494400  0.48951600  1
  Al  Al3  1  0.92494400  0.08560900  0.98951600  1
  Al  Al4  1  0.74196100  0.23275500  0.51916200  1
  Al  Al5  1  0.23275500  0.74196100  0.01916200  1
  P  P6  1  0.61899800  0.67497600  0.65159700  1
  P  P7  1  0.67497600  0.61899800  0.15159700  1
  P  P8  1  0.26709600  0.99542700  0.67911700  1
  P  P9  1  0.99542700  0.26709600  0.17911700  1
  P  P10  1  0.93282100  0.32610000  0.68528100  1
  P  P11  1  0.32610000  0.93282100  0.18528100  1
  P  P12  1  0.84304500  0.90597300  0.80777100  1
  P  P13  1  0.90597300  0.84304500  0.30777100  1
  P  P14  1  0.49429700  0.22067000  0.83195200  1
  P  P15  1  0.22067000  0.49429700  0.33195200  1
  P  P16  1  0.16296400  0.56043000  0.83250500  1
  P  P17  1  0.56043000  0.16296400  0.33250500  1
  P  P18  1  0.58349000  0.88145100  0.77464900  1
  P  P19  1  0.88145100  0.58349000  0.27464900  1
  P  P20  1  0.28416900  0.25284900  0.71963700  1
  P  P21  1  0.25284900  0.28416900  0.21963700  1
  P  P22  1  0.93800100  0.57371100  0.73657100  1
  P  P23  1  0.57371100  0.93800100  0.23657100  1
  O  O24  1  0.80689000  0.23303500  0.67918400  1
  O  O25  1  0.23303500  0.80689000  0.17918400  1
  O  O26  1  0.51473200  0.58847800  0.61355200  1
  O  O27  1  0.58847800  0.51473200  0.11355200  1
  O  O28  1  0.14143200  0.92145600  0.65985300  1
  O  O29  1  0.92145600  0.14143200  0.15985300  1
  O  O30  1  0.07701700  0.37092100  0.52109100  1
  O  O31  1  0.37092100  0.07701700  0.02109100  1
  O  O32  1  0.76419600  0.80920500  0.46694100  1
  O  O33  1  0.80920500  0.76419600  0.96694100  1
  O  O34  1  0.41246500  0.03744700  0.51778500  1
  O  O35  1  0.03744700  0.41246500  0.01778500  1
  O  O36  1  0.93415000  0.25870100  0.85231500  1
  O  O37  1  0.25870100  0.93415000  0.35231500  1
  O  O38  1  0.65262900  0.59382300  0.77743100  1
  O  O39  1  0.59382300  0.65262900  0.27743100  1
  O  O40  1  0.25928600  0.91628200  0.84920300  1
  O  O41  1  0.91628200  0.25928600  0.34920300  1
  O  O42  1  0.13271200  0.18089500  0.87057100  1
  O  O43  1  0.18089500  0.13271200  0.37057100  1
  O  O44  1  0.79269100  0.48185700  0.90737900  1
  O  O45  1  0.48185700  0.79269100  0.40737900  1
  O  O46  1  0.43760800  0.82882400  0.92211600  1
  O  O47  1  0.82882400  0.43760800  0.42211600  1
  O  O48  1  0.34849700  0.39817700  0.56150800  1
  O  O49  1  0.39817700  0.34849700  0.06150800  1
  O  O50  1  0.97743800  0.71812800  0.60091700  1
  O  O51  1  0.71812800  0.97743800  0.10091700  1
  O  O52  1  0.66463300  0.02944500  0.61216700  1
  O  O53  1  0.02944500  0.66463300  0.11216700  1
  O  O54  1  0.24661800  0.53438600  0.69862900  1
  O  O55  1  0.53438600  0.24661800  0.19862900  1
  O  O56  1  0.91312600  0.91266300  0.63555300  1
  O  O57  1  0.91266300  0.91312600  0.13555300  1
  O  O58  1  0.56036600  0.18647500  0.69669700  1
  O  O59  1  0.18647500  0.56036600  0.19669700  1
  O  O60  1  0.24842700  0.67197900  0.86323200  1
  O  O61  1  0.67197900  0.24842700  0.36323200  1
  O  O62  1  0.92817400  0.03482800  0.81552400  1
  O  O63  1  0.03482800  0.92817400  0.31552400  1
  O  O64  1  0.59781000  0.32713200  0.85305900  1
  O  O65  1  0.32713200  0.59781000  0.35305900  1
  O  O66  1  0.15359700  0.29804500  0.13844700  1
  O  O67  1  0.29804500  0.15359700  0.63844700  1
  O  O68  1  0.76221700  0.55837400  0.21945100  1
  O  O69  1  0.55837400  0.76221700  0.71945100  1
  O  O70  1  0.48244800  0.95351600  0.14145400  1
  O  O71  1  0.95351600  0.48244800  0.64145400  1
  O  O72  1  0.27375400  0.39254900  0.29184800  1
  O  O73  1  0.39254900  0.27375400  0.79184800  1
  O  O74  1  0.87063700  0.68083600  0.36167500  1
  O  O75  1  0.68083600  0.87063700  0.86167500  1
  O  O76  1  0.60921700  0.06389800  0.27906900  1
  O  O77  1  0.06389800  0.60921700  0.77906900  1
