# generated using pymatgen
data_K3ReC4(N2O)2
_symmetry_space_group_name_H-M   'P 1'
_cell_length_a   6.47069800
_cell_length_b   7.03899904
_cell_length_c   7.57400375
_cell_angle_alpha   106.80702451
_cell_angle_beta   110.86498249
_cell_angle_gamma   105.24529681
_symmetry_Int_Tables_number   1
_chemical_formula_structural   K3ReC4(N2O)2
_chemical_formula_sum   'K3 Re1 C4 N4 O2'
_cell_volume   281.57937252
_cell_formula_units_Z   1
loop_
 _symmetry_equiv_pos_site_id
 _symmetry_equiv_pos_as_xyz
  1  'x, y, z'
loop_
 _atom_site_type_symbol
 _atom_site_label
 _atom_site_symmetry_multiplicity
 _atom_site_fract_x
 _atom_site_fract_y
 _atom_site_fract_z
 _atom_site_occupancy
  K  K0  1  0.00000000  0.50000000  0.50000000  1
  K  K1  1  0.45794900  0.16529300  0.80033200  1
  K  K2  1  0.54205100  0.83470700  0.19966800  1
  Re  Re3  1  0.00000000  0.00000000  0.00000000  1
  C  C4  1  0.67608100  0.70966900  0.83158400  1
  C  C5  1  0.32391900  0.29033100  0.16841600  1
  C  C6  1  0.10070700  0.90172100  0.24692400  1
  C  C7  1  0.89929300  0.09827900  0.75307600  1
  N  N8  1  0.49350900  0.55508800  0.75423300  1
  N  N9  1  0.50649100  0.44491200  0.24576700  1
  N  N10  1  0.15439800  0.84301000  0.38072200  1
  N  N11  1  0.84560200  0.15699000  0.61927800  1
  O  O12  1  0.15628500  0.86381400  0.89045100  1
  O  O13  1  0.84371500  0.13618600  0.10954900  1
