# generated using pymatgen
data_K2AsPCO7
_symmetry_space_group_name_H-M   'P 1'
_cell_length_a   6.84701400
_cell_length_b   6.04271900
_cell_length_c   9.88511663
_cell_angle_alpha   81.89373621
_cell_angle_beta   90.00000000
_cell_angle_gamma   90.00000000
_symmetry_Int_Tables_number   1
_chemical_formula_structural   K2AsPCO7
_chemical_formula_sum   'K4 As2 P2 C2 O14'
_cell_volume   404.90601243
_cell_formula_units_Z   2
loop_
 _symmetry_equiv_pos_site_id
 _symmetry_equiv_pos_as_xyz
  1  'x, y, z'
loop_
 _atom_site_type_symbol
 _atom_site_label
 _atom_site_symmetry_multiplicity
 _atom_site_fract_x
 _atom_site_fract_y
 _atom_site_fract_z
 _atom_site_occupancy
  K  K0  1  0.01282500  0.25560500  0.76707100  1
  K  K1  1  0.48717500  0.25560500  0.76707100  1
  K  K2  1  0.51282500  0.74439500  0.23292900  1
  K  K3  1  0.98717500  0.74439500  0.23292900  1
  As  As4  1  0.75000000  0.82443600  0.63302600  1
  As  As5  1  0.25000000  0.17556400  0.36697400  1
  P  P6  1  0.25000000  0.75119800  0.58774100  1
  P  P7  1  0.75000000  0.24880200  0.41225900  1
  C  C8  1  0.75000000  0.70890000  0.89868200  1
  C  C9  1  0.25000000  0.29110000  0.10131800  1
  O  O10  1  0.25000000  0.27509500  0.97688900  1
  O  O11  1  0.75000000  0.90734800  0.80850800  1
  O  O12  1  0.75000000  0.53375100  0.83978500  1
  O  O13  1  0.06639600  0.84237000  0.65566700  1
  O  O14  1  0.43360400  0.84237000  0.65566700  1
  O  O15  1  0.75000000  0.13518300  0.57219800  1
  O  O16  1  0.25000000  0.50131900  0.58699800  1
  O  O17  1  0.75000000  0.49868100  0.41300200  1
  O  O18  1  0.25000000  0.86481700  0.42780200  1
  O  O19  1  0.56639600  0.15763000  0.34433300  1
  O  O20  1  0.93360400  0.15763000  0.34433300  1
  O  O21  1  0.25000000  0.46624900  0.16021500  1
  O  O22  1  0.25000000  0.09265200  0.19149200  1
  O  O23  1  0.75000000  0.72490500  0.02311100  1
