# generated using pymatgen
data_PbI2
_symmetry_space_group_name_H-M   'P 1'
_cell_length_a   15.18486970
_cell_length_b   15.18486970
_cell_length_c   15.18486971
_cell_angle_alpha   17.63081755
_cell_angle_beta   17.63081755
_cell_angle_gamma   17.63081328
_symmetry_Int_Tables_number   1
_chemical_formula_structural   PbI2
_chemical_formula_sum   'Pb2 I4'
_cell_volume   280.36586623
_cell_formula_units_Z   2
loop_
 _symmetry_equiv_pos_site_id
 _symmetry_equiv_pos_as_xyz
  1  'x, y, z'
loop_
 _atom_site_type_symbol
 _atom_site_label
 _atom_site_symmetry_multiplicity
 _atom_site_fract_x
 _atom_site_fract_y
 _atom_site_fract_z
 _atom_site_occupancy
  Pb  Pb0  1  0.00000000  0.00000000  0.00000000  1
  Pb  Pb1  1  0.50000000  0.50000000  0.50000000  1
  I  I2  1  0.12469500  0.12469500  0.12469500  1
  I  I3  1  0.87530500  0.87530500  0.87530500  1
  I  I4  1  0.29145100  0.29145100  0.29145100  1
  I  I5  1  0.70854900  0.70854900  0.70854900  1
