# generated using pymatgen
data_Rb2Cr2O7
_symmetry_space_group_name_H-M   'P 1'
_cell_length_a   7.87839100
_cell_length_b   7.91480798
_cell_length_c   13.84631734
_cell_angle_alpha   82.61342105
_cell_angle_beta   89.08427163
_cell_angle_gamma   86.59103350
_symmetry_Int_Tables_number   1
_chemical_formula_structural   Rb2Cr2O7
_chemical_formula_sum   'Rb8 Cr8 O28'
_cell_volume   854.68981230
_cell_formula_units_Z   4
loop_
 _symmetry_equiv_pos_site_id
 _symmetry_equiv_pos_as_xyz
  1  'x, y, z'
loop_
 _atom_site_type_symbol
 _atom_site_label
 _atom_site_symmetry_multiplicity
 _atom_site_fract_x
 _atom_site_fract_y
 _atom_site_fract_z
 _atom_site_occupancy
  Rb  Rb0  1  0.88865600  0.87864000  0.86492800  1
  Rb  Rb1  1  0.11134400  0.12136000  0.13507200  1
  Rb  Rb2  1  0.78091800  0.62108100  0.15685400  1
  Rb  Rb3  1  0.21908200  0.37891900  0.84314600  1
  Rb  Rb4  1  0.44098400  0.80641100  0.65813800  1
  Rb  Rb5  1  0.55901600  0.19358900  0.34186200  1
  Rb  Rb6  1  0.21635000  0.70841300  0.36877000  1
  Rb  Rb7  1  0.78365000  0.29158700  0.63123000  1
  Cr  Cr8  1  0.71505700  0.39061300  0.89021100  1
  Cr  Cr9  1  0.28494300  0.60938700  0.10978900  1
  Cr  Cr10  1  0.64980900  0.13721600  0.08522800  1
  Cr  Cr11  1  0.35019100  0.86278400  0.91477200  1
  Cr  Cr12  1  0.93604200  0.75248500  0.61142700  1
  Cr  Cr13  1  0.06395800  0.24751500  0.38857300  1
  Cr  Cr14  1  0.69784100  0.71416300  0.41746000  1
  Cr  Cr15  1  0.30215900  0.28583700  0.58254000  1
  O  O16  1  0.58114300  0.27219800  0.97728700  1
  O  O17  1  0.41885700  0.72780200  0.02271300  1
  O  O18  1  0.59379700  0.48651300  0.80285900  1
  O  O19  1  0.40620300  0.51348700  0.19714100  1
  O  O20  1  0.85498400  0.25850600  0.84557000  1
  O  O21  1  0.14501600  0.74149400  0.15443000  1
  O  O22  1  0.81354700  0.52834000  0.94381800  1
  O  O23  1  0.18645300  0.47166000  0.05618200  1
  O  O24  1  0.48571600  0.06127800  0.14552400  1
  O  O25  1  0.51428400  0.93872200  0.85447600  1
  O  O26  1  0.75270200  0.25029800  0.15370900  1
  O  O27  1  0.24729800  0.74970200  0.84629100  1
  O  O28  1  0.78047500  0.98232900  0.05616600  1
  O  O29  1  0.21952500  0.01767100  0.94383400  1
  O  O30  1  0.81271200  0.65212400  0.52875100  1
  O  O31  1  0.18728800  0.34787600  0.47124900  1
  O  O32  1  0.98515400  0.60544700  0.70199800  1
  O  O33  1  0.01484600  0.39455300  0.29800200  1
  O  O34  1  0.82210800  0.90845800  0.65296100  1
  O  O35  1  0.17789200  0.09154200  0.34703900  1
  O  O36  1  0.10827100  0.82202500  0.55748100  1
  O  O37  1  0.89172900  0.17797500  0.44251900  1
  O  O38  1  0.62917800  0.54242100  0.38125000  1
  O  O39  1  0.37082200  0.45757900  0.61875000  1
  O  O40  1  0.81987400  0.80922400  0.33349700  1
  O  O41  1  0.18012600  0.19077600  0.66650300  1
  O  O42  1  0.53409100  0.84241800  0.43819800  1
  O  O43  1  0.46590900  0.15758200  0.56180200  1
