# generated using pymatgen
data_Li2CoP2O7
_symmetry_space_group_name_H-M   'P 1'
_cell_length_a   5.18977839
_cell_length_b   7.25917256
_cell_length_c   15.03033060
_cell_angle_alpha   92.05488889
_cell_angle_beta   90.54627896
_cell_angle_gamma   98.89745377
_symmetry_Int_Tables_number   1
_chemical_formula_structural   Li2CoP2O7
_chemical_formula_sum   'Li8 Co4 P8 O28'
_cell_volume   559.00637365
_cell_formula_units_Z   4
loop_
 _symmetry_equiv_pos_site_id
 _symmetry_equiv_pos_as_xyz
  1  'x, y, z'
loop_
 _atom_site_type_symbol
 _atom_site_label
 _atom_site_symmetry_multiplicity
 _atom_site_fract_x
 _atom_site_fract_y
 _atom_site_fract_z
 _atom_site_occupancy
  Li  Li0  1  0.70458100  0.40087000  0.22064100  1
  Li  Li1  1  0.70456600  0.90090700  0.72063700  1
  Li  Li2  1  0.29546400  0.09906800  0.27936100  1
  Li  Li3  1  0.29538000  0.59914600  0.77936000  1
  Li  Li4  1  0.29447600  0.36349900  0.49724300  1
  Li  Li5  1  0.29443900  0.86356200  0.99725500  1
  Li  Li6  1  0.70551100  0.13646600  0.00274600  1
  Li  Li7  1  0.70556900  0.63647400  0.50275400  1
  Co  Co8  1  0.18260700  0.13512300  0.86336900  1
  Co  Co9  1  0.81736100  0.86489200  0.13662700  1
  Co  Co10  1  0.18267400  0.63515700  0.36338500  1
  Co  Co11  1  0.81736500  0.36482100  0.63661800  1
  P  P12  1  0.73379900  0.89294000  0.34731400  1
  P  P13  1  0.73375800  0.39303600  0.84734000  1
  P  P14  1  0.26621500  0.60696500  0.15264800  1
  P  P15  1  0.26623300  0.10703900  0.65268900  1
  P  P16  1  0.76946400  0.27434600  0.41322100  1
  P  P17  1  0.76938100  0.77425900  0.91324300  1
  P  P18  1  0.23054200  0.22577900  0.08676200  1
  P  P19  1  0.23059700  0.72563400  0.58677600  1
  O  O20  1  0.17083800  0.77492000  0.11058000  1
  O  O21  1  0.17083400  0.27492400  0.61055000  1
  O  O22  1  0.82920300  0.72504900  0.38944800  1
  O  O23  1  0.82913400  0.22509700  0.88943100  1
  O  O24  1  0.89859100  0.96316500  0.26755300  1
  O  O25  1  0.89855200  0.46316500  0.76754000  1
  O  O26  1  0.10144100  0.53685400  0.23245100  1
  O  O27  1  0.10142800  0.03680900  0.73244800  1
  O  O28  1  0.94617500  0.13682700  0.10041800  1
  O  O29  1  0.94615200  0.63675700  0.60039900  1
  O  O30  1  0.05390400  0.36322000  0.39959600  1
  O  O31  1  0.05378700  0.86320400  0.89958700  1
  O  O32  1  0.43787300  0.86335200  0.32824200  1
  O  O33  1  0.43782100  0.36341600  0.82822700  1
  O  O34  1  0.56214100  0.63660100  0.17177200  1
  O  O35  1  0.56216100  0.13663800  0.67176100  1
  O  O36  1  0.58648800  0.29209200  0.33596800  1
  O  O37  1  0.58642500  0.79215200  0.83598400  1
  O  O38  1  0.41353200  0.20787100  0.16401500  1
  O  O39  1  0.41353900  0.70787800  0.66402100  1
  O  O40  1  0.21494600  0.44531900  0.07353200  1
  O  O41  1  0.21491600  0.94529600  0.57349900  1
  O  O42  1  0.78513500  0.05468000  0.42649500  1
  O  O43  1  0.78501400  0.55472700  0.92648400  1
  O  O44  1  0.33562400  0.65532800  0.49750300  1
  O  O45  1  0.33555700  0.15540700  0.99749800  1
  O  O46  1  0.66437100  0.84461100  0.00251100  1
  O  O47  1  0.66443800  0.34465600  0.50249800  1
