# generated using pymatgen
data_Bi5IO7
_symmetry_space_group_name_H-M   'P 1'
_cell_length_a   9.70578005
_cell_length_b   9.70578005
_cell_length_c   13.49334183
_cell_angle_alpha   73.87958770
_cell_angle_beta   73.87958770
_cell_angle_gamma   25.37935449
_symmetry_Int_Tables_number   1
_chemical_formula_structural   Bi5IO7
_chemical_formula_sum   'Bi10 I2 O14'
_cell_volume   522.27539229
_cell_formula_units_Z   2
loop_
 _symmetry_equiv_pos_site_id
 _symmetry_equiv_pos_as_xyz
  1  'x, y, z'
loop_
 _atom_site_type_symbol
 _atom_site_label
 _atom_site_symmetry_multiplicity
 _atom_site_fract_x
 _atom_site_fract_y
 _atom_site_fract_z
 _atom_site_occupancy
  Bi  Bi0  1  0.79484300  0.79484300  0.36974800  1
  Bi  Bi1  1  0.20515700  0.20515700  0.63025200  1
  Bi  Bi2  1  0.39496200  0.39496200  0.12979700  1
  Bi  Bi3  1  0.60503800  0.60503800  0.87020300  1
  Bi  Bi4  1  0.46880100  0.46880100  0.36503300  1
  Bi  Bi5  1  0.53119900  0.53119900  0.63496700  1
  Bi  Bi6  1  0.12282500  0.12282500  0.41074800  1
  Bi  Bi7  1  0.87717500  0.87717500  0.58925200  1
  Bi  Bi8  1  0.73914800  0.73914800  0.13521100  1
  Bi  Bi9  1  0.26085200  0.26085200  0.86478900  1
  I  I10  1  0.92892400  0.92892400  0.87122700  1
  I  I11  1  0.07107600  0.07107600  0.12877300  1
  O  O12  1  0.15043600  0.15043600  0.83175800  1
  O  O13  1  0.84956400  0.84956400  0.16824200  1
  O  O14  1  0.62651000  0.62651000  0.70112800  1
  O  O15  1  0.37349000  0.37349000  0.29887200  1
  O  O16  1  0.28436300  0.28436300  0.11516600  1
  O  O17  1  0.71563700  0.71563700  0.88483400  1
  O  O18  1  0.92957900  0.92957900  0.41300800  1
  O  O19  1  0.07042100  0.07042100  0.58699200  1
  O  O20  1  0.22778700  0.22778700  0.44107900  1
  O  O21  1  0.77221300  0.77221300  0.55892100  1
  O  O22  1  0.30163000  0.30163000  0.70207200  1
  O  O23  1  0.69837000  0.69837000  0.29792800  1
  O  O24  1  0.41519100  0.41519100  0.52860700  1
  O  O25  1  0.58480900  0.58480900  0.47139300  1
