# generated using pymatgen
data_KCrCuF6
_symmetry_space_group_name_H-M   'P 1'
_cell_length_a   10.18761800
_cell_length_b   6.84503700
_cell_length_c   7.42913205
_cell_angle_alpha   85.87866651
_cell_angle_beta   90.00000000
_cell_angle_gamma   90.00000000
_symmetry_Int_Tables_number   1
_chemical_formula_structural   KCrCuF6
_chemical_formula_sum   'K4 Cr4 Cu4 F24'
_cell_volume   516.72804111
_cell_formula_units_Z   4
loop_
 _symmetry_equiv_pos_site_id
 _symmetry_equiv_pos_as_xyz
  1  'x, y, z'
loop_
 _atom_site_type_symbol
 _atom_site_label
 _atom_site_symmetry_multiplicity
 _atom_site_fract_x
 _atom_site_fract_y
 _atom_site_fract_z
 _atom_site_occupancy
  K  K0  1  0.11529900  0.50186700  0.24269600  1
  K  K1  1  0.61529900  0.99813300  0.75730400  1
  K  K2  1  0.88470100  0.49813300  0.75730400  1
  K  K3  1  0.38470100  0.00186700  0.24269600  1
  Cr  Cr4  1  0.00000000  0.00000000  0.50000000  1
  Cr  Cr5  1  0.50000000  0.50000000  0.50000000  1
  Cr  Cr6  1  0.00000000  0.00000000  0.00000000  1
  Cr  Cr7  1  0.50000000  0.50000000  0.00000000  1
  Cu  Cu8  1  0.73276300  0.18124100  0.25497800  1
  Cu  Cu9  1  0.23276300  0.31875900  0.74502200  1
  Cu  Cu10  1  0.26723700  0.81875900  0.74502200  1
  Cu  Cu11  1  0.76723700  0.68124100  0.25497800  1
  F  F12  1  0.83497900  0.13520000  0.97316300  1
  F  F13  1  0.33497900  0.36480000  0.02683700  1
  F  F14  1  0.16502100  0.86480000  0.02683700  1
  F  F15  1  0.66502100  0.63520000  0.97316300  1
  F  F16  1  0.18051600  0.90077100  0.51197000  1
  F  F17  1  0.68051600  0.59922900  0.48803000  1
  F  F18  1  0.81948400  0.09922900  0.48803000  1
  F  F19  1  0.31948400  0.40077100  0.51197000  1
  F  F20  1  0.66952700  0.92000700  0.24413700  1
  F  F21  1  0.16952700  0.57999300  0.75586300  1
  F  F22  1  0.33047300  0.07999300  0.75586300  1
  F  F23  1  0.83047300  0.42000700  0.24413700  1
  F  F24  1  0.97743200  0.91328500  0.75504600  1
  F  F25  1  0.47743200  0.58671500  0.24495400  1
  F  F26  1  0.02256800  0.08671500  0.24495400  1
  F  F27  1  0.52256800  0.41328500  0.75504600  1
  F  F28  1  0.91061600  0.75559700  0.07708600  1
  F  F29  1  0.41061600  0.74440300  0.92291400  1
  F  F30  1  0.08938400  0.24440300  0.92291400  1
  F  F31  1  0.58938400  0.25559700  0.07708600  1
  F  F32  1  0.44171100  0.75659100  0.55403300  1
  F  F33  1  0.94171100  0.74340900  0.44596700  1
  F  F34  1  0.55828900  0.24340900  0.44596700  1
  F  F35  1  0.05828900  0.25659100  0.55403300  1
