# generated using pymatgen
data_Mn(AgO2)2
_symmetry_space_group_name_H-M   'P 1'
_cell_length_a   5.58801900
_cell_length_b   6.97460600
_cell_length_c   9.89595300
_cell_angle_alpha   90.00000000
_cell_angle_beta   90.00000000
_cell_angle_gamma   90.00000000
_symmetry_Int_Tables_number   1
_chemical_formula_structural   Mn(AgO2)2
_chemical_formula_sum   'Mn4 Ag8 O16'
_cell_volume   385.68715666
_cell_formula_units_Z   4
loop_
 _symmetry_equiv_pos_site_id
 _symmetry_equiv_pos_as_xyz
  1  'x, y, z'
loop_
 _atom_site_type_symbol
 _atom_site_label
 _atom_site_symmetry_multiplicity
 _atom_site_fract_x
 _atom_site_fract_y
 _atom_site_fract_z
 _atom_site_occupancy
  Mn  Mn0  1  0.96734000  0.75000000  0.31449800  1
  Mn  Mn1  1  0.46734000  0.25000000  0.18550200  1
  Mn  Mn2  1  0.03266000  0.25000000  0.68550200  1
  Mn  Mn3  1  0.53266000  0.75000000  0.81449800  1
  Ag  Ag4  1  0.50000000  0.50000000  0.50000000  1
  Ag  Ag5  1  0.00000000  0.50000000  0.00000000  1
  Ag  Ag6  1  0.50000000  0.00000000  0.50000000  1
  Ag  Ag7  1  0.00000000  0.00000000  0.00000000  1
  Ag  Ag8  1  0.01794500  0.75000000  0.64789900  1
  Ag  Ag9  1  0.51794500  0.25000000  0.85210100  1
  Ag  Ag10  1  0.98205500  0.25000000  0.35210100  1
  Ag  Ag11  1  0.48205500  0.75000000  0.14789900  1
  O  O12  1  0.59187500  0.75000000  0.63958100  1
  O  O13  1  0.09187500  0.25000000  0.86041900  1
  O  O14  1  0.40812500  0.25000000  0.36041900  1
  O  O15  1  0.90812500  0.75000000  0.13958100  1
  O  O16  1  0.23639500  0.75000000  0.84999700  1
  O  O17  1  0.73639500  0.25000000  0.65000300  1
  O  O18  1  0.76360500  0.25000000  0.15000300  1
  O  O19  1  0.26360500  0.75000000  0.34999700  1
  O  O20  1  0.66749900  0.54950200  0.88321000  1
  O  O21  1  0.16749900  0.45049800  0.61679000  1
  O  O22  1  0.33250100  0.04950200  0.11679000  1
  O  O23  1  0.83250100  0.95049800  0.38321000  1
  O  O24  1  0.33250100  0.45049800  0.11679000  1
  O  O25  1  0.83250100  0.54950200  0.38321000  1
  O  O26  1  0.66749900  0.95049800  0.88321000  1
  O  O27  1  0.16749900  0.04950200  0.61679000  1
