# generated using pymatgen
data_B2PdO4
_symmetry_space_group_name_H-M   'P 1'
_cell_length_a   8.82644049
_cell_length_b   8.82644049
_cell_length_c   8.82644049
_cell_angle_alpha   96.12957001
_cell_angle_beta   96.12957001
_cell_angle_gamma   141.85457156
_symmetry_Int_Tables_number   1
_chemical_formula_structural   B2PdO4
_chemical_formula_sum   'B12 Pd6 O24'
_cell_volume   401.40788330
_cell_formula_units_Z   6
loop_
 _symmetry_equiv_pos_site_id
 _symmetry_equiv_pos_as_xyz
  1  'x, y, z'
loop_
 _atom_site_type_symbol
 _atom_site_label
 _atom_site_symmetry_multiplicity
 _atom_site_fract_x
 _atom_site_fract_y
 _atom_site_fract_z
 _atom_site_occupancy
  B  B0  1  0.45178100  0.48803000  0.33309900  1
  B  B1  1  0.51197000  0.84507000  0.96375100  1
  B  B2  1  0.88131900  0.54821900  0.03624900  1
  B  B3  1  0.15493000  0.11868100  0.66690100  1
  B  B4  1  0.09507000  0.26197000  0.46375100  1
  B  B5  1  0.79821900  0.63131900  0.53624900  1
  B  B6  1  0.73803000  0.20178100  0.83309900  1
  B  B7  1  0.36868100  0.90493000  0.16690100  1
  B  B8  1  0.62500000  0.37417400  0.24917400  1
  B  B9  1  0.62582600  0.87500000  0.25082600  1
  B  B10  1  0.62417400  0.37500000  0.74917400  1
  B  B11  1  0.12500000  0.37582600  0.75082600  1
  Pd  Pd12  1  0.50000000  0.50000000  0.00000000  1
  Pd  Pd13  1  0.75000000  0.25000000  0.50000000  1
  Pd  Pd14  1  0.12500000  0.95523600  0.33023600  1
  Pd  Pd15  1  0.04476400  0.37500000  0.16976400  1
  Pd  Pd16  1  0.20523600  0.87500000  0.83023600  1
  Pd  Pd17  1  0.62500000  0.79476400  0.66976400  1
  O  O18  1  0.57177000  0.66488300  0.23297100  1
  O  O19  1  0.33511700  0.56808800  0.90688700  1
  O  O20  1  0.66120100  0.42823000  0.09311300  1
  O  O21  1  0.43191200  0.33879900  0.76702900  1
  O  O22  1  0.81808800  0.08511700  0.40688700  1
  O  O23  1  0.67823000  0.41120100  0.59311300  1
  O  O24  1  0.91488300  0.32177000  0.73297100  1
  O  O25  1  0.58879900  0.18191200  0.26702900  1
  O  O26  1  0.62500000  0.62344600  0.49844600  1
  O  O27  1  0.37655400  0.87500000  0.00155400  1
  O  O28  1  0.87344600  0.37500000  0.99844600  1
  O  O29  1  0.12500000  0.12655400  0.50155400  1
  O  O30  1  0.21490900  0.37500000  0.33990900  1
  O  O31  1  0.62500000  0.96490900  0.83990900  1
  O  O32  1  0.12500000  0.78509100  0.16009100  1
  O  O33  1  0.03509100  0.87500000  0.66009100  1
  O  O34  1  0.39641700  0.28306900  0.26031900  1
  O  O35  1  0.71693100  0.97724900  0.11334800  1
  O  O36  1  0.86390200  0.60358300  0.88665200  1
  O  O37  1  0.02275100  0.13609800  0.73968100  1
  O  O38  1  0.22724900  0.46693100  0.61334800  1
  O  O39  1  0.85358300  0.61390200  0.38665200  1
  O  O40  1  0.53306900  0.14641700  0.76031900  1
  O  O41  1  0.38609800  0.77275100  0.23968100  1
