# generated using pymatgen
data_Ba2Mg3F10
_symmetry_space_group_name_H-M   'P 1'
_cell_length_a   9.84540870
_cell_length_b   9.84540870
_cell_length_c   7.92772059
_cell_angle_alpha   69.11019687
_cell_angle_beta   69.11019687
_cell_angle_gamma   35.68123690
_symmetry_Int_Tables_number   1
_chemical_formula_structural   Ba2Mg3F10
_chemical_formula_sum   'Ba4 Mg6 F20'
_cell_volume   415.58455492
_cell_formula_units_Z   2
loop_
 _symmetry_equiv_pos_site_id
 _symmetry_equiv_pos_as_xyz
  1  'x, y, z'
loop_
 _atom_site_type_symbol
 _atom_site_label
 _atom_site_symmetry_multiplicity
 _atom_site_fract_x
 _atom_site_fract_y
 _atom_site_fract_z
 _atom_site_occupancy
  Ba  Ba0  1  0.28375900  0.28375900  0.31520100  1
  Ba  Ba1  1  0.71624100  0.71624100  0.68479900  1
  Ba  Ba2  1  0.38628800  0.38628800  0.71907100  1
  Ba  Ba3  1  0.61371200  0.61371200  0.28092900  1
  Mg  Mg4  1  0.07423500  0.07423500  0.54588900  1
  Mg  Mg5  1  0.92576500  0.92576500  0.45411100  1
  Mg  Mg6  1  0.17708500  0.17708500  0.98570000  1
  Mg  Mg7  1  0.82291500  0.82291500  0.01430000  1
  Mg  Mg8  1  0.74603400  0.25396600  0.00000000  1
  Mg  Mg9  1  0.25396600  0.74603400  0.00000000  1
  F  F10  1  0.85786800  0.36369100  0.97527900  1
  F  F11  1  0.63630900  0.14213200  0.02472100  1
  F  F12  1  0.14213200  0.63630900  0.02472100  1
  F  F13  1  0.36369100  0.85786800  0.97527900  1
  F  F14  1  0.91039500  0.38648600  0.52535900  1
  F  F15  1  0.61351400  0.08960500  0.47464100  1
  F  F16  1  0.08960500  0.61351400  0.47464100  1
  F  F17  1  0.38648600  0.91039500  0.52535900  1
  F  F18  1  0.02238600  0.02238600  0.81819600  1
  F  F19  1  0.97761400  0.97761400  0.18180400  1
  F  F20  1  0.13435500  0.13435500  0.25650600  1
  F  F21  1  0.86564500  0.86564500  0.74349400  1
  F  F22  1  0.23634500  0.23634500  0.72200400  1
  F  F23  1  0.76365500  0.76365500  0.27799600  1
  F  F24  1  0.51710100  0.51710100  0.82076700  1
  F  F25  1  0.48289900  0.48289900  0.17923300  1
  F  F26  1  0.78121600  0.21878400  0.50000000  1
  F  F27  1  0.21878400  0.78121600  0.50000000  1
  F  F28  1  0.00000000  0.50000000  0.00000000  1
  F  F29  1  0.50000000  0.00000000  0.00000000  1
