# generated using pymatgen
data_K(WO3)3
_symmetry_space_group_name_H-M   'P 1'
_cell_length_a   7.53460399
_cell_length_b   7.53460399
_cell_length_c   7.78572612
_cell_angle_alpha   89.98472445
_cell_angle_beta   89.98472445
_cell_angle_gamma   120.34083984
_symmetry_Int_Tables_number   1
_chemical_formula_structural   K(WO3)3
_chemical_formula_sum   'K2 W6 O18'
_cell_volume   381.45972174
_cell_formula_units_Z   2
loop_
 _symmetry_equiv_pos_site_id
 _symmetry_equiv_pos_as_xyz
  1  'x, y, z'
loop_
 _atom_site_type_symbol
 _atom_site_label
 _atom_site_symmetry_multiplicity
 _atom_site_fract_x
 _atom_site_fract_y
 _atom_site_fract_z
 _atom_site_occupancy
  K  K0  1  0.99999600  0.99998700  0.73322200  1
  K  K1  1  0.99998700  0.99999600  0.23322200  1
  W  W2  1  0.99956300  0.49868000  0.49980800  1
  W  W3  1  0.99985700  0.50130700  0.99980200  1
  W  W4  1  0.50089600  0.50136000  0.49951000  1
  W  W5  1  0.50136000  0.50089600  0.99951000  1
  W  W6  1  0.49868000  0.99956300  0.99980800  1
  W  W7  1  0.50130700  0.99985700  0.49980200  1
  O  O8  1  0.98555400  0.49254900  0.24328600  1
  O  O9  1  0.79018700  0.20707400  0.99129400  1
  O  O10  1  0.79173900  0.21009700  0.50903200  1
  O  O11  1  0.78600300  0.58166600  0.50879200  1
  O  O12  1  0.50754300  0.01460000  0.25651100  1
  O  O13  1  0.78945300  0.57945100  0.99146000  1
  O  O14  1  0.41640600  0.21349800  0.99143500  1
  O  O15  1  0.41920300  0.20984300  0.50892500  1
  O  O16  1  0.50723600  0.49245000  0.25002000  1
  O  O17  1  0.49245000  0.50723600  0.75002000  1
  O  O18  1  0.58166600  0.78600300  0.00879200  1
  O  O19  1  0.57945100  0.78945300  0.49146000  1
  O  O20  1  0.21349800  0.41640600  0.49143500  1
  O  O21  1  0.49254900  0.98555400  0.74328600  1
  O  O22  1  0.20984300  0.41920300  0.00892500  1
  O  O23  1  0.21009700  0.79173900  0.00903200  1
  O  O24  1  0.20707400  0.79018700  0.49129400  1
  O  O25  1  0.01460000  0.50754300  0.75651100  1
