# generated using pymatgen
data_Ge2C2(SF2)3
_symmetry_space_group_name_H-M   'P 1'
_cell_length_a   11.39876637
_cell_length_b   11.39876637
_cell_length_c   11.39876637
_cell_angle_alpha   60.00000000
_cell_angle_beta   60.00000000
_cell_angle_gamma   60.00000000
_symmetry_Int_Tables_number   1
_chemical_formula_structural   Ge2C2(SF2)3
_chemical_formula_sum   'Ge8 C8 S12 F24'
_cell_volume   1047.26975135
_cell_formula_units_Z   4
loop_
 _symmetry_equiv_pos_site_id
 _symmetry_equiv_pos_as_xyz
  1  'x, y, z'
loop_
 _atom_site_type_symbol
 _atom_site_label
 _atom_site_symmetry_multiplicity
 _atom_site_fract_x
 _atom_site_fract_y
 _atom_site_fract_z
 _atom_site_occupancy
  Ge  Ge0  1  0.42485200  0.72544500  0.42485200  1
  Ge  Ge1  1  0.82514800  0.82514800  0.52455500  1
  Ge  Ge2  1  0.52455500  0.82514800  0.82514800  1
  Ge  Ge3  1  0.82514800  0.82514800  0.82514800  1
  Ge  Ge4  1  0.72544500  0.42485200  0.42485200  1
  Ge  Ge5  1  0.42485200  0.42485200  0.42485200  1
  Ge  Ge6  1  0.42485200  0.42485200  0.72544500  1
  Ge  Ge7  1  0.82514800  0.52455500  0.82514800  1
  C  C8  1  0.35155100  0.94534600  0.35155100  1
  C  C9  1  0.89844900  0.89844900  0.30465400  1
  C  C10  1  0.30465400  0.89844900  0.89844900  1
  C  C11  1  0.89844900  0.89844900  0.89844900  1
  C  C12  1  0.94534600  0.35155100  0.35155100  1
  C  C13  1  0.35155100  0.35155100  0.35155100  1
  C  C14  1  0.35155100  0.35155100  0.94534600  1
  C  C15  1  0.89844900  0.30465400  0.89844900  1
  S  S16  1  0.66455500  0.66455500  0.33544500  1
  S  S17  1  0.91455500  0.58544500  0.58544500  1
  S  S18  1  0.58544500  0.91455500  0.91455500  1
  S  S19  1  0.91455500  0.91455500  0.58544500  1
  S  S20  1  0.91455500  0.58544500  0.91455500  1
  S  S21  1  0.58544500  0.91455500  0.58544500  1
  S  S22  1  0.33544500  0.66455500  0.33544500  1
  S  S23  1  0.33544500  0.66455500  0.66455500  1
  S  S24  1  0.66455500  0.33544500  0.33544500  1
  S  S25  1  0.66455500  0.33544500  0.66455500  1
  S  S26  1  0.58544500  0.58544500  0.91455500  1
  S  S27  1  0.33544500  0.33544500  0.66455500  1
  F  F28  1  0.26972200  0.99788700  0.46266800  1
  F  F29  1  0.98027800  0.98027800  0.25211300  1
  F  F30  1  0.25211300  0.78733200  0.98027800  1
  F  F31  1  0.98027800  0.78733200  0.98027800  1
  F  F32  1  0.78733200  0.98027800  0.25211300  1
  F  F33  1  0.78733200  0.98027800  0.98027800  1
  F  F34  1  0.25211300  0.98027800  0.98027800  1
  F  F35  1  0.46266800  0.99788700  0.26972200  1
  F  F36  1  0.26972200  0.99788700  0.26972200  1
  F  F37  1  0.99788700  0.26972200  0.46266800  1
  F  F38  1  0.26972200  0.26972200  0.46266800  1
  F  F39  1  0.99788700  0.46266800  0.26972200  1
  F  F40  1  0.46266800  0.26972200  0.99788700  1
  F  F41  1  0.26972200  0.26972200  0.99788700  1
  F  F42  1  0.26972200  0.46266800  0.26972200  1
  F  F43  1  0.25211300  0.98027800  0.78733200  1
  F  F44  1  0.98027800  0.98027800  0.78733200  1
  F  F45  1  0.98027800  0.78733200  0.25211300  1
  F  F46  1  0.98027800  0.25211300  0.78733200  1
  F  F47  1  0.78733200  0.25211300  0.98027800  1
  F  F48  1  0.98027800  0.25211300  0.98027800  1
  F  F49  1  0.46266800  0.26972200  0.26972200  1
  F  F50  1  0.99788700  0.26972200  0.26972200  1
  F  F51  1  0.26972200  0.46266800  0.99788700  1
