# generated using pymatgen
data_RbHo(PO3)4
_symmetry_space_group_name_H-M   'P 1'
_cell_length_a   8.95727100
_cell_length_b   10.38659400
_cell_length_c   12.87860859
_cell_angle_alpha   55.59344269
_cell_angle_beta   90.00000000
_cell_angle_gamma   90.00000000
_symmetry_Int_Tables_number   1
_chemical_formula_structural   RbHo(PO3)4
_chemical_formula_sum   'Rb4 Ho4 P16 O48'
_cell_volume   988.54733311
_cell_formula_units_Z   4
loop_
 _symmetry_equiv_pos_site_id
 _symmetry_equiv_pos_as_xyz
  1  'x, y, z'
loop_
 _atom_site_type_symbol
 _atom_site_label
 _atom_site_symmetry_multiplicity
 _atom_site_fract_x
 _atom_site_fract_y
 _atom_site_fract_z
 _atom_site_occupancy
  Rb  Rb0  1  0.43362000  0.26683300  0.54225600  1
  Rb  Rb1  1  0.06638000  0.26683300  0.04225600  1
  Rb  Rb2  1  0.56638000  0.73316700  0.45774400  1
  Rb  Rb3  1  0.93362000  0.73316700  0.95774400  1
  Ho  Ho4  1  0.72691200  0.18346700  0.81812600  1
  Ho  Ho5  1  0.77308800  0.18346700  0.31812600  1
  Ho  Ho6  1  0.27308800  0.81653300  0.18187400  1
  Ho  Ho7  1  0.22691200  0.81653300  0.68187400  1
  P  P8  1  0.32877000  0.17484100  0.86566800  1
  P  P9  1  0.17123000  0.17484100  0.36566800  1
  P  P10  1  0.67123000  0.82515900  0.13433200  1
  P  P11  1  0.82877000  0.82515900  0.63433200  1
  P  P12  1  0.59187700  0.88862600  0.75835400  1
  P  P13  1  0.90812300  0.88862600  0.25835400  1
  P  P14  1  0.40812300  0.11137400  0.24164600  1
  P  P15  1  0.09187700  0.11137400  0.74164600  1
  P  P16  1  0.52502500  0.52520800  0.22146200  1
  P  P17  1  0.97497500  0.52520800  0.72146200  1
  P  P18  1  0.47497500  0.47479200  0.77853800  1
  P  P19  1  0.02502500  0.47479200  0.27853800  1
  P  P20  1  0.88961700  0.30151500  0.52347800  1
  P  P21  1  0.61038300  0.30151500  0.02347800  1
  P  P22  1  0.11038300  0.69848500  0.47652200  1
  P  P23  1  0.38961700  0.69848500  0.97652200  1
  O  O24  1  0.25659500  0.07043400  0.99204000  1
  O  O25  1  0.24340500  0.07043400  0.49204000  1
  O  O26  1  0.74340500  0.92956600  0.00796000  1
  O  O27  1  0.75659500  0.92956600  0.50796000  1
  O  O28  1  0.20884300  0.22129700  0.75467800  1
  O  O29  1  0.29115700  0.22129700  0.25467800  1
  O  O30  1  0.79115700  0.77870300  0.24532200  1
  O  O31  1  0.70884300  0.77870300  0.74532200  1
  O  O32  1  0.47210100  0.13160600  0.83293600  1
  O  O33  1  0.02789900  0.13160600  0.33293600  1
  O  O34  1  0.52789900  0.86839400  0.16706400  1
  O  O35  1  0.97210100  0.86839400  0.66706400  1
  O  O36  1  0.45852000  0.92430200  0.67562600  1
  O  O37  1  0.04148000  0.92430200  0.17562600  1
  O  O38  1  0.54148000  0.07569800  0.32437400  1
  O  O39  1  0.95852000  0.07569800  0.82437400  1
  O  O40  1  0.67698400  0.02051300  0.74604700  1
  O  O41  1  0.82301600  0.02051300  0.24604700  1
  O  O42  1  0.32301600  0.97948700  0.25395300  1
  O  O43  1  0.17698400  0.97948700  0.75395300  1
  O  O44  1  0.41426200  0.57162700  0.28272000  1
  O  O45  1  0.08573800  0.57162700  0.78272000  1
  O  O46  1  0.58573800  0.42837300  0.71728000  1
  O  O47  1  0.91426200  0.42837300  0.21728000  1
  O  O48  1  0.65741100  0.65492300  0.15740800  1
  O  O49  1  0.84258900  0.65492300  0.65740800  1
  O  O50  1  0.34258900  0.34507700  0.84259200  1
  O  O51  1  0.15741100  0.34507700  0.34259200  1
  O  O52  1  0.83262600  0.20205000  0.48194700  1
  O  O53  1  0.66737400  0.20205000  0.98194700  1
  O  O54  1  0.16737400  0.79795000  0.51805300  1
  O  O55  1  0.33262600  0.79795000  0.01805300  1
  O  O56  1  0.78767600  0.33712500  0.59686100  1
  O  O57  1  0.71232400  0.33712500  0.09686100  1
  O  O58  1  0.21232400  0.66287500  0.40313900  1
  O  O59  1  0.28767600  0.66287500  0.90313900  1
  O  O60  1  0.95206200  0.46203500  0.39975200  1
  O  O61  1  0.54793800  0.46203500  0.89975200  1
  O  O62  1  0.04793800  0.53796500  0.60024800  1
  O  O63  1  0.45206200  0.53796500  0.10024800  1
  O  O64  1  0.90579600  0.36656900  0.80170000  1
  O  O65  1  0.59420400  0.36656900  0.30170000  1
  O  O66  1  0.09420400  0.63343100  0.19830000  1
  O  O67  1  0.40579600  0.63343100  0.69830000  1
  O  O68  1  0.04774700  0.23442500  0.59638500  1
  O  O69  1  0.45225300  0.23442500  0.09638500  1
  O  O70  1  0.95225300  0.76557500  0.40361500  1
  O  O71  1  0.54774700  0.76557500  0.90361500  1
