data_image0
_chemical_formula_structural       Co8Sc24
_chemical_formula_sum              "Co8 Sc24"
_cell_length_a       12.9378
_cell_length_b       8.53312
_cell_length_c       5.75549
_cell_angle_alpha    90
_cell_angle_beta     90
_cell_angle_gamma    90

_space_group_name_H-M_alt    "P 1"
_space_group_IT_number       1

loop_
  _space_group_symop_operation_xyz
  'x, y, z'

loop_
  _atom_site_type_symbol
  _atom_site_label
  _atom_site_symmetry_multiplicity
  _atom_site_fract_x
  _atom_site_fract_y
  _atom_site_fract_z
  _atom_site_occupancy
  Co  Co1       1.0  0.44200  0.25000  0.05460  1.0000
  Co  Co2       1.0  0.05840  0.75000  0.55500  1.0000
  Co  Co3       1.0  0.94200  0.25000  0.44500  1.0000
  Co  Co4       1.0  0.55800  0.75000  0.94500  1.0000
  Co  Co5       1.0  0.17900  0.25000  0.63200  1.0000
  Co  Co6       1.0  0.32100  0.75000  0.13200  1.0000
  Co  Co7       1.0  0.67900  0.25000  0.86800  1.0000
  Co  Co8       1.0  0.82100  0.75000  0.36800  1.0000
  Sc  Sc1       1.0  0.53500  0.06320  0.75400  1.0000
  Sc  Sc2       1.0  0.96500  0.93700  0.25400  1.0000
  Sc  Sc3       1.0  0.03490  0.43700  0.74600  1.0000
  Sc  Sc4       1.0  0.46500  0.56300  0.24600  1.0000
  Sc  Sc5       1.0  0.46500  0.93700  0.24600  1.0000
  Sc  Sc6       1.0  0.03490  0.06320  0.74600  1.0000
  Sc  Sc7       1.0  0.96500  0.56300  0.25400  1.0000
  Sc  Sc8       1.0  0.53500  0.43700  0.75400  1.0000
  Sc  Sc9       1.0  0.35400  0.25000  0.45300  1.0000
  Sc  Sc10      1.0  0.14600  0.75000  0.95300  1.0000
  Sc  Sc11      1.0  0.85400  0.25000  0.04680  1.0000
  Sc  Sc12      1.0  0.64600  0.75000  0.54700  1.0000
  Sc  Sc13      1.0  0.78700  0.06670  0.59000  1.0000
  Sc  Sc14      1.0  0.71300  0.93300  0.09050  1.0000
  Sc  Sc15      1.0  0.28700  0.43300  0.91000  1.0000
  Sc  Sc16      1.0  0.21300  0.56700  0.41000  1.0000
  Sc  Sc17      1.0  0.21300  0.93300  0.41000  1.0000
  Sc  Sc18      1.0  0.28700  0.06670  0.91000  1.0000
  Sc  Sc19      1.0  0.71300  0.56700  0.09050  1.0000
  Sc  Sc20      1.0  0.78700  0.43300  0.59000  1.0000
  Sc  Sc21      1.0  0.11000  0.25000  0.21100  1.0000
  Sc  Sc22      1.0  0.39000  0.75000  0.71100  1.0000
  Sc  Sc23      1.0  0.61000  0.25000  0.28900  1.0000
  Sc  Sc24      1.0  0.89000  0.75000  0.78900  1.0000
