# generated using pymatgen
data_In3NO3
_symmetry_space_group_name_H-M   'P 1'
_cell_length_a   6.56267471
_cell_length_b   6.56267471
_cell_length_c   6.56267471
_cell_angle_alpha   119.99379710
_cell_angle_beta   119.65331474
_cell_angle_gamma   90.30613433
_symmetry_Int_Tables_number   1
_chemical_formula_structural   In3NO3
_chemical_formula_sum   'In6 N2 O6'
_cell_volume   200.38853165
_cell_formula_units_Z   2
loop_
 _symmetry_equiv_pos_site_id
 _symmetry_equiv_pos_as_xyz
  1  'x, y, z'
loop_
 _atom_site_type_symbol
 _atom_site_label
 _atom_site_symmetry_multiplicity
 _atom_site_fract_x
 _atom_site_fract_y
 _atom_site_fract_z
 _atom_site_occupancy
  In  In0  1  0.99130600  0.00000000  0.99130600  1
  In  In1  1  0.39599700  0.63395400  0.26204200  1
  In  In2  1  0.99130600  0.50000000  0.49130600  1
  In  In3  1  0.62808800  0.36604600  0.76204200  1
  In  In4  1  0.50173400  0.00287400  0.99886000  1
  In  In5  1  0.99598600  0.99712600  0.49886000  1
  N  N6  1  0.78758100  0.76393300  0.52364800  1
  N  N7  1  0.75971400  0.23606700  0.02364800  1
  O  O8  1  0.24577500  0.76172700  0.98404800  1
  O  O9  1  0.24654400  0.75782000  0.51305900  1
  O  O10  1  0.75523900  0.76651400  0.01305900  1
  O  O11  1  0.75523900  0.24218000  0.48872500  1
  O  O12  1  0.22232100  0.23827300  0.48404800  1
  O  O13  1  0.24654400  0.23348600  0.98872500  1
