# generated using pymatgen
data_AlPO4
_symmetry_space_group_name_H-M   'P 1'
_cell_length_a   9.46890513
_cell_length_b   9.46890513
_cell_length_c   18.78603318
_cell_angle_alpha   89.82151634
_cell_angle_beta   89.82151634
_cell_angle_gamma   85.55349248
_symmetry_Int_Tables_number   1
_chemical_formula_structural   AlPO4
_chemical_formula_sum   'Al12 P12 O48'
_cell_volume   1679.27403339
_cell_formula_units_Z   12
loop_
 _symmetry_equiv_pos_site_id
 _symmetry_equiv_pos_as_xyz
  1  'x, y, z'
loop_
 _atom_site_type_symbol
 _atom_site_label
 _atom_site_symmetry_multiplicity
 _atom_site_fract_x
 _atom_site_fract_y
 _atom_site_fract_z
 _atom_site_occupancy
  Al  Al0  1  0.92802100  0.85033300  0.33407600  1
  Al  Al1  1  0.14966700  0.07197900  0.16592400  1
  Al  Al2  1  0.07197900  0.14966700  0.66592400  1
  Al  Al3  1  0.85033300  0.92802100  0.83407600  1
  Al  Al4  1  0.65684800  0.10896400  0.56162800  1
  Al  Al5  1  0.89103600  0.34315200  0.93837200  1
  Al  Al6  1  0.34315200  0.89103600  0.43837200  1
  Al  Al7  1  0.10896400  0.65684800  0.06162800  1
  Al  Al8  1  0.13368300  0.32449100  0.44970800  1
  Al  Al9  1  0.67550900  0.86631700  0.05029200  1
  Al  Al10  1  0.86631700  0.67550900  0.55029200  1
  Al  Al11  1  0.32449100  0.13368300  0.94970800  1
  P  P12  1  0.67394300  0.86781500  0.44594700  1
  P  P13  1  0.13218500  0.32605700  0.05405300  1
  P  P14  1  0.32605700  0.13218500  0.55405300  1
  P  P15  1  0.86781500  0.67394300  0.94594700  1
  P  P16  1  0.88085900  0.34120700  0.56267600  1
  P  P17  1  0.65879300  0.11914100  0.93732400  1
  P  P18  1  0.11914100  0.65879300  0.43732400  1
  P  P19  1  0.34120700  0.88085900  0.06267600  1
  P  P20  1  0.14850100  0.08469900  0.33450600  1
  P  P21  1  0.91530100  0.85149900  0.16549400  1
  P  P22  1  0.85149900  0.91530100  0.66549400  1
  P  P23  1  0.08469900  0.14850100  0.83450600  1
  O  O24  1  0.12701200  0.23077200  0.36985300  1
  O  O25  1  0.76922800  0.87298800  0.13014700  1
  O  O26  1  0.87298800  0.76922800  0.63014700  1
  O  O27  1  0.23077200  0.12701200  0.86985300  1
  O  O28  1  0.97376500  0.31194300  0.49598200  1
  O  O29  1  0.68805700  0.02623500  0.00401800  1
  O  O30  1  0.02623500  0.68805700  0.50401800  1
  O  O31  1  0.31194300  0.97376500  0.99598200  1
  O  O32  1  0.74574900  0.26317400  0.55510800  1
  O  O33  1  0.73682600  0.25425100  0.94489200  1
  O  O34  1  0.25425100  0.73682600  0.44489200  1
  O  O35  1  0.26317400  0.74574900  0.05510800  1
  O  O36  1  0.67904800  0.01358200  0.48187100  1
  O  O37  1  0.98641800  0.32095200  0.01812900  1
  O  O38  1  0.32095200  0.98641800  0.51812900  1
  O  O39  1  0.01358200  0.67904800  0.98187100  1
  O  O40  1  0.76669400  0.86479300  0.37899700  1
  O  O41  1  0.13520700  0.23330600  0.12100300  1
  O  O42  1  0.23330600  0.13520700  0.62100300  1
  O  O43  1  0.86479300  0.76669400  0.87899700  1
  O  O44  1  0.01203600  0.00779200  0.34435800  1
  O  O45  1  0.99220800  0.98796400  0.15564200  1
  O  O46  1  0.98796400  0.99220800  0.65564200  1
  O  O47  1  0.00779200  0.01203600  0.84435800  1
  O  O48  1  0.27537700  0.99719100  0.36792600  1
  O  O49  1  0.00280900  0.72462300  0.13207400  1
  O  O50  1  0.72462300  0.00280900  0.63207400  1
  O  O51  1  0.99719100  0.27537700  0.86792600  1
  O  O52  1  0.16202600  0.50013800  0.43028900  1
  O  O53  1  0.49986200  0.83797400  0.06971100  1
  O  O54  1  0.83797400  0.49986200  0.56971100  1
  O  O55  1  0.50013800  0.16202600  0.93028900  1
  O  O56  1  0.89432800  0.81950900  0.24462900  1
  O  O57  1  0.18049100  0.10567200  0.25537100  1
  O  O58  1  0.10567200  0.18049100  0.75537100  1
  O  O59  1  0.81950900  0.89432800  0.74462900  1
  O  O60  1  0.47764500  0.15634600  0.57679800  1
  O  O61  1  0.84365400  0.52235500  0.92320200  1
  O  O62  1  0.52235500  0.84365400  0.42320200  1
  O  O63  1  0.15634600  0.47764500  0.07679800  1
  O  O64  1  0.96239000  0.29060200  0.63022300  1
  O  O65  1  0.70939800  0.03761000  0.86977700  1
  O  O66  1  0.03761000  0.70939800  0.36977700  1
  O  O67  1  0.29060200  0.96239000  0.13022300  1
  O  O68  1  0.27383100  0.25134600  0.50225200  1
  O  O69  1  0.74865400  0.72616900  0.99774800  1
  O  O70  1  0.72616900  0.74865400  0.49774800  1
  O  O71  1  0.25134600  0.27383100  0.00225200  1
