# generated using pymatgen
data_W(CO)6
_symmetry_space_group_name_H-M   'P 1'
_cell_length_a   6.58040800
_cell_length_b   11.58306400
_cell_length_c   12.16580600
_cell_angle_alpha   90.00000000
_cell_angle_beta   90.00000000
_cell_angle_gamma   90.00000000
_symmetry_Int_Tables_number   1
_chemical_formula_structural   W(CO)6
_chemical_formula_sum   'W4 C24 O24'
_cell_volume   927.29339084
_cell_formula_units_Z   4
loop_
 _symmetry_equiv_pos_site_id
 _symmetry_equiv_pos_as_xyz
  1  'x, y, z'
loop_
 _atom_site_type_symbol
 _atom_site_label
 _atom_site_symmetry_multiplicity
 _atom_site_fract_x
 _atom_site_fract_y
 _atom_site_fract_z
 _atom_site_occupancy
  W  W0  1  0.93758900  0.75000000  0.12729200  1
  W  W1  1  0.06241100  0.25000000  0.87270800  1
  W  W2  1  0.56241100  0.75000000  0.62729200  1
  W  W3  1  0.43758900  0.25000000  0.37270800  1
  C  C4  1  0.93798500  0.37803200  0.77259200  1
  C  C5  1  0.68525800  0.62324700  0.52541300  1
  C  C6  1  0.56201500  0.12196800  0.27259200  1
  C  C7  1  0.67415000  0.75000000  0.22222800  1
  C  C8  1  0.32585000  0.25000000  0.77777200  1
  C  C9  1  0.31474200  0.37675300  0.47458700  1
  C  C10  1  0.70136200  0.25000000  0.46731200  1
  C  C11  1  0.79863800  0.25000000  0.96731200  1
  C  C12  1  0.20136200  0.75000000  0.03268800  1
  C  C13  1  0.17415000  0.25000000  0.27777200  1
  C  C14  1  0.18525800  0.37675300  0.97458700  1
  C  C15  1  0.93798500  0.12196800  0.77259200  1
  C  C16  1  0.06201500  0.87803200  0.22740800  1
  C  C17  1  0.81474200  0.62324700  0.02541300  1
  C  C18  1  0.43798500  0.62196800  0.72740800  1
  C  C19  1  0.06201500  0.62196800  0.22740800  1
  C  C20  1  0.29863800  0.75000000  0.53268800  1
  C  C21  1  0.81474200  0.87675300  0.02541300  1
  C  C22  1  0.56201500  0.37803200  0.27259200  1
  C  C23  1  0.82585000  0.75000000  0.72222800  1
  C  C24  1  0.31474200  0.12324700  0.47458700  1
  C  C25  1  0.18525800  0.12324700  0.97458700  1
  C  C26  1  0.68525800  0.87675300  0.52541300  1
  C  C27  1  0.43798500  0.87803200  0.72740800  1
  O  O28  1  0.75261700  0.94681300  0.46782400  1
  O  O29  1  0.84928600  0.25000000  0.51931900  1
  O  O30  1  0.24738300  0.05318700  0.53217600  1
  O  O31  1  0.25261700  0.44681300  0.03217600  1
  O  O32  1  0.15071400  0.75000000  0.48068100  1
  O  O33  1  0.34928600  0.75000000  0.98068100  1
  O  O34  1  0.75261700  0.55318700  0.46782400  1
  O  O35  1  0.52654100  0.75000000  0.27461600  1
  O  O36  1  0.74738300  0.55318700  0.96782400  1
  O  O37  1  0.47345900  0.25000000  0.72538400  1
  O  O38  1  0.36938000  0.94993500  0.78239400  1
  O  O39  1  0.86938000  0.05006500  0.71760600  1
  O  O40  1  0.63062000  0.05006500  0.21760600  1
  O  O41  1  0.86938000  0.44993500  0.71760600  1
  O  O42  1  0.74738300  0.94681300  0.96782400  1
  O  O43  1  0.24738300  0.44681300  0.53217600  1
  O  O44  1  0.13062000  0.55006500  0.28239400  1
  O  O45  1  0.13062000  0.94993500  0.28239400  1
  O  O46  1  0.65071400  0.25000000  0.01931900  1
  O  O47  1  0.63062000  0.44993500  0.21760600  1
  O  O48  1  0.25261700  0.05318700  0.03217600  1
  O  O49  1  0.97345900  0.75000000  0.77461600  1
  O  O50  1  0.36938000  0.55006500  0.78239400  1
  O  O51  1  0.02654100  0.25000000  0.22538400  1
