# generated using pymatgen
data_K3(Fe11O17)2
_symmetry_space_group_name_H-M   'P 1'
_cell_length_a   6.05914740
_cell_length_b   6.07034923
_cell_length_c   24.13781091
_cell_angle_alpha   89.84536352
_cell_angle_beta   89.85135159
_cell_angle_gamma   120.01547941
_symmetry_Int_Tables_number   1
_chemical_formula_structural   K3(Fe11O17)2
_chemical_formula_sum   'K3 Fe22 O34'
_cell_volume   768.74066676
_cell_formula_units_Z   1
loop_
 _symmetry_equiv_pos_site_id
 _symmetry_equiv_pos_as_xyz
  1  'x, y, z'
loop_
 _atom_site_type_symbol
 _atom_site_label
 _atom_site_symmetry_multiplicity
 _atom_site_fract_x
 _atom_site_fract_y
 _atom_site_fract_z
 _atom_site_occupancy
  K  K0  1  0.35826800  0.67940000  0.75464700  1
  K  K1  1  0.63776500  0.39724000  0.24501600  1
  K  K2  1  0.92972500  0.08508600  0.24729900  1
  Fe  Fe3  1  0.16826900  0.83165000  0.89483500  1
  Fe  Fe4  1  0.16874100  0.83295800  0.60543300  1
  Fe  Fe5  1  0.33074600  0.67093600  0.17110500  1
  Fe  Fe6  1  0.33798100  0.66939800  0.02426400  1
  Fe  Fe7  1  0.33222500  0.67002500  0.32587800  1
  Fe  Fe8  1  0.16831700  0.33653300  0.89476900  1
  Fe  Fe9  1  0.16854300  0.33614700  0.60543200  1
  Fe  Fe10  1  0.33314500  0.66624200  0.47388300  1
  Fe  Fe11  1  0.00147300  0.00066900  0.00235400  1
  Fe  Fe12  1  0.00087900  0.00045700  0.49977200  1
  Fe  Fe13  1  0.66530100  0.83301600  0.60516300  1
  Fe  Fe14  1  0.66408800  0.83197000  0.89544100  1
  Fe  Fe15  1  0.33034600  0.16623400  0.10537100  1
  Fe  Fe16  1  0.33539700  0.16819600  0.39396400  1
  Fe  Fe17  1  0.66667000  0.33336800  0.67471300  1
  Fe  Fe18  1  0.83540000  0.67020400  0.10537500  1
  Fe  Fe19  1  0.66794500  0.33433000  0.82667300  1
  Fe  Fe20  1  0.66727600  0.33349300  0.97555700  1
  Fe  Fe21  1  0.83216300  0.66506400  0.39426400  1
  Fe  Fe22  1  0.66797800  0.33401500  0.52582600  1
  Fe  Fe23  1  0.83175400  0.16844800  0.39456100  1
  Fe  Fe24  1  0.83544300  0.16707900  0.10502900  1
  O  O25  1  0.15693500  0.84335300  0.44724300  1
  O  O26  1  0.15317500  0.84952900  0.05525500  1
  O  O27  1  0.00989100  0.50496000  0.64448000  1
  O  O28  1  0.01137700  0.50615700  0.85230900  1
  O  O29  1  0.35111100  0.64487500  0.25036100  1
  O  O30  1  0.15566000  0.31317100  0.44760600  1
  O  O31  1  0.99981900  0.99917300  0.14815400  1
  O  O32  1  0.99996700  0.00104900  0.35529300  1
  O  O33  1  0.00094400  0.00079800  0.85903100  1
  O  O34  1  0.00011400  0.99992000  0.64091300  1
  O  O35  1  0.33404400  0.66717800  0.55324300  1
  O  O36  1  0.33038500  0.66436600  0.94098300  1
  O  O37  1  0.15068600  0.30218000  0.05439000  1
  O  O38  1  0.49698500  0.99093100  0.85288300  1
  O  O39  1  0.49637200  0.99147500  0.64436000  1
  O  O40  1  0.31355000  0.15673400  0.54873100  1
  O  O41  1  0.31535000  0.15766900  0.95085100  1
  O  O42  1  0.49600400  0.50527900  0.64438100  1
  O  O43  1  0.49725900  0.50674000  0.85283800  1
  O  O44  1  0.50491200  0.49710100  0.35357700  1
  O  O45  1  0.50281300  0.49644300  0.14804000  1
  O  O46  1  0.68744000  0.84475600  0.44778600  1
  O  O47  1  0.69802500  0.85073900  0.05525800  1
  O  O48  1  0.50874600  0.01680000  0.35109000  1
  O  O49  1  0.66681000  0.33316700  0.44425500  1
  O  O50  1  0.65955400  0.33018900  0.74923400  1
  O  O51  1  0.66752000  0.33355200  0.05673200  1
  O  O52  1  0.51001600  0.02030100  0.15160000  1
  O  O53  1  0.84295900  0.68625100  0.95114800  1
  O  O54  1  0.84459100  0.68746300  0.54874000  1
  O  O55  1  0.98071400  0.49010900  0.15176000  1
  O  O56  1  0.98380600  0.49256900  0.35106000  1
  O  O57  1  0.84468700  0.15691900  0.54884400  1
  O  O58  1  0.84271400  0.15675200  0.95094200  1
