# generated using pymatgen
data_Sb(OF3)2
_symmetry_space_group_name_H-M   'P 1'
_cell_length_a   8.79236621
_cell_length_b   8.79236621
_cell_length_c   8.79236621
_cell_angle_alpha   109.47122063
_cell_angle_beta   109.47122063
_cell_angle_gamma   109.47122063
_symmetry_Int_Tables_number   1
_chemical_formula_structural   Sb(OF3)2
_chemical_formula_sum   'Sb4 O8 F24'
_cell_volume   523.23334757
_cell_formula_units_Z   4
loop_
 _symmetry_equiv_pos_site_id
 _symmetry_equiv_pos_as_xyz
  1  'x, y, z'
loop_
 _atom_site_type_symbol
 _atom_site_label
 _atom_site_symmetry_multiplicity
 _atom_site_fract_x
 _atom_site_fract_y
 _atom_site_fract_z
 _atom_site_occupancy
  Sb  Sb0  1  0.00000000  0.00000000  0.00000000  1
  Sb  Sb1  1  0.50000000  0.50000000  0.00000000  1
  Sb  Sb2  1  0.00000000  0.50000000  0.50000000  1
  Sb  Sb3  1  0.50000000  0.00000000  0.50000000  1
  O  O4  1  0.61915500  0.61915500  0.61915500  1
  O  O5  1  0.88084500  0.50000000  0.00000000  1
  O  O6  1  0.00000000  0.88084500  0.50000000  1
  O  O7  1  0.50000000  0.00000000  0.88084500  1
  O  O8  1  0.38084500  0.38084500  0.38084500  1
  O  O9  1  0.11915500  0.50000000  0.00000000  1
  O  O10  1  0.00000000  0.11915500  0.50000000  1
  O  O11  1  0.50000000  0.00000000  0.11915500  1
  F  F12  1  0.07735500  0.05055700  0.25215900  1
  F  F13  1  0.44944300  0.52679700  0.20160100  1
  F  F14  1  0.97320300  0.42264500  0.67480400  1
  F  F15  1  0.82519600  0.24784100  0.29839900  1
  F  F16  1  0.52679700  0.20160100  0.44944300  1
  F  F17  1  0.67480400  0.97320300  0.42264500  1
  F  F18  1  0.24784100  0.29839900  0.82519600  1
  F  F19  1  0.25215900  0.07735500  0.05055700  1
  F  F20  1  0.05055700  0.25215900  0.07735500  1
  F  F21  1  0.20160100  0.44944300  0.52679700  1
  F  F22  1  0.42264500  0.67480400  0.97320300  1
  F  F23  1  0.29839900  0.82519600  0.24784100  1
  F  F24  1  0.92264500  0.94944300  0.74784100  1
  F  F25  1  0.55055700  0.47320300  0.79839900  1
  F  F26  1  0.02679700  0.57735500  0.32519600  1
  F  F27  1  0.17480400  0.75215900  0.70160100  1
  F  F28  1  0.47320300  0.79839900  0.55055700  1
  F  F29  1  0.32519600  0.02679700  0.57735500  1
  F  F30  1  0.75215900  0.70160100  0.17480400  1
  F  F31  1  0.74784100  0.92264500  0.94944300  1
  F  F32  1  0.94944300  0.74784100  0.92264500  1
  F  F33  1  0.79839900  0.55055700  0.47320300  1
  F  F34  1  0.57735500  0.32519600  0.02679700  1
  F  F35  1  0.70160100  0.17480400  0.75215900  1
