# generated using pymatgen
data_BiAuBr6
_symmetry_space_group_name_H-M   'P 1'
_cell_length_a   8.15775100
_cell_length_b   10.67193303
_cell_length_c   15.15421577
_cell_angle_alpha   103.97052656
_cell_angle_beta   95.69274306
_cell_angle_gamma   112.01361129
_symmetry_Int_Tables_number   1
_chemical_formula_structural   BiAuBr6
_chemical_formula_sum   'Bi4 Au4 Br24'
_cell_volume   1160.26441190
_cell_formula_units_Z   4
loop_
 _symmetry_equiv_pos_site_id
 _symmetry_equiv_pos_as_xyz
  1  'x, y, z'
loop_
 _atom_site_type_symbol
 _atom_site_label
 _atom_site_symmetry_multiplicity
 _atom_site_fract_x
 _atom_site_fract_y
 _atom_site_fract_z
 _atom_site_occupancy
  Bi  Bi0  1  0.60050900  0.92944400  0.61960200  1
  Bi  Bi1  1  0.39949100  0.07055600  0.38039800  1
  Bi  Bi2  1  0.97239500  0.31413700  0.87253800  1
  Bi  Bi3  1  0.02760500  0.68586300  0.12746200  1
  Au  Au4  1  0.29528000  0.62929000  0.76453800  1
  Au  Au5  1  0.70472000  0.37071000  0.23546200  1
  Au  Au6  1  0.50000000  0.50000000  0.50000000  1
  Au  Au7  1  0.00000000  0.00000000  0.00000000  1
  Br  Br8  1  0.61256400  0.72867700  0.74863600  1
  Br  Br9  1  0.38743600  0.27132300  0.25136400  1
  Br  Br10  1  0.26601200  0.84024000  0.73952800  1
  Br  Br11  1  0.73398800  0.15976000  0.26047200  1
  Br  Br12  1  0.97550000  0.53168300  0.77921200  1
  Br  Br13  1  0.02450000  0.46831700  0.22078800  1
  Br  Br14  1  0.32137100  0.41462700  0.78753400  1
  Br  Br15  1  0.67862900  0.58537300  0.21246600  1
  Br  Br16  1  0.69430700  0.37029400  0.50624200  1
  Br  Br17  1  0.30569300  0.62970600  0.49375800  1
  Br  Br18  1  0.76830800  0.72288900  0.52262500  1
  Br  Br19  1  0.23169200  0.27711100  0.47737500  1
  Br  Br20  1  0.78027800  0.10158400  0.97033700  1
  Br  Br21  1  0.21972200  0.89841600  0.02966300  1
  Br  Br22  1  0.76307700  0.80140700  0.03372800  1
  Br  Br23  1  0.23692300  0.19859300  0.96627200  1
  Br  Br24  1  0.61344300  0.18625300  0.74431600  1
  Br  Br25  1  0.38655700  0.81374700  0.25568400  1
  Br  Br26  1  0.96159600  0.05306600  0.72295600  1
  Br  Br27  1  0.03840400  0.94693400  0.27704400  1
  Br  Br28  1  0.73542200  0.04857600  0.48272700  1
  Br  Br29  1  0.26457800  0.95142400  0.51727300  1
  Br  Br30  1  0.75565700  0.43517100  0.97434200  1
  Br  Br31  1  0.24434300  0.56482900  0.02565800  1
