# generated using pymatgen
data_Rb3Sc(HO)6
_symmetry_space_group_name_H-M   'P 1'
_cell_length_a   7.73074656
_cell_length_b   7.73074656
_cell_length_c   7.73074670
_cell_angle_alpha   96.79766402
_cell_angle_beta   96.79766402
_cell_angle_gamma   96.79766662
_symmetry_Int_Tables_number   1
_chemical_formula_structural   Rb3Sc(HO)6
_chemical_formula_sum   'Rb6 Sc2 H12 O12'
_cell_volume   451.42670812
_cell_formula_units_Z   2
loop_
 _symmetry_equiv_pos_site_id
 _symmetry_equiv_pos_as_xyz
  1  'x, y, z'
loop_
 _atom_site_type_symbol
 _atom_site_label
 _atom_site_symmetry_multiplicity
 _atom_site_fract_x
 _atom_site_fract_y
 _atom_site_fract_z
 _atom_site_occupancy
  Rb  Rb0  1  0.86715600  0.63284400  0.25000000  1
  Rb  Rb1  1  0.63284400  0.25000000  0.86715600  1
  Rb  Rb2  1  0.25000000  0.86715600  0.63284400  1
  Rb  Rb3  1  0.13284400  0.36715600  0.75000000  1
  Rb  Rb4  1  0.36715600  0.75000000  0.13284400  1
  Rb  Rb5  1  0.75000000  0.13284400  0.36715600  1
  Sc  Sc6  1  0.00000000  0.00000000  0.00000000  1
  Sc  Sc7  1  0.50000000  0.50000000  0.50000000  1
  H  H8  1  0.42402000  0.37662100  0.16184100  1
  H  H9  1  0.37662100  0.16184100  0.42402000  1
  H  H10  1  0.16184100  0.42402000  0.37662100  1
  H  H11  1  0.12337900  0.07598000  0.33815900  1
  H  H12  1  0.07598000  0.33815900  0.12337900  1
  H  H13  1  0.33815900  0.12337900  0.07598000  1
  H  H14  1  0.57598000  0.62337900  0.83815900  1
  H  H15  1  0.62337900  0.83815900  0.57598000  1
  H  H16  1  0.83815900  0.57598000  0.62337900  1
  H  H17  1  0.87662100  0.92402000  0.66184100  1
  H  H18  1  0.92402000  0.66184100  0.87662100  1
  H  H19  1  0.66184100  0.87662100  0.92402000  1
  O  O20  1  0.53781700  0.40953000  0.23386300  1
  O  O21  1  0.40953000  0.23386300  0.53781700  1
  O  O22  1  0.23386300  0.53781700  0.40953000  1
  O  O23  1  0.09047000  0.96218300  0.26613700  1
  O  O24  1  0.96218300  0.26613700  0.09047000  1
  O  O25  1  0.26613700  0.09047000  0.96218300  1
  O  O26  1  0.46218300  0.59047000  0.76613700  1
  O  O27  1  0.59047000  0.76613700  0.46218300  1
  O  O28  1  0.76613700  0.46218300  0.59047000  1
  O  O29  1  0.90953000  0.03781700  0.73386300  1
  O  O30  1  0.03781700  0.73386300  0.90953000  1
  O  O31  1  0.73386300  0.90953000  0.03781700  1
