# generated using pymatgen
data_FePH4NO4F
_symmetry_space_group_name_H-M   'P 1'
_cell_length_a   6.51480900
_cell_length_b   10.82108900
_cell_length_c   13.13696700
_cell_angle_alpha   90.00000000
_cell_angle_beta   90.00000000
_cell_angle_gamma   90.00000000
_symmetry_Int_Tables_number   1
_chemical_formula_structural   FePH4NO4F
_chemical_formula_sum   'Fe8 P8 H32 N8 O32 F8'
_cell_volume   926.12107162
_cell_formula_units_Z   8
loop_
 _symmetry_equiv_pos_site_id
 _symmetry_equiv_pos_as_xyz
  1  'x, y, z'
loop_
 _atom_site_type_symbol
 _atom_site_label
 _atom_site_symmetry_multiplicity
 _atom_site_fract_x
 _atom_site_fract_y
 _atom_site_fract_z
 _atom_site_occupancy
  Fe  Fe0  1  0.48822900  0.00241700  0.38655000  1
  Fe  Fe1  1  0.51177100  0.50241700  0.61345000  1
  Fe  Fe2  1  0.01177100  0.00241700  0.88655000  1
  Fe  Fe3  1  0.98822900  0.50241700  0.11345000  1
  Fe  Fe4  1  0.25211500  0.25429600  0.24933000  1
  Fe  Fe5  1  0.74788500  0.75429600  0.75067000  1
  Fe  Fe6  1  0.24788500  0.25429600  0.74933000  1
  Fe  Fe7  1  0.75211500  0.75429600  0.25067000  1
  P  P8  1  0.33061200  0.25014900  0.50337700  1
  P  P9  1  0.66938800  0.75014900  0.49662300  1
  P  P10  1  0.16938800  0.25014900  0.00337700  1
  P  P11  1  0.83061200  0.75014900  0.99662300  1
  P  P12  1  0.49887300  0.50654100  0.18426400  1
  P  P13  1  0.50112700  0.00654100  0.81573600  1
  P  P14  1  0.00112700  0.50654100  0.68426400  1
  P  P15  1  0.99887300  0.00654100  0.31573600  1
  H  H16  1  0.93923000  0.31642000  0.40000400  1
  H  H17  1  0.06077000  0.81642000  0.59999600  1
  H  H18  1  0.56077000  0.31642000  0.90000400  1
  H  H19  1  0.43923000  0.81642000  0.09999600  1
  H  H20  1  0.76123000  0.20983300  0.38288200  1
  H  H21  1  0.23877000  0.70983300  0.61711800  1
  H  H22  1  0.73877000  0.20983300  0.88288200  1
  H  H23  1  0.26123000  0.70983300  0.11711800  1
  H  H24  1  0.72878900  0.34569200  0.32417500  1
  H  H25  1  0.27121100  0.84569200  0.67582500  1
  H  H26  1  0.77121100  0.34569200  0.82417500  1
  H  H27  1  0.22878900  0.84569200  0.17582500  1
  H  H28  1  0.69413500  0.33703000  0.45004200  1
  H  H29  1  0.30586500  0.83703000  0.54995800  1
  H  H30  1  0.80586500  0.33703000  0.95004200  1
  H  H31  1  0.19413500  0.83703000  0.04995800  1
  H  H32  1  0.64334300  0.99145600  0.14161300  1
  H  H33  1  0.35665700  0.49145600  0.85838700  1
  H  H34  1  0.85665700  0.99145600  0.64161300  1
  H  H35  1  0.14334300  0.49145600  0.35838700  1
  H  H36  1  0.54427200  0.12983600  0.10738800  1
  H  H37  1  0.45572800  0.62983600  0.89261200  1
  H  H38  1  0.95572800  0.12983600  0.60738800  1
  H  H39  1  0.04427200  0.62983600  0.39261200  1
  H  H40  1  0.66607800  0.04249800  0.01888000  1
  H  H41  1  0.33392200  0.54249800  0.98112000  1
  H  H42  1  0.83392200  0.04249800  0.51888000  1
  H  H43  1  0.16607800  0.54249800  0.48112000  1
  H  H44  1  0.80361600  0.10609700  0.11383600  1
  H  H45  1  0.19638400  0.60609700  0.88616400  1
  H  H46  1  0.69638400  0.10609700  0.61383600  1
  H  H47  1  0.30361600  0.60609700  0.38616400  1
  N  N48  1  0.78259500  0.30440800  0.38954200  1
  N  N49  1  0.21740500  0.80440800  0.61045800  1
  N  N50  1  0.71740500  0.30440800  0.88954200  1
  N  N51  1  0.28259500  0.80440800  0.11045800  1
  N  N52  1  0.66339900  0.06752100  0.09583900  1
  N  N53  1  0.33660100  0.56752100  0.90416100  1
  N  N54  1  0.83660100  0.06752100  0.59583900  1
  N  N55  1  0.16339900  0.56752100  0.40416100  1
  O  O56  1  0.47036200  0.13546100  0.48915100  1
  O  O57  1  0.52963800  0.63546100  0.51084900  1
  O  O58  1  0.02963800  0.13546100  0.98915100  1
  O  O59  1  0.97036200  0.63546100  0.01084900  1
  O  O60  1  0.47488700  0.36332100  0.52076400  1
  O  O61  1  0.52511300  0.86332100  0.47923600  1
  O  O62  1  0.02511300  0.36332100  0.02076400  1
  O  O63  1  0.97488700  0.86332100  0.97923600  1
  O  O64  1  0.20235200  0.27396400  0.40568600  1
  O  O65  1  0.79764800  0.77396400  0.59431400  1
  O  O66  1  0.29764800  0.27396400  0.90568600  1
  O  O67  1  0.70235200  0.77396400  0.09431400  1
  O  O68  1  0.18928100  0.23369000  0.59737000  1
  O  O69  1  0.81071900  0.73369000  0.40263000  1
  O  O70  1  0.31071900  0.23369000  0.09737000  1
  O  O71  1  0.68928100  0.73369000  0.90263000  1
  O  O72  1  0.30755300  0.53397700  0.11543800  1
  O  O73  1  0.69244700  0.03397700  0.88456200  1
  O  O74  1  0.19244700  0.53397700  0.61543800  1
  O  O75  1  0.80755300  0.03397700  0.38456200  1
  O  O76  1  0.68689300  0.47872900  0.11604100  1
  O  O77  1  0.31310700  0.97872900  0.88395900  1
  O  O78  1  0.81310700  0.47872900  0.61604100  1
  O  O79  1  0.18689300  0.97872900  0.38395900  1
  O  O80  1  0.54060700  0.62103500  0.25317100  1
  O  O81  1  0.45939300  0.12103500  0.74682900  1
  O  O82  1  0.95939300  0.62103500  0.75317100  1
  O  O83  1  0.04060700  0.12103500  0.24682900  1
  O  O84  1  0.45432400  0.39432500  0.25469700  1
  O  O85  1  0.54567600  0.89432500  0.74530300  1
  O  O86  1  0.04567600  0.39432500  0.75469700  1
  O  O87  1  0.95432400  0.89432500  0.24530300  1
  F  F88  1  0.47380800  0.13382700  0.27675900  1
  F  F89  1  0.52619200  0.63382700  0.72324100  1
  F  F90  1  0.02619200  0.13382700  0.77675900  1
  F  F91  1  0.97380800  0.63382700  0.22324100  1
  F  F92  1  0.03495700  0.38487700  0.23246000  1
  F  F93  1  0.96504300  0.88487700  0.76754000  1
  F  F94  1  0.46504300  0.38487700  0.73246000  1
  F  F95  1  0.53495700  0.88487700  0.26754000  1
