# generated using pymatgen
data_Ce4Si2Se3O7
_symmetry_space_group_name_H-M   'P 1'
_cell_length_a   11.31337111
_cell_length_b   11.31337111
_cell_length_c   11.31337111
_cell_angle_alpha   114.52281998
_cell_angle_beta   114.52281998
_cell_angle_gamma   99.78134993
_symmetry_Int_Tables_number   1
_chemical_formula_structural   Ce4Si2Se3O7
_chemical_formula_sum   'Ce16 Si8 Se12 O28'
_cell_volume   1091.37453173
_cell_formula_units_Z   4
loop_
 _symmetry_equiv_pos_site_id
 _symmetry_equiv_pos_as_xyz
  1  'x, y, z'
loop_
 _atom_site_type_symbol
 _atom_site_label
 _atom_site_symmetry_multiplicity
 _atom_site_fract_x
 _atom_site_fract_y
 _atom_site_fract_z
 _atom_site_occupancy
  Ce  Ce0  1  0.72090200  0.95967600  0.76122600  1
  Ce  Ce1  1  0.70967600  0.44845000  0.73877400  1
  Ce  Ce2  1  0.70967600  0.97090200  0.26122600  1
  Ce  Ce3  1  0.55155000  0.29032400  0.26122600  1
  Ce  Ce4  1  0.02909800  0.29032400  0.73877400  1
  Ce  Ce5  1  0.19845000  0.95967600  0.23877400  1
  Ce  Ce6  1  0.04032400  0.27909800  0.23877400  1
  Ce  Ce7  1  0.04032400  0.80155000  0.76122600  1
  Ce  Ce8  1  0.67249600  0.67249600  0.34499300  1
  Ce  Ce9  1  0.42249600  0.57750400  0.50000000  1
  Ce  Ce10  1  0.07750400  0.92249600  0.50000000  1
  Ce  Ce11  1  0.32750400  0.32750400  0.65500700  1
  Ce  Ce12  1  0.07750400  0.57750400  0.15500700  1
  Ce  Ce13  1  0.32750400  0.67249600  0.00000000  1
  Ce  Ce14  1  0.67249600  0.32750400  0.00000000  1
  Ce  Ce15  1  0.42249600  0.92249600  0.84499300  1
  Si  Si16  1  0.84187500  0.71826400  0.12361100  1
  Si  Si17  1  0.46826400  0.84465400  0.37638900  1
  Si  Si18  1  0.46826400  0.09187500  0.62361100  1
  Si  Si19  1  0.15534600  0.53173600  0.62361100  1
  Si  Si20  1  0.90812500  0.53173600  0.37638900  1
  Si  Si21  1  0.59465400  0.71826400  0.87638900  1
  Si  Si22  1  0.28173600  0.15812500  0.87638900  1
  Si  Si23  1  0.28173600  0.40534600  0.12361100  1
  Se  Se24  1  0.37500000  0.97835500  0.10335500  1
  Se  Se25  1  0.72835500  0.12500000  0.10335500  1
  Se  Se26  1  0.02164500  0.62500000  0.89664500  1
  Se  Se27  1  0.87500000  0.27164500  0.89664500  1
  Se  Se28  1  0.37500000  0.27164500  0.39664500  1
  Se  Se29  1  0.02164500  0.12500000  0.39664500  1
  Se  Se30  1  0.72835500  0.62500000  0.60335500  1
  Se  Se31  1  0.87500000  0.97835500  0.60335500  1
  Se  Se32  1  0.00000000  0.00000000  0.00000000  1
  Se  Se33  1  0.75000000  0.25000000  0.50000000  1
  Se  Se34  1  0.25000000  0.75000000  0.50000000  1
  Se  Se35  1  0.50000000  0.50000000  0.00000000  1
  O  O36  1  0.52520300  0.78291700  0.97729200  1
  O  O37  1  0.53291700  0.05562600  0.75771400  1
  O  O38  1  0.29791200  0.77520300  0.24228600  1
  O  O39  1  0.94437400  0.46708300  0.24228600  1
  O  O40  1  0.22479700  0.70208800  0.75771400  1
  O  O41  1  0.80562600  0.54791200  0.02270800  1
  O  O42  1  0.21708300  0.47479700  0.02270800  1
  O  O43  1  0.45208800  0.19437400  0.97729200  1
  O  O44  1  0.22479700  0.46708300  0.52270800  1
  O  O45  1  0.21708300  0.19437400  0.74228600  1
  O  O46  1  0.45208800  0.47479700  0.25771400  1
  O  O47  1  0.80562600  0.78291700  0.25771400  1
  O  O48  1  0.52520300  0.54791200  0.74228600  1
  O  O49  1  0.94437400  0.70208800  0.47729200  1
  O  O50  1  0.53291700  0.77520300  0.47729200  1
  O  O51  1  0.29791200  0.05562600  0.52270800  1
  O  O52  1  0.57001300  0.79465600  0.77535700  1
  O  O53  1  0.54465600  0.26929900  0.72464300  1
  O  O54  1  0.54465600  0.82001300  0.27535700  1
  O  O55  1  0.73070100  0.45534400  0.27535700  1
  O  O56  1  0.17998700  0.45534400  0.72464300  1
  O  O57  1  0.01929900  0.79465600  0.22464300  1
  O  O58  1  0.20534400  0.42998700  0.22464300  1
  O  O59  1  0.20534400  0.98070100  0.77535700  1
  O  O60  1  0.23539300  0.23539300  0.00000000  1
  O  O61  1  0.98539300  0.48539300  0.50000000  1
  O  O62  1  0.51460700  0.01460700  0.50000000  1
  O  O63  1  0.76460700  0.76460700  0.00000000  1
