# generated using pymatgen
data_Cs3Cr2I9
_symmetry_space_group_name_H-M   'P 1'
_cell_length_a   10.92122186
_cell_length_b   10.92122186
_cell_length_c   10.92122166
_cell_angle_alpha   80.55468193
_cell_angle_beta   80.55468193
_cell_angle_gamma   80.55468045
_symmetry_Int_Tables_number   1
_chemical_formula_structural   Cs3Cr2I9
_chemical_formula_sum   'Cs6 Cr4 I18'
_cell_volume   1254.86943341
_cell_formula_units_Z   2
loop_
 _symmetry_equiv_pos_site_id
 _symmetry_equiv_pos_as_xyz
  1  'x, y, z'
loop_
 _atom_site_type_symbol
 _atom_site_label
 _atom_site_symmetry_multiplicity
 _atom_site_fract_x
 _atom_site_fract_y
 _atom_site_fract_z
 _atom_site_occupancy
  Cs  Cs0  1  0.58405800  0.91594200  0.25000000  1
  Cs  Cs1  1  0.91594200  0.25000000  0.58405800  1
  Cs  Cs2  1  0.25000000  0.58405800  0.91594200  1
  Cs  Cs3  1  0.41594200  0.08405800  0.75000000  1
  Cs  Cs4  1  0.08405800  0.75000000  0.41594200  1
  Cs  Cs5  1  0.75000000  0.41594200  0.08405800  1
  Cr  Cr6  1  0.83334900  0.83334900  0.83334900  1
  Cr  Cr7  1  0.66665100  0.66665100  0.66665100  1
  Cr  Cr8  1  0.16665100  0.16665100  0.16665100  1
  Cr  Cr9  1  0.33334900  0.33334900  0.33334900  1
  I  I10  1  0.09801500  0.40198500  0.25000000  1
  I  I11  1  0.40198500  0.25000000  0.09801500  1
  I  I12  1  0.25000000  0.09801500  0.40198500  1
  I  I13  1  0.90198500  0.59801500  0.75000000  1
  I  I14  1  0.59801500  0.75000000  0.90198500  1
  I  I15  1  0.75000000  0.90198500  0.59801500  1
  I  I16  1  0.26060900  0.93744800  0.10243200  1
  I  I17  1  0.93744800  0.10243200  0.26060900  1
  I  I18  1  0.10243200  0.26060900  0.93744800  1
  I  I19  1  0.56255200  0.23939100  0.39756800  1
  I  I20  1  0.23939100  0.39756800  0.56255200  1
  I  I21  1  0.39756800  0.56255200  0.23939100  1
  I  I22  1  0.73939100  0.06255200  0.89756800  1
  I  I23  1  0.06255200  0.89756800  0.73939100  1
  I  I24  1  0.89756800  0.73939100  0.06255200  1
  I  I25  1  0.43744800  0.76060900  0.60243200  1
  I  I26  1  0.76060900  0.60243200  0.43744800  1
  I  I27  1  0.60243200  0.43744800  0.76060900  1
