# generated using pymatgen
data_Si2Ag6O7
_symmetry_space_group_name_H-M   'P 1'
_cell_length_a   9.85129300
_cell_length_b   5.44173100
_cell_length_c   16.24155879
_cell_angle_alpha   89.33383026
_cell_angle_beta   90.00000000
_cell_angle_gamma   90.00000000
_symmetry_Int_Tables_number   1
_chemical_formula_structural   Si2Ag6O7
_chemical_formula_sum   'Si8 Ag24 O28'
_cell_volume   870.62003822
_cell_formula_units_Z   4
loop_
 _symmetry_equiv_pos_site_id
 _symmetry_equiv_pos_as_xyz
  1  'x, y, z'
loop_
 _atom_site_type_symbol
 _atom_site_label
 _atom_site_symmetry_multiplicity
 _atom_site_fract_x
 _atom_site_fract_y
 _atom_site_fract_z
 _atom_site_occupancy
  Si  Si0  1  0.45288900  0.25219900  0.93730300  1
  Si  Si1  1  0.95288900  0.74780100  0.06269700  1
  Si  Si2  1  0.73851600  0.72236700  0.19652900  1
  Si  Si3  1  0.23851600  0.27763300  0.80347100  1
  Si  Si4  1  0.43736300  0.24801900  0.46053100  1
  Si  Si5  1  0.93736300  0.75198100  0.53946900  1
  Si  Si6  1  0.74605200  0.75318100  0.69298800  1
  Si  Si7  1  0.24605200  0.24681900  0.30701200  1
  Ag  Ag8  1  0.70610900  0.28632600  0.81381900  1
  Ag  Ag9  1  0.20610900  0.71367400  0.18618100  1
  Ag  Ag10  1  0.69720700  0.28080500  0.33286500  1
  Ag  Ag11  1  0.19720700  0.71919500  0.66713500  1
  Ag  Ag12  1  0.96343100  0.26143800  0.70859100  1
  Ag  Ag13  1  0.46343100  0.73856200  0.29140900  1
  Ag  Ag14  1  0.98317800  0.26784600  0.19751300  1
  Ag  Ag15  1  0.48317800  0.73215400  0.80248700  1
  Ag  Ag16  1  0.18852600  0.28127500  0.07639300  1
  Ag  Ag17  1  0.68852600  0.71872500  0.92360700  1
  Ag  Ag18  1  0.25666400  0.71252000  0.97960800  1
  Ag  Ag19  1  0.75666400  0.28748000  0.02039200  1
  Ag  Ag20  1  0.72052900  0.28290800  0.54628300  1
  Ag  Ag21  1  0.22052900  0.71709200  0.45371700  1
  Ag  Ag22  1  0.50232500  0.27192700  0.67207000  1
  Ag  Ag23  1  0.00232500  0.72807300  0.32793000  1
  Ag  Ag24  1  0.48378500  0.32892800  0.17559700  1
  Ag  Ag25  1  0.98378500  0.67107200  0.82440300  1
  Ag  Ag26  1  0.66745100  0.71126500  0.42777000  1
  Ag  Ag27  1  0.16745100  0.28873500  0.57223000  1
  Ag  Ag28  1  0.48577200  0.72235300  0.57186200  1
  Ag  Ag29  1  0.98577200  0.27764700  0.42813800  1
  Ag  Ag30  1  0.49920000  0.83805200  0.08016600  1
  Ag  Ag31  1  0.99920000  0.16194800  0.91983400  1
  O  O32  1  0.39208300  0.15077800  0.02554700  1
  O  O33  1  0.89208300  0.84922200  0.97445300  1
  O  O34  1  0.45371900  0.55538800  0.93138700  1
  O  O35  1  0.95371900  0.44461200  0.06861300  1
  O  O36  1  0.60927700  0.14502800  0.92612600  1
  O  O37  1  0.10927700  0.85497200  0.07387400  1
  O  O38  1  0.85854100  0.86360600  0.13923400  1
  O  O39  1  0.35854100  0.13639400  0.86076600  1
  O  O40  1  0.64796300  0.92710900  0.24483100  1
  O  O41  1  0.14796300  0.07289100  0.75516900  1
  O  O42  1  0.81988800  0.53471600  0.25982700  1
  O  O43  1  0.31988800  0.46528400  0.74017300  1
  O  O44  1  0.64409600  0.56585700  0.12955100  1
  O  O45  1  0.14409600  0.43414300  0.87044900  1
  O  O46  1  0.38054500  0.15339200  0.55032500  1
  O  O47  1  0.88054500  0.84660800  0.44967500  1
  O  O48  1  0.58954300  0.13292200  0.44295800  1
  O  O49  1  0.08954300  0.86707800  0.55704200  1
  O  O50  1  0.44284500  0.55300500  0.45170300  1
  O  O51  1  0.94284500  0.44699500  0.54829700  1
  O  O52  1  0.33263400  0.14160400  0.38829600  1
  O  O53  1  0.83263400  0.85839600  0.61170400  1
  O  O54  1  0.81006000  0.86790300  0.77721700  1
  O  O55  1  0.31006000  0.13209700  0.22278300  1
  O  O56  1  0.58758100  0.85267100  0.68274200  1
  O  O57  1  0.08758100  0.14732900  0.31725800  1
  O  O58  1  0.75302600  0.44690900  0.69059600  1
  O  O59  1  0.25302600  0.55309100  0.30940400  1
