# generated using pymatgen
data_FeO
_symmetry_space_group_name_H-M   'P 1'
_cell_length_a   3.15462894
_cell_length_b   5.35297087
_cell_length_c   5.34965468
_cell_angle_alpha   79.86820917
_cell_angle_beta   90.55375663
_cell_angle_gamma   73.68842863
_symmetry_Int_Tables_number   1
_chemical_formula_structural   FeO
_chemical_formula_sum   'Fe4 O4'
_cell_volume   85.18241988
_cell_formula_units_Z   4
loop_
 _symmetry_equiv_pos_site_id
 _symmetry_equiv_pos_as_xyz
  1  'x, y, z'
loop_
 _atom_site_type_symbol
 _atom_site_label
 _atom_site_symmetry_multiplicity
 _atom_site_fract_x
 _atom_site_fract_y
 _atom_site_fract_z
 _atom_site_occupancy
  Fe  Fe0  1  0.49578400  0.00099200  0.50062600  1
  Fe  Fe1  1  0.75123000  0.50037500  0.25075400  1
  Fe  Fe2  1  0.00268000  0.99870200  0.99984400  1
  Fe  Fe3  1  0.24961100  0.50022500  0.75089600  1
  O  O4  1  0.87226200  0.25192100  0.64360800  1
  O  O5  1  0.39003400  0.25058900  0.14308400  1
  O  O6  1  0.11162700  0.74949900  0.35591800  1
  O  O7  1  0.62677200  0.74769800  0.85527200  1
