# generated using pymatgen
data_Zn3As2(HO)16
_symmetry_space_group_name_H-M   'P 1'
_cell_length_a   8.74754261
_cell_length_b   8.74754261
_cell_length_c   4.96334995
_cell_angle_alpha   83.54755416
_cell_angle_beta   83.54755416
_cell_angle_gamma   98.62528678
_symmetry_Int_Tables_number   1
_chemical_formula_structural   Zn3As2(HO)16
_chemical_formula_sum   'Zn3 As2 H16 O16'
_cell_volume   369.87684720
_cell_formula_units_Z   1
loop_
 _symmetry_equiv_pos_site_id
 _symmetry_equiv_pos_as_xyz
  1  'x, y, z'
loop_
 _atom_site_type_symbol
 _atom_site_label
 _atom_site_symmetry_multiplicity
 _atom_site_fract_x
 _atom_site_fract_y
 _atom_site_fract_z
 _atom_site_occupancy
  Zn  Zn0  1  0.00000000  0.00000000  0.00000000  1
  Zn  Zn1  1  0.37823900  0.62176100  0.00000000  1
  Zn  Zn2  1  0.62176100  0.37823900  0.00000000  1
  As  As3  1  0.31379700  0.31379700  0.63260800  1
  As  As4  1  0.68620300  0.68620300  0.36739200  1
  H  H5  1  0.79553300  0.00596500  0.62409800  1
  H  H6  1  0.99403500  0.20446700  0.37590200  1
  H  H7  1  0.20446700  0.99403500  0.37590200  1
  H  H8  1  0.00596500  0.79553300  0.62409800  1
  H  H9  1  0.51716900  0.81495400  0.67383100  1
  H  H10  1  0.18504600  0.48283100  0.32616900  1
  H  H11  1  0.48283100  0.18504600  0.32616900  1
  H  H12  1  0.81495400  0.51716900  0.67383100  1
  H  H13  1  0.49899600  0.88689400  0.06997700  1
  H  H14  1  0.11310600  0.50100400  0.93002300  1
  H  H15  1  0.50100400  0.11310600  0.93002300  1
  H  H16  1  0.88689400  0.49899600  0.06997700  1
  H  H17  1  0.27578600  0.91573200  0.11043300  1
  H  H18  1  0.08426800  0.72421400  0.88956700  1
  H  H19  1  0.72421400  0.08426800  0.88956700  1
  H  H20  1  0.91573200  0.27578600  0.11043300  1
  O  O21  1  0.16471400  0.16471400  0.66646600  1
  O  O22  1  0.83528600  0.83528600  0.33353400  1
  O  O23  1  0.39063500  0.39063500  0.90398700  1
  O  O24  1  0.60936500  0.60936500  0.09601300  1
  O  O25  1  0.48443600  0.26521500  0.46333300  1
  O  O26  1  0.73478500  0.51556400  0.53666700  1
  O  O27  1  0.51556400  0.73478500  0.53666700  1
  O  O28  1  0.26521500  0.48443600  0.46333300  1
  O  O29  1  0.04763700  0.81830000  0.79289300  1
  O  O30  1  0.18170000  0.95236300  0.20710700  1
  O  O31  1  0.95236300  0.18170000  0.20710700  1
  O  O32  1  0.81830000  0.04763700  0.79289300  1
  O  O33  1  0.57736600  0.14588400  0.04948300  1
  O  O34  1  0.85411600  0.42263400  0.95051700  1
  O  O35  1  0.42263400  0.85411600  0.95051700  1
  O  O36  1  0.14588400  0.57736600  0.04948300  1
