# generated using pymatgen
data_Ga3NO3
_symmetry_space_group_name_H-M   'P 1'
_cell_length_a   6.39708500
_cell_length_b   8.09402500
_cell_length_c   8.16319889
_cell_angle_alpha   61.05276154
_cell_angle_beta   90.00000000
_cell_angle_gamma   90.00000000
_symmetry_Int_Tables_number   1
_chemical_formula_structural   Ga3NO3
_chemical_formula_sum   'Ga12 N4 O12'
_cell_volume   369.86883661
_cell_formula_units_Z   4
loop_
 _symmetry_equiv_pos_site_id
 _symmetry_equiv_pos_as_xyz
  1  'x, y, z'
loop_
 _atom_site_type_symbol
 _atom_site_label
 _atom_site_symmetry_multiplicity
 _atom_site_fract_x
 _atom_site_fract_y
 _atom_site_fract_z
 _atom_site_occupancy
  Ga  Ga0  1  0.25739700  0.84351000  0.75202400  1
  Ga  Ga1  1  0.74260300  0.84351000  0.75202400  1
  Ga  Ga2  1  0.00000000  0.57907500  0.15687600  1
  Ga  Ga3  1  0.50000000  0.59409300  0.16239900  1
  Ga  Ga4  1  0.50000000  0.24441500  0.59103200  1
  Ga  Ga5  1  0.00000000  0.24289900  0.59864600  1
  Ga  Ga6  1  0.74439500  0.74751500  0.40696500  1
  Ga  Ga7  1  0.25560500  0.74751500  0.40696500  1
  Ga  Ga8  1  0.75098300  0.40474200  0.84847600  1
  Ga  Ga9  1  0.24901700  0.40474200  0.84847600  1
  Ga  Ga10  1  0.50000000  0.16030200  0.23115000  1
  Ga  Ga11  1  0.00000000  0.16167000  0.23099600  1
  N  N12  1  0.50000000  0.98273800  0.69641300  1
  N  N13  1  0.50000000  0.68637300  0.33056700  1
  N  N14  1  0.50000000  0.33071600  0.97632500  1
  N  N15  1  0.00000000  0.34698500  0.98299300  1
  O  O16  1  0.00000000  0.97646800  0.70635300  1
  O  O17  1  0.75373100  0.67032300  0.02083300  1
  O  O18  1  0.24626900  0.67032300  0.02083300  1
  O  O19  1  0.24826800  0.32296200  0.65775400  1
  O  O20  1  0.75173200  0.32296200  0.65775400  1
  O  O21  1  0.00000000  0.32455800  0.34224500  1
  O  O22  1  0.50000000  0.33072000  0.32977300  1
  O  O23  1  0.75749300  0.66853700  0.66481500  1
  O  O24  1  0.24250700  0.66853700  0.66481500  1
  O  O25  1  0.00000000  0.69297400  0.32057100  1
  O  O26  1  0.75479900  0.01578300  0.32135600  1
  O  O27  1  0.24520100  0.01578300  0.32135600  1
