# generated using pymatgen
data_K3(FeS2)2
_symmetry_space_group_name_H-M   'P 1'
_cell_length_a   7.21526300
_cell_length_b   10.79759500
_cell_length_c   11.72171800
_cell_angle_alpha   90.00000000
_cell_angle_beta   90.00000000
_cell_angle_gamma   90.00000000
_symmetry_Int_Tables_number   1
_chemical_formula_structural   K3(FeS2)2
_chemical_formula_sum   'K12 Fe8 S16'
_cell_volume   913.20960082
_cell_formula_units_Z   4
loop_
 _symmetry_equiv_pos_site_id
 _symmetry_equiv_pos_as_xyz
  1  'x, y, z'
loop_
 _atom_site_type_symbol
 _atom_site_label
 _atom_site_symmetry_multiplicity
 _atom_site_fract_x
 _atom_site_fract_y
 _atom_site_fract_z
 _atom_site_occupancy
  K  K0  1  0.06353600  0.42453100  0.13930900  1
  K  K1  1  0.56353600  0.07546900  0.36069100  1
  K  K2  1  0.93646400  0.92453100  0.86069100  1
  K  K3  1  0.43646400  0.57546900  0.63930900  1
  K  K4  1  0.93646400  0.57546900  0.86069100  1
  K  K5  1  0.43646400  0.92453100  0.63930900  1
  K  K6  1  0.06353600  0.07546900  0.13930900  1
  K  K7  1  0.56353600  0.42453100  0.36069100  1
  K  K8  1  0.08803400  0.25000000  0.76844300  1
  K  K9  1  0.58803400  0.25000000  0.73155700  1
  K  K10  1  0.91196600  0.75000000  0.23155700  1
  K  K11  1  0.41196600  0.75000000  0.26844300  1
  Fe  Fe12  1  0.04936300  0.37091700  0.47177600  1
  Fe  Fe13  1  0.54936300  0.12908300  0.02822400  1
  Fe  Fe14  1  0.95063700  0.87091700  0.52822400  1
  Fe  Fe15  1  0.45063700  0.62908300  0.97177600  1
  Fe  Fe16  1  0.95063700  0.62908300  0.52822400  1
  Fe  Fe17  1  0.45063700  0.87091700  0.97177600  1
  Fe  Fe18  1  0.04936300  0.12908300  0.47177600  1
  Fe  Fe19  1  0.54936300  0.37091700  0.02822400  1
  S  S20  1  0.14827300  0.55073300  0.39108200  1
  S  S21  1  0.64827300  0.94926700  0.10891800  1
  S  S22  1  0.85172700  0.05073300  0.60891800  1
  S  S23  1  0.35172700  0.44926700  0.89108200  1
  S  S24  1  0.85172700  0.44926700  0.60891800  1
  S  S25  1  0.35172700  0.05073300  0.89108200  1
  S  S26  1  0.14827300  0.94926700  0.39108200  1
  S  S27  1  0.64827300  0.55073300  0.10891800  1
  S  S28  1  0.29182700  0.25000000  0.53321700  1
  S  S29  1  0.79182700  0.25000000  0.96678300  1
  S  S30  1  0.70817300  0.75000000  0.46678300  1
  S  S31  1  0.20817300  0.75000000  0.03321700  1
  S  S32  1  0.40892400  0.25000000  0.15947100  1
  S  S33  1  0.90892400  0.25000000  0.34052900  1
  S  S34  1  0.59107600  0.75000000  0.84052900  1
  S  S35  1  0.09107600  0.75000000  0.65947100  1
