# generated using pymatgen
data_V2Se2O9
_symmetry_space_group_name_H-M   'P 1'
_cell_length_a   10.52711600
_cell_length_b   8.18169300
_cell_length_c   10.72358933
_cell_angle_alpha   53.87609667
_cell_angle_beta   90.00000000
_cell_angle_gamma   90.00000000
_symmetry_Int_Tables_number   1
_chemical_formula_structural   V2Se2O9
_chemical_formula_sum   'V8 Se8 O36'
_cell_volume   746.04754519
_cell_formula_units_Z   4
loop_
 _symmetry_equiv_pos_site_id
 _symmetry_equiv_pos_as_xyz
  1  'x, y, z'
loop_
 _atom_site_type_symbol
 _atom_site_label
 _atom_site_symmetry_multiplicity
 _atom_site_fract_x
 _atom_site_fract_y
 _atom_site_fract_z
 _atom_site_occupancy
  V  V0  1  0.46821700  0.87249000  0.28243700  1
  V  V1  1  0.96821700  0.12751000  0.21756300  1
  V  V2  1  0.53178300  0.12751000  0.71756300  1
  V  V3  1  0.03178300  0.87249000  0.78243700  1
  V  V4  1  0.39577000  0.51866500  0.70787900  1
  V  V5  1  0.89577000  0.48133500  0.79212100  1
  V  V6  1  0.60423000  0.48133500  0.29212100  1
  V  V7  1  0.10423000  0.51866500  0.20787900  1
  Se  Se8  1  0.16314700  0.74902300  0.36198900  1
  Se  Se9  1  0.66314700  0.25097700  0.13801100  1
  Se  Se10  1  0.83685300  0.25097700  0.63801100  1
  Se  Se11  1  0.33685300  0.74902300  0.86198900  1
  Se  Se12  1  0.34540000  0.18784600  0.37159200  1
  Se  Se13  1  0.84540000  0.81215400  0.12840800  1
  Se  Se14  1  0.65460000  0.81215400  0.62840800  1
  Se  Se15  1  0.15460000  0.18784600  0.87159200  1
  O  O16  1  0.41178700  0.94697300  0.11782000  1
  O  O17  1  0.91178700  0.05302700  0.38218000  1
  O  O18  1  0.58821300  0.05302700  0.88218000  1
  O  O19  1  0.08821300  0.94697300  0.61782000  1
  O  O20  1  0.32176500  0.74699200  0.41818500  1
  O  O21  1  0.82176500  0.25300800  0.08181500  1
  O  O22  1  0.67823500  0.25300800  0.58181500  1
  O  O23  1  0.17823500  0.74699200  0.91818500  1
  O  O24  1  0.42715200  0.13230300  0.26292500  1
  O  O25  1  0.92715200  0.86769700  0.23707500  1
  O  O26  1  0.57284800  0.86769700  0.73707500  1
  O  O27  1  0.07284800  0.13230300  0.76292500  1
  O  O28  1  0.63891700  0.99235200  0.23613400  1
  O  O29  1  0.13891700  0.00764800  0.26386600  1
  O  O30  1  0.36108300  0.00764800  0.76386600  1
  O  O31  1  0.86108300  0.99235200  0.73613400  1
  O  O32  1  0.54396800  0.63873200  0.34895900  1
  O  O33  1  0.04396800  0.36126800  0.15104100  1
  O  O34  1  0.45603200  0.36126800  0.65104100  1
  O  O35  1  0.95603200  0.63873200  0.84895900  1
  O  O36  1  0.52984600  0.71736600  0.57907900  1
  O  O37  1  0.02984600  0.28263400  0.92092100  1
  O  O38  1  0.47015400  0.28263400  0.42092100  1
  O  O39  1  0.97015400  0.71736600  0.07907900  1
  O  O40  1  0.31394800  0.73786800  0.70729400  1
  O  O41  1  0.81394800  0.26213200  0.79270600  1
  O  O42  1  0.68605200  0.26213200  0.29270600  1
  O  O43  1  0.18605200  0.73786800  0.20729400  1
  O  O44  1  0.22595100  0.41470400  0.72444400  1
  O  O45  1  0.72595100  0.58529600  0.77555600  1
  O  O46  1  0.77404900  0.58529600  0.27555600  1
  O  O47  1  0.27404900  0.41470400  0.22444400  1
  O  O48  1  0.44838700  0.39710900  0.88219300  1
  O  O49  1  0.94838700  0.60289100  0.61780700  1
  O  O50  1  0.55161300  0.60289100  0.11780700  1
  O  O51  1  0.05161300  0.39710900  0.38219300  1
