# generated using pymatgen
data_CoP2(H8O5)2
_symmetry_space_group_name_H-M   'P 1'
_cell_length_a   12.74267473
_cell_length_b   12.74267473
_cell_length_c   12.74267473
_cell_angle_alpha   132.81925832
_cell_angle_beta   132.81925832
_cell_angle_gamma   68.93813476
_symmetry_Int_Tables_number   1
_chemical_formula_structural   CoP2(H8O5)2
_chemical_formula_sum   'Co4 P8 H64 O40'
_cell_volume   1092.79805774
_cell_formula_units_Z   4
loop_
 _symmetry_equiv_pos_site_id
 _symmetry_equiv_pos_as_xyz
  1  'x, y, z'
loop_
 _atom_site_type_symbol
 _atom_site_label
 _atom_site_symmetry_multiplicity
 _atom_site_fract_x
 _atom_site_fract_y
 _atom_site_fract_z
 _atom_site_occupancy
  Co  Co0  1  0.75000000  0.75000000  0.00000000  1
  Co  Co1  1  0.50000000  0.00000000  0.50000000  1
  Co  Co2  1  0.00000000  0.50000000  0.50000000  1
  Co  Co3  1  0.25000000  0.25000000  0.00000000  1
  P  P4  1  0.62500000  0.11340200  0.98840200  1
  P  P5  1  0.86340200  0.37500000  0.98840200  1
  P  P6  1  0.38659800  0.87500000  0.01159800  1
  P  P7  1  0.12500000  0.63659800  0.01159800  1
  P  P8  1  0.12500000  0.13659800  0.51159800  1
  P  P9  1  0.88659800  0.87500000  0.51159800  1
  P  P10  1  0.36340200  0.37500000  0.48840200  1
  P  P11  1  0.62500000  0.61340200  0.48840200  1
  H  H12  1  0.57941900  0.23292800  0.99074300  1
  H  H13  1  0.98292800  0.49218500  0.15350900  1
  H  H14  1  0.33867600  0.82941900  0.84649100  1
  H  H15  1  0.67058100  0.16132400  0.15350900  1
  H  H16  1  0.00781500  0.51707200  0.84649100  1
  H  H17  1  0.91132400  0.25781500  0.99074300  1
  H  H18  1  0.26707200  0.92058100  0.00925700  1
  H  H19  1  0.24218500  0.58867600  0.00925700  1
  H  H20  1  0.17058100  0.01707200  0.50925700  1
  H  H21  1  0.76707200  0.75781500  0.34649100  1
  H  H22  1  0.41132400  0.42058100  0.65350900  1
  H  H23  1  0.07941900  0.08867600  0.34649100  1
  H  H24  1  0.74218500  0.73292800  0.65350900  1
  H  H25  1  0.83867600  0.99218500  0.50925700  1
  H  H26  1  0.48292800  0.32941900  0.49074300  1
  H  H27  1  0.50781500  0.66132400  0.49074300  1
  H  H28  1  0.82569000  0.93794000  0.00035000  1
  H  H29  1  0.68794000  0.18759000  0.61225000  1
  H  H30  1  0.57534000  0.07569000  0.38775000  1
  H  H31  1  0.42431000  0.92466000  0.61225000  1
  H  H32  1  0.31241000  0.81206000  0.38775000  1
  H  H33  1  0.67466000  0.56241000  0.00035000  1
  H  H34  1  0.56206000  0.67431000  0.99965000  1
  H  H35  1  0.93759000  0.82534000  0.99965000  1
  H  H36  1  0.92431000  0.31206000  0.49965000  1
  H  H37  1  0.06206000  0.06241000  0.88775000  1
  H  H38  1  0.17466000  0.17431000  0.11225000  1
  H  H39  1  0.32569000  0.32534000  0.88775000  1
  H  H40  1  0.43759000  0.43794000  0.11225000  1
  H  H41  1  0.07534000  0.68759000  0.49965000  1
  H  H42  1  0.18794000  0.57569000  0.50035000  1
  H  H43  1  0.81241000  0.42466000  0.50035000  1
  H  H44  1  0.52921200  0.83211700  0.80635600  1
  H  H45  1  0.58211700  0.27576100  0.80290400  1
  H  H46  1  0.47285700  0.77921200  0.19709600  1
  H  H47  1  0.72078800  0.02714300  0.80290400  1
  H  H48  1  0.22423900  0.91788300  0.19709600  1
  H  H49  1  0.77714300  0.47423900  0.80635600  1
  H  H50  1  0.66788300  0.97078800  0.19364400  1
  H  H51  1  0.02576100  0.72285700  0.19364400  1
  H  H52  1  0.22078800  0.41788300  0.69364400  1
  H  H53  1  0.16788300  0.97423900  0.69709600  1
  H  H54  1  0.27714300  0.47078800  0.30290400  1
  H  H55  1  0.02921200  0.22285700  0.69709600  1
  H  H56  1  0.52576100  0.33211700  0.30290400  1
  H  H57  1  0.97285700  0.77576100  0.69364400  1
  H  H58  1  0.08211700  0.27921200  0.30635600  1
  H  H59  1  0.72423900  0.52714300  0.30635600  1
  H  H60  1  0.47484900  0.66246800  0.69515400  1
  H  H61  1  0.41246800  0.21731300  0.68761900  1
  H  H62  1  0.52969400  0.72484900  0.31238100  1
  H  H63  1  0.77515100  0.97030600  0.68761900  1
  H  H64  1  0.28268700  0.08753200  0.31238100  1
  H  H65  1  0.72030600  0.53268700  0.69515400  1
  H  H66  1  0.83753200  0.02515100  0.30484600  1
  H  H67  1  0.96731300  0.77969400  0.30484600  1
  H  H68  1  0.27515100  0.58753200  0.80484600  1
  H  H69  1  0.33753200  0.03268700  0.81238100  1
  H  H70  1  0.22030600  0.52515100  0.18761900  1
  H  H71  1  0.97484900  0.27969400  0.81238100  1
  H  H72  1  0.46731300  0.16246800  0.18761900  1
  H  H73  1  0.02969400  0.71731300  0.80484600  1
  H  H74  1  0.91246800  0.22484900  0.19515400  1
  H  H75  1  0.78268700  0.47030600  0.19515400  1
  O  O76  1  0.75713900  0.08135300  0.99518300  1
  O  O77  1  0.83135300  0.33617000  0.82421400  1
  O  O78  1  0.51195700  0.00713900  0.17578600  1
  O  O79  1  0.49286100  0.98804300  0.82421400  1
  O  O80  1  0.16383000  0.66864700  0.17578600  1
  O  O81  1  0.73804300  0.41383000  0.99518300  1
  O  O82  1  0.41864700  0.74286100  0.00481700  1
  O  O83  1  0.08617000  0.76195700  0.00481700  1
  O  O84  1  0.99286100  0.16864700  0.50481700  1
  O  O85  1  0.91864700  0.91383000  0.67578600  1
  O  O86  1  0.23804300  0.24286100  0.32421400  1
  O  O87  1  0.25713900  0.26195700  0.67578600  1
  O  O88  1  0.58617000  0.58135300  0.32421400  1
  O  O89  1  0.01195700  0.83617000  0.50481700  1
  O  O90  1  0.33135300  0.50713900  0.49518300  1
  O  O91  1  0.66383000  0.48804300  0.49518300  1
  O  O92  1  0.85451100  0.85451100  0.00000000  1
  O  O93  1  0.60451100  0.10451100  0.50000000  1
  O  O94  1  0.39548900  0.89548900  0.50000000  1
  O  O95  1  0.64548900  0.64548900  0.00000000  1
  O  O96  1  0.89548900  0.39548900  0.50000000  1
  O  O97  1  0.14548900  0.14548900  0.00000000  1
  O  O98  1  0.35451100  0.35451100  0.00000000  1
  O  O99  1  0.10451100  0.60451100  0.50000000  1
  O  O100  1  0.55256700  0.75134900  0.81091400  1
  O  O101  1  0.50134900  0.19043500  0.69878200  1
  O  O102  1  0.49165200  0.80256700  0.30121800  1
  O  O103  1  0.69743300  0.00834800  0.69878200  1
  O  O104  1  0.30956500  0.99865100  0.30121800  1
  O  O105  1  0.75834800  0.55956500  0.81091400  1
  O  O106  1  0.74865100  0.94743300  0.18908600  1
  O  O107  1  0.94043500  0.74165200  0.18908600  1
  O  O108  1  0.19743300  0.49865100  0.68908600  1
  O  O109  1  0.24865100  0.05956500  0.80121800  1
  O  O110  1  0.25834800  0.44743300  0.19878200  1
  O  O111  1  0.05256700  0.24165200  0.80121800  1
  O  O112  1  0.44043500  0.25134900  0.19878200  1
  O  O113  1  0.99165200  0.69043500  0.68908600  1
  O  O114  1  0.00134900  0.30256700  0.31091400  1
  O  O115  1  0.80956500  0.50834800  0.31091400  1
