# generated using pymatgen
data_K2LaH4N5O17
_symmetry_space_group_name_H-M   'P 1'
_cell_length_a   12.56790916
_cell_length_b   12.32255349
_cell_length_c   8.46533022
_cell_angle_alpha   71.68643981
_cell_angle_beta   68.56261391
_cell_angle_gamma   39.75094629
_symmetry_Int_Tables_number   1
_chemical_formula_structural   K2LaH4N5O17
_chemical_formula_sum   'K4 La2 H8 N10 O34'
_cell_volume   779.11654510
_cell_formula_units_Z   2
loop_
 _symmetry_equiv_pos_site_id
 _symmetry_equiv_pos_as_xyz
  1  'x, y, z'
loop_
 _atom_site_type_symbol
 _atom_site_label
 _atom_site_symmetry_multiplicity
 _atom_site_fract_x
 _atom_site_fract_y
 _atom_site_fract_z
 _atom_site_occupancy
  K  K0  1  0.52395900  0.68061300  0.43960000  1
  K  K1  1  0.43960000  0.35582800  0.52395900  1
  K  K2  1  0.89417200  0.81040000  0.56938700  1
  K  K3  1  0.56938700  0.72604100  0.89417200  1
  La  La4  1  0.00234800  0.99765200  0.00234800  1
  La  La5  1  0.25234800  0.24765200  0.25234800  1
  H  H6  1  0.14263200  0.15050200  0.77653600  1
  H  H7  1  0.77653600  0.93033000  0.14263200  1
  H  H8  1  0.31967000  0.47346400  0.09949800  1
  H  H9  1  0.09949800  0.10736800  0.31967000  1
  H  H10  1  0.11322700  0.16899300  0.96427400  1
  H  H11  1  0.96427400  0.75350600  0.11322700  1
  H  H12  1  0.49649400  0.28572600  0.08100700  1
  H  H13  1  0.08100700  0.13677300  0.49649400  1
  N  N14  1  0.80920000  0.20909000  0.31283200  1
  N  N15  1  0.31283200  0.66887800  0.80920000  1
  N  N16  1  0.58112200  0.93716800  0.04091000  1
  N  N17  1  0.04091000  0.44080000  0.58112200  1
  N  N18  1  0.80819900  0.34102400  0.77331100  1
  N  N19  1  0.77331100  0.07746700  0.80819900  1
  N  N20  1  0.17253300  0.47668900  0.90897600  1
  N  N21  1  0.90897600  0.44180100  0.17253300  1
  N  N22  1  0.25530800  0.74469200  0.25530800  1
  N  N23  1  0.50530800  0.99469200  0.50530800  1
  O  O24  1  0.95701900  0.14015200  0.22945300  1
  O  O25  1  0.22945300  0.67337600  0.95701900  1
  O  O26  1  0.57662400  0.02054700  0.10984800  1
  O  O27  1  0.10984800  0.29298100  0.57662400  1
  O  O28  1  0.75471000  0.16806300  0.27238600  1
  O  O29  1  0.27238600  0.80484100  0.75471000  1
  O  O30  1  0.44515900  0.97761400  0.08193700  1
  O  O31  1  0.08193700  0.49529000  0.44515900  1
  O  O32  1  0.72492800  0.30851000  0.42500900  1
  O  O33  1  0.42500900  0.54155300  0.72492800  1
  O  O34  1  0.70844700  0.82499100  0.94149000  1
  O  O35  1  0.94149000  0.52507200  0.70844700  1
  O  O36  1  0.77153200  0.34366800  0.93429800  1
  O  O37  1  0.93429800  0.95050200  0.77153200  1
  O  O38  1  0.29949800  0.31570200  0.90633200  1
  O  O39  1  0.90633200  0.47846800  0.29949800  1
  O  O40  1  0.92880900  0.19504000  0.70934900  1
  O  O41  1  0.70934900  0.16680300  0.92880900  1
  O  O42  1  0.08319700  0.54065100  0.05496000  1
  O  O43  1  0.05496000  0.32119100  0.08319700  1
  O  O44  1  0.73057600  0.47513900  0.68150800  1
  O  O45  1  0.68150800  0.11277700  0.73057600  1
  O  O46  1  0.13722300  0.56849200  0.77486100  1
  O  O47  1  0.77486100  0.51942400  0.13722300  1
  O  O48  1  0.11664600  0.79274700  0.28719400  1
  O  O49  1  0.28719400  0.80341200  0.11664600  1
  O  O50  1  0.44658800  0.96280600  0.45725300  1
  O  O51  1  0.45725300  0.13335400  0.44658800  1
  O  O52  1  0.35546100  0.64453900  0.35546100  1
  O  O53  1  0.60546100  0.89453900  0.60546100  1
  O  O54  1  0.15611200  0.08998300  0.88915600  1
  O  O55  1  0.88915600  0.86474900  0.15611200  1
  O  O56  1  0.38525100  0.36084400  0.16001700  1
  O  O57  1  0.16001700  0.09388800  0.38525100  1
