# generated using pymatgen
data_Tb2H16S3O20
_symmetry_space_group_name_H-M   'P 1'
_cell_length_a   7.56067778
_cell_length_b   7.56067778
_cell_length_c   18.39173739
_cell_angle_alpha   78.81751592
_cell_angle_beta   78.81751592
_cell_angle_gamma   53.15743836
_symmetry_Int_Tables_number   1
_chemical_formula_structural   Tb2H16S3O20
_chemical_formula_sum   'Tb4 H32 S6 O40'
_cell_volume   821.35406720
_cell_formula_units_Z   2
loop_
 _symmetry_equiv_pos_site_id
 _symmetry_equiv_pos_as_xyz
  1  'x, y, z'
loop_
 _atom_site_type_symbol
 _atom_site_label
 _atom_site_symmetry_multiplicity
 _atom_site_fract_x
 _atom_site_fract_y
 _atom_site_fract_z
 _atom_site_occupancy
  Tb  Tb0  1  0.81152000  0.85348700  0.39253600  1
  Tb  Tb1  1  0.14651300  0.18848000  0.10746400  1
  Tb  Tb2  1  0.18848000  0.14651300  0.60746400  1
  Tb  Tb3  1  0.85348700  0.81152000  0.89253600  1
  H  H4  1  0.28924400  0.69851200  0.33908500  1
  H  H5  1  0.30148800  0.71075600  0.16091500  1
  H  H6  1  0.71075600  0.30148800  0.66091500  1
  H  H7  1  0.69851200  0.28924400  0.83908500  1
  H  H8  1  0.15122800  0.95702900  0.35026600  1
  H  H9  1  0.04297100  0.84877200  0.14973400  1
  H  H10  1  0.84877200  0.04297100  0.64973400  1
  H  H11  1  0.95702900  0.15122800  0.85026600  1
  H  H12  1  0.71800800  0.62501900  0.30254000  1
  H  H13  1  0.37498100  0.28199200  0.19746000  1
  H  H14  1  0.28199200  0.37498100  0.69746000  1
  H  H15  1  0.62501900  0.71800800  0.80254000  1
  H  H16  1  0.76100900  0.78684500  0.24484400  1
  H  H17  1  0.21315500  0.23899100  0.25515600  1
  H  H18  1  0.23899100  0.21315500  0.75515600  1
  H  H19  1  0.78684500  0.76100900  0.74484400  1
  H  H20  1  0.53674500  0.70931100  0.49155000  1
  H  H21  1  0.29068900  0.46325500  0.00845000  1
  H  H22  1  0.46325500  0.29068900  0.50845000  1
  H  H23  1  0.70931100  0.53674500  0.99155000  1
  H  H24  1  0.78820100  0.49862300  0.48277100  1
  H  H25  1  0.50137700  0.21179900  0.01722900  1
  H  H26  1  0.21179900  0.50137700  0.51722900  1
  H  H27  1  0.49862300  0.78820100  0.98277100  1
  H  H28  1  0.66584800  0.31816900  0.39361700  1
  H  H29  1  0.68183100  0.33415200  0.10638300  1
  H  H30  1  0.33415200  0.68183100  0.60638300  1
  H  H31  1  0.31816900  0.66584800  0.89361700  1
  H  H32  1  0.83716800  0.18841900  0.45436500  1
  H  H33  1  0.81158100  0.16283200  0.04563500  1
  H  H34  1  0.16283200  0.81158100  0.54563500  1
  H  H35  1  0.18841900  0.83716800  0.95436500  1
  S  S36  1  0.67430500  0.32569500  0.25000000  1
  S  S37  1  0.32569500  0.67430500  0.75000000  1
  S  S38  1  0.81068000  0.75412700  0.59027800  1
  S  S39  1  0.24587300  0.18932000  0.90972200  1
  S  S40  1  0.18932000  0.24587300  0.40972200  1
  S  S41  1  0.75412700  0.81068000  0.09027800  1
  O  O42  1  0.14356800  0.82772000  0.35750600  1
  O  O43  1  0.17228000  0.85643200  0.14249400  1
  O  O44  1  0.85643200  0.17228000  0.64249400  1
  O  O45  1  0.82772000  0.14356800  0.85750600  1
  O  O46  1  0.75849700  0.72912900  0.29799300  1
  O  O47  1  0.27087100  0.24150300  0.20200700  1
  O  O48  1  0.24150300  0.27087100  0.70200700  1
  O  O49  1  0.72912900  0.75849700  0.79799300  1
  O  O50  1  0.67432100  0.64116600  0.45719000  1
  O  O51  1  0.35883400  0.32567900  0.04281000  1
  O  O52  1  0.32567900  0.35883400  0.54281000  1
  O  O53  1  0.64116600  0.67432100  0.95719000  1
  O  O54  1  0.71723300  0.19861200  0.43593500  1
  O  O55  1  0.80138800  0.28276700  0.06406500  1
  O  O56  1  0.28276700  0.80138800  0.56406500  1
  O  O57  1  0.19861200  0.71723300  0.93593500  1
  O  O58  1  0.71578000  0.11332800  0.28737000  1
  O  O59  1  0.88667200  0.28422000  0.21263000  1
  O  O60  1  0.28422000  0.88667200  0.71263000  1
  O  O61  1  0.11332800  0.71578000  0.78737000  1
  O  O62  1  0.58247000  0.48519700  0.30705300  1
  O  O63  1  0.51480300  0.41753000  0.19294700  1
  O  O64  1  0.41753000  0.51480300  0.69294700  1
  O  O65  1  0.48519700  0.58247000  0.80705300  1
  O  O66  1  0.93430300  0.77819600  0.51774500  1
  O  O67  1  0.22180400  0.06569700  0.98225500  1
  O  O68  1  0.06569700  0.22180400  0.48225500  1
  O  O69  1  0.77819600  0.93430300  0.01774500  1
  O  O70  1  0.57054700  0.91041500  0.58171300  1
  O  O71  1  0.08958500  0.42945300  0.91828700  1
  O  O72  1  0.42945300  0.08958500  0.41828700  1
  O  O73  1  0.91041500  0.57054700  0.08171300  1
  O  O74  1  0.87615200  0.52312100  0.60315700  1
  O  O75  1  0.47687900  0.12384800  0.89684300  1
  O  O76  1  0.12384800  0.47687900  0.39684300  1
  O  O77  1  0.52312100  0.87615200  0.10315700  1
  O  O78  1  0.87004900  0.80499600  0.65141500  1
  O  O79  1  0.19500400  0.12995100  0.84858500  1
  O  O80  1  0.12995100  0.19500400  0.34858500  1
  O  O81  1  0.80499600  0.87004900  0.15141500  1
