# generated using pymatgen
data_Sr2Fe2O5
_symmetry_space_group_name_H-M   'P 1'
_cell_length_a   8.83472244
_cell_length_b   8.83472244
_cell_length_c   8.83472244
_cell_angle_alpha   143.03374822
_cell_angle_beta   141.82376358
_cell_angle_gamma   54.18972164
_symmetry_Int_Tables_number   1
_chemical_formula_structural   Sr2Fe2O5
_chemical_formula_sum   'Sr4 Fe4 O10'
_cell_volume   254.57946177
_cell_formula_units_Z   2
loop_
 _symmetry_equiv_pos_site_id
 _symmetry_equiv_pos_as_xyz
  1  'x, y, z'
loop_
 _atom_site_type_symbol
 _atom_site_label
 _atom_site_symmetry_multiplicity
 _atom_site_fract_x
 _atom_site_fract_y
 _atom_site_fract_z
 _atom_site_occupancy
  Sr  Sr0  1  0.12808300  0.61253800  0.52376100  1
  Sr  Sr1  1  0.87191700  0.39567800  0.48445500  1
  Sr  Sr2  1  0.58877700  0.11253800  0.48445500  1
  Sr  Sr3  1  0.41122300  0.89567800  0.52376100  1
  Fe  Fe4  1  0.00000000  0.99902600  0.99902600  1
  Fe  Fe5  1  0.50000000  0.49902600  0.99902600  1
  Fe  Fe6  1  0.17808300  0.29334900  0.97143200  1
  Fe  Fe7  1  0.82191700  0.79334900  0.11526600  1
  O  O8  1  0.24455400  0.74233600  0.00300000  1
  O  O9  1  0.75544600  0.75844600  0.49778200  1
  O  O10  1  0.23933600  0.24233600  0.49778200  1
  O  O11  1  0.76066400  0.25844600  0.00300000  1
  O  O12  1  0.18918100  0.12429500  0.03304900  1
  O  O13  1  0.81081900  0.84386800  0.93511400  1
  O  O14  1  0.59124500  0.62429500  0.93511400  1
  O  O15  1  0.40875500  0.34386800  0.03304900  1
  O  O16  1  0.12109600  0.63728400  0.25838100  1
  O  O17  1  0.87890400  0.13728400  0.51618800  1
