# generated using pymatgen
data_SrMo2(AsO6)2
_symmetry_space_group_name_H-M   'P 1'
_cell_length_a   7.03441900
_cell_length_b   6.68219900
_cell_length_c   10.68258791
_cell_angle_alpha   88.57582963
_cell_angle_beta   90.00000000
_cell_angle_gamma   90.00000000
_symmetry_Int_Tables_number   1
_chemical_formula_structural   SrMo2(AsO6)2
_chemical_formula_sum   'Sr2 Mo4 As4 O24'
_cell_volume   501.98407181
_cell_formula_units_Z   2
loop_
 _symmetry_equiv_pos_site_id
 _symmetry_equiv_pos_as_xyz
  1  'x, y, z'
loop_
 _atom_site_type_symbol
 _atom_site_label
 _atom_site_symmetry_multiplicity
 _atom_site_fract_x
 _atom_site_fract_y
 _atom_site_fract_z
 _atom_site_occupancy
  Sr  Sr0  1  0.00000000  0.50000000  0.50000000  1
  Sr  Sr1  1  0.50000000  0.50000000  0.00000000  1
  Mo  Mo2  1  0.95237800  0.75151400  0.83588700  1
  Mo  Mo3  1  0.45237800  0.24848600  0.66411300  1
  Mo  Mo4  1  0.04762200  0.24848600  0.16411300  1
  Mo  Mo5  1  0.54762200  0.75151400  0.33588700  1
  As  As6  1  0.95834600  0.74242500  0.15521700  1
  As  As7  1  0.45834600  0.25757500  0.34478300  1
  As  As8  1  0.04165400  0.25757500  0.84478300  1
  As  As9  1  0.54165400  0.74242500  0.65521700  1
  O  O10  1  0.81429400  0.72312200  0.02694600  1
  O  O11  1  0.31429400  0.27687800  0.47305400  1
  O  O12  1  0.18570600  0.27687800  0.97305400  1
  O  O13  1  0.68570600  0.72312200  0.52694600  1
  O  O14  1  0.12016000  0.54768800  0.16035500  1
  O  O15  1  0.62016000  0.45231200  0.33964500  1
  O  O16  1  0.87984000  0.45231200  0.83964500  1
  O  O17  1  0.37984000  0.54768800  0.66035500  1
  O  O18  1  0.09091400  0.96012400  0.13999200  1
  O  O19  1  0.59091400  0.03987600  0.36000800  1
  O  O20  1  0.90908600  0.03987600  0.86000800  1
  O  O21  1  0.40908600  0.96012400  0.63999200  1
  O  O22  1  0.85325200  0.74258200  0.30042800  1
  O  O23  1  0.35325200  0.25741800  0.19957200  1
  O  O24  1  0.14674800  0.25741800  0.69957200  1
  O  O25  1  0.64674800  0.74258200  0.80042800  1
  O  O26  1  0.17640500  0.71445800  0.90340500  1
  O  O27  1  0.67640500  0.28554200  0.59659500  1
  O  O28  1  0.82359500  0.28554200  0.09659500  1
  O  O29  1  0.32359500  0.71445800  0.40340500  1
  O  O30  1  0.00659300  0.75666500  0.67698100  1
  O  O31  1  0.50659300  0.24333500  0.82301900  1
  O  O32  1  0.99340700  0.24333500  0.32301900  1
  O  O33  1  0.49340700  0.75666500  0.17698100  1
