# generated using pymatgen
data_NaYbGeO4
_symmetry_space_group_name_H-M   'P 1'
_cell_length_a   5.42041700
_cell_length_b   6.54027200
_cell_length_c   11.58707300
_cell_angle_alpha   90.00000000
_cell_angle_beta   90.00000000
_cell_angle_gamma   90.00000000
_symmetry_Int_Tables_number   1
_chemical_formula_structural   NaYbGeO4
_chemical_formula_sum   'Na4 Yb4 Ge4 O16'
_cell_volume   410.77334269
_cell_formula_units_Z   4
loop_
 _symmetry_equiv_pos_site_id
 _symmetry_equiv_pos_as_xyz
  1  'x, y, z'
loop_
 _atom_site_type_symbol
 _atom_site_label
 _atom_site_symmetry_multiplicity
 _atom_site_fract_x
 _atom_site_fract_y
 _atom_site_fract_z
 _atom_site_occupancy
  Na  Na0  1  0.00000000  0.50000000  0.50000000  1
  Na  Na1  1  0.00000000  0.00000000  0.50000000  1
  Na  Na2  1  0.50000000  0.50000000  0.00000000  1
  Na  Na3  1  0.50000000  0.00000000  0.00000000  1
  Yb  Yb4  1  0.49545600  0.25000000  0.27418300  1
  Yb  Yb5  1  0.00454400  0.25000000  0.77418300  1
  Yb  Yb6  1  0.50454400  0.75000000  0.72581700  1
  Yb  Yb7  1  0.99545600  0.75000000  0.22581700  1
  Ge  Ge8  1  0.05164600  0.25000000  0.10044300  1
  Ge  Ge9  1  0.44835400  0.25000000  0.60044300  1
  Ge  Ge10  1  0.94835400  0.75000000  0.89955700  1
  Ge  Ge11  1  0.55164600  0.75000000  0.39955700  1
  O  O12  1  0.22962600  0.75000000  0.39238800  1
  O  O13  1  0.79547700  0.95949600  0.83067800  1
  O  O14  1  0.29547700  0.45949600  0.66932200  1
  O  O15  1  0.67792200  0.75000000  0.54213100  1
  O  O16  1  0.29547700  0.04050400  0.66932200  1
  O  O17  1  0.79547700  0.54050400  0.83067800  1
  O  O18  1  0.32207800  0.25000000  0.45786900  1
  O  O19  1  0.27037400  0.75000000  0.89238800  1
  O  O20  1  0.17792200  0.25000000  0.95786900  1
  O  O21  1  0.70452300  0.54050400  0.33067800  1
  O  O22  1  0.70452300  0.95949600  0.33067800  1
  O  O23  1  0.20452300  0.04050400  0.16932200  1
  O  O24  1  0.82207800  0.75000000  0.04213100  1
  O  O25  1  0.20452300  0.45949600  0.16932200  1
  O  O26  1  0.77037400  0.25000000  0.60761200  1
  O  O27  1  0.72962600  0.25000000  0.10761200  1
