# generated using pymatgen
data_CuH8C4O5
_symmetry_space_group_name_H-M   'P 1'
_cell_length_a   7.97846796
_cell_length_b   7.97846796
_cell_length_c   13.94462419
_cell_angle_alpha   68.02758243
_cell_angle_beta   68.02758243
_cell_angle_gamma   66.35535008
_symmetry_Int_Tables_number   1
_chemical_formula_structural   CuH8C4O5
_chemical_formula_sum   'Cu4 H32 C16 O20'
_cell_volume   727.36601907
_cell_formula_units_Z   4
loop_
 _symmetry_equiv_pos_site_id
 _symmetry_equiv_pos_as_xyz
  1  'x, y, z'
loop_
 _atom_site_type_symbol
 _atom_site_label
 _atom_site_symmetry_multiplicity
 _atom_site_fract_x
 _atom_site_fract_y
 _atom_site_fract_z
 _atom_site_occupancy
  Cu  Cu0  1  0.47012600  0.62859300  0.54294500  1
  Cu  Cu1  1  0.37140700  0.52987400  0.95705500  1
  Cu  Cu2  1  0.52987400  0.37140700  0.45705500  1
  Cu  Cu3  1  0.62859300  0.47012600  0.04294500  1
  H  H4  1  0.30141700  0.18296600  0.85136500  1
  H  H5  1  0.81703400  0.69858300  0.64863500  1
  H  H6  1  0.69858300  0.81703400  0.14863500  1
  H  H7  1  0.18296600  0.30141700  0.35136500  1
  H  H8  1  0.25746000  0.04741100  0.79042000  1
  H  H9  1  0.95258900  0.74254000  0.70958000  1
  H  H10  1  0.74254000  0.95258900  0.20958000  1
  H  H11  1  0.04741100  0.25746000  0.29042000  1
  H  H12  1  0.08944500  0.26819900  0.81259000  1
  H  H13  1  0.73180100  0.91055500  0.68741000  1
  H  H14  1  0.91055500  0.73180100  0.18741000  1
  H  H15  1  0.26819900  0.08944500  0.31259000  1
  H  H16  1  0.96739500  0.19259800  0.66993000  1
  H  H17  1  0.80740200  0.03260500  0.83007000  1
  H  H18  1  0.03260500  0.80740200  0.33007000  1
  H  H19  1  0.19259800  0.96739500  0.16993000  1
  H  H20  1  0.05664200  0.06979700  0.56768800  1
  H  H21  1  0.93020300  0.94335800  0.93231200  1
  H  H22  1  0.94335800  0.93020300  0.43231200  1
  H  H23  1  0.06979700  0.05664200  0.06768800  1
  H  H24  1  0.09713600  0.29017000  0.54091500  1
  H  H25  1  0.70983100  0.90286400  0.95908500  1
  H  H26  1  0.90286400  0.70983100  0.45908500  1
  H  H27  1  0.29016900  0.09713600  0.04091500  1
  H  H28  1  0.45384700  0.77301000  0.70031700  1
  H  H29  1  0.22699000  0.54615300  0.79968300  1
  H  H30  1  0.54615300  0.22699000  0.29968300  1
  H  H31  1  0.77301000  0.45384700  0.20031700  1
  H  H32  1  0.40989000  0.96518000  0.61162500  1
  H  H33  1  0.03482000  0.59011000  0.88837500  1
  H  H34  1  0.59011000  0.03482000  0.38837500  1
  H  H35  1  0.96518000  0.40989000  0.11162500  1
  C  C36  1  0.33512100  0.29940800  0.68287800  1
  C  C37  1  0.70059200  0.66487900  0.81712200  1
  C  C38  1  0.66487900  0.70059200  0.31712200  1
  C  C39  1  0.29940800  0.33512100  0.18287800  1
  C  C40  1  0.24122000  0.19020900  0.79035400  1
  C  C41  1  0.80979100  0.75878000  0.70964600  1
  C  C42  1  0.75878000  0.80979100  0.20964600  1
  C  C43  1  0.19020900  0.24122000  0.29035400  1
  C  C44  1  0.81378800  0.31848400  0.55057200  1
  C  C45  1  0.68151600  0.18621200  0.94942800  1
  C  C46  1  0.18621200  0.68151600  0.44942800  1
  C  C47  1  0.31848400  0.81378800  0.05057200  1
  C  C48  1  0.99516000  0.20909800  0.58416000  1
  C  C49  1  0.79090200  0.00484000  0.91584000  1
  C  C50  1  0.00484000  0.79090200  0.41584000  1
  C  C51  1  0.20909800  0.99516000  0.08416000  1
  O  O52  1  0.40274300  0.22702300  0.60335400  1
  O  O53  1  0.77297700  0.59725700  0.89664600  1
  O  O54  1  0.59725700  0.77297700  0.39664600  1
  O  O55  1  0.22702300  0.40274300  0.10335400  1
  O  O56  1  0.34071500  0.46065800  0.67803100  1
  O  O57  1  0.53934200  0.65928500  0.82196900  1
  O  O58  1  0.65928500  0.53934200  0.32196900  1
  O  O59  1  0.46065800  0.34071500  0.17803100  1
  O  O60  1  0.76784100  0.24542900  0.50034000  1
  O  O61  1  0.75457100  0.23215900  0.99966000  1
  O  O62  1  0.23215900  0.75457100  0.49966000  1
  O  O63  1  0.24542900  0.76784100  0.00034000  1
  O  O64  1  0.71880800  0.47697800  0.57425100  1
  O  O65  1  0.52302200  0.28119200  0.92574900  1
  O  O66  1  0.28119200  0.52302200  0.42574900  1
  O  O67  1  0.47697800  0.71880800  0.07425100  1
  O  O68  1  0.41035600  0.83288600  0.63415400  1
  O  O69  1  0.16711400  0.58964400  0.86584600  1
  O  O70  1  0.58964400  0.16711400  0.36584600  1
  O  O71  1  0.83288600  0.41035600  0.13415400  1
