# generated using pymatgen
data_Ga3NO3
_symmetry_space_group_name_H-M   'P 1'
_cell_length_a   6.14003400
_cell_length_b   8.39461720
_cell_length_c   8.40039800
_cell_angle_alpha   119.74400972
_cell_angle_beta   90.54667280
_cell_angle_gamma   90.29358473
_symmetry_Int_Tables_number   1
_chemical_formula_structural   Ga3NO3
_chemical_formula_sum   'Ga12 N4 O12'
_cell_volume   375.89704352
_cell_formula_units_Z   4
loop_
 _symmetry_equiv_pos_site_id
 _symmetry_equiv_pos_as_xyz
  1  'x, y, z'
loop_
 _atom_site_type_symbol
 _atom_site_label
 _atom_site_symmetry_multiplicity
 _atom_site_fract_x
 _atom_site_fract_y
 _atom_site_fract_z
 _atom_site_occupancy
  Ga  Ga0  1  0.98478600  0.74891900  0.92113100  1
  Ga  Ga1  1  0.67971500  0.43744600  0.93188000  1
  Ga  Ga2  1  0.69951800  0.49173400  0.57592200  1
  Ga  Ga3  1  0.99140700  0.08969100  0.83494300  1
  Ga  Ga4  1  0.48851800  0.92119000  0.75281200  1
  Ga  Ga5  1  0.68485600  0.08310500  0.50333600  1
  Ga  Ga6  1  0.98291400  0.17692900  0.26272100  1
  Ga  Ga7  1  0.19984300  0.91392900  0.41978400  1
  Ga  Ga8  1  0.19293300  0.57128700  0.48610900  1
  Ga  Ga9  1  0.50220600  0.83179900  0.09269800  1
  Ga  Ga10  1  0.20350800  0.50148900  0.07215900  1
  Ga  Ga11  1  0.50038800  0.26061200  0.17255700  1
  N  N12  1  0.45927400  0.96042900  0.34416800  1
  N  N13  1  0.73057900  0.67632600  0.97886200  1
  N  N14  1  0.74039200  0.32338600  0.32792500  1
  N  N15  1  0.44827100  0.35651800  0.01711700  1
  O  O16  1  0.23493400  0.68260800  0.00021100  1
  O  O17  1  0.96150200  0.34230100  0.95380000  1
  O  O18  1  0.97359400  0.62724600  0.65792900  1
  O  O19  1  0.65805900  0.33230600  0.67102400  1
  O  O20  1  0.48457100  0.99917000  0.99982100  1
  O  O21  1  0.00251500  0.00626000  0.00500600  1
  O  O22  1  0.22269600  0.97770800  0.67447500  1
  O  O23  1  0.73693500  0.00246900  0.68469400  1
  O  O24  1  0.24014700  0.32066000  0.32763400  1
  O  O25  1  0.96680300  0.04351500  0.39365500  1
  O  O26  1  0.46572400  0.66052800  0.61212900  1
  O  O27  1  0.12901300  0.66054200  0.32550000  1
