# generated using pymatgen
data_AsS
_symmetry_space_group_name_H-M   'P 1'
_cell_length_a   7.27688703
_cell_length_b   7.27688703
_cell_length_c   9.54793725
_cell_angle_alpha   80.92679361
_cell_angle_beta   80.92679361
_cell_angle_gamma   85.03085400
_symmetry_Int_Tables_number   1
_chemical_formula_structural   AsS
_chemical_formula_sum   'As8 S8'
_cell_volume   492.03004856
_cell_formula_units_Z   8
loop_
 _symmetry_equiv_pos_site_id
 _symmetry_equiv_pos_as_xyz
  1  'x, y, z'
loop_
 _atom_site_type_symbol
 _atom_site_label
 _atom_site_symmetry_multiplicity
 _atom_site_fract_x
 _atom_site_fract_y
 _atom_site_fract_z
 _atom_site_occupancy
  As  As0  1  0.79190000  0.21392500  0.56574600  1
  As  As1  1  0.78607500  0.20810000  0.93425400  1
  As  As2  1  0.20810000  0.78607500  0.43425400  1
  As  As3  1  0.21392500  0.79190000  0.06574600  1
  As  As4  1  0.75127300  0.55348500  0.63675600  1
  As  As5  1  0.44651500  0.24872700  0.86324400  1
  As  As6  1  0.24872700  0.44651500  0.36324400  1
  As  As7  1  0.55348500  0.75127300  0.13675600  1
  S  S8  1  0.93324900  0.06675100  0.75000000  1
  S  S9  1  0.06675100  0.93324900  0.25000000  1
  S  S10  1  0.45383900  0.54616100  0.75000000  1
  S  S11  1  0.54616100  0.45383900  0.25000000  1
  S  S12  1  0.88172900  0.49462700  0.83911300  1
  S  S13  1  0.50537300  0.11827100  0.66088700  1
  S  S14  1  0.11827100  0.50537300  0.16088700  1
  S  S15  1  0.49462700  0.88172900  0.33911300  1
