# generated using pymatgen
data_Zn2In2S5
_symmetry_space_group_name_H-M   'P 1'
_cell_length_a   15.79556631
_cell_length_b   15.79556631
_cell_length_c   15.79556578
_cell_angle_alpha   14.26324642
_cell_angle_beta   14.26324642
_cell_angle_gamma   14.26324491
_symmetry_Int_Tables_number   1
_chemical_formula_structural   Zn2In2S5
_chemical_formula_sum   'Zn2 In2 S5'
_cell_volume   208.24505605
_cell_formula_units_Z   1
loop_
 _symmetry_equiv_pos_site_id
 _symmetry_equiv_pos_as_xyz
  1  'x, y, z'
loop_
 _atom_site_type_symbol
 _atom_site_label
 _atom_site_symmetry_multiplicity
 _atom_site_fract_x
 _atom_site_fract_y
 _atom_site_fract_z
 _atom_site_occupancy
  Zn  Zn0  1  0.68819600  0.68819600  0.68819600  1
  Zn  Zn1  1  0.51713300  0.51713300  0.51713300  1
  In  In2  1  0.10390400  0.10390400  0.10390400  1
  In  In3  1  0.92226500  0.92226500  0.92226500  1
  S  S4  1  0.00824000  0.00824000  0.00824000  1
  S  S5  1  0.46922600  0.46922600  0.46922600  1
  S  S6  1  0.61117400  0.61117400  0.61117400  1
  S  S7  1  0.74298400  0.74298400  0.74298400  1
  S  S8  1  0.86887800  0.86887800  0.86887800  1
