# generated using pymatgen
data_PH6CNO3
_symmetry_space_group_name_H-M   'P 1'
_cell_length_a   9.19597800
_cell_length_b   9.24782500
_cell_length_c   10.18125100
_cell_angle_alpha   90.00000000
_cell_angle_beta   90.00000000
_cell_angle_gamma   90.00000000
_symmetry_Int_Tables_number   1
_chemical_formula_structural   PH6CNO3
_chemical_formula_sum   'P8 H48 C8 N8 O24'
_cell_volume   865.84204416
_cell_formula_units_Z   8
loop_
 _symmetry_equiv_pos_site_id
 _symmetry_equiv_pos_as_xyz
  1  'x, y, z'
loop_
 _atom_site_type_symbol
 _atom_site_label
 _atom_site_symmetry_multiplicity
 _atom_site_fract_x
 _atom_site_fract_y
 _atom_site_fract_z
 _atom_site_occupancy
  P  P0  1  0.23486400  0.12736400  0.06282900  1
  P  P1  1  0.73486400  0.37263600  0.93717100  1
  P  P2  1  0.76513600  0.62736400  0.43717100  1
  P  P3  1  0.26513600  0.87263600  0.56282900  1
  P  P4  1  0.76513600  0.87263600  0.93717100  1
  P  P5  1  0.26513600  0.62736400  0.06282900  1
  P  P6  1  0.23486400  0.37263600  0.56282900  1
  P  P7  1  0.73486400  0.12736400  0.43717100  1
  H  H8  1  0.18244200  0.00799600  0.32293800  1
  H  H9  1  0.68244200  0.49200400  0.67706200  1
  H  H10  1  0.81755800  0.50799600  0.17706200  1
  H  H11  1  0.31755800  0.99200400  0.82293800  1
  H  H12  1  0.81755800  0.99200400  0.67706200  1
  H  H13  1  0.31755800  0.50799600  0.32293800  1
  H  H14  1  0.18244200  0.49200400  0.82293800  1
  H  H15  1  0.68244200  0.00799600  0.17706200  1
  H  H16  1  0.00876200  0.05458100  0.35429000  1
  H  H17  1  0.50876200  0.44541900  0.64571000  1
  H  H18  1  0.99123800  0.55458100  0.14571000  1
  H  H19  1  0.49123800  0.94541900  0.85429000  1
  H  H20  1  0.99123800  0.94541900  0.64571000  1
  H  H21  1  0.49123800  0.55458100  0.35429000  1
  H  H22  1  0.00876200  0.44541900  0.85429000  1
  H  H23  1  0.50876200  0.05458100  0.14571000  1
  H  H24  1  0.14025100  0.18478100  0.34826400  1
  H  H25  1  0.64025100  0.31521900  0.65173600  1
  H  H26  1  0.85974900  0.68478100  0.15173600  1
  H  H27  1  0.35974900  0.81521900  0.84826400  1
  H  H28  1  0.85974900  0.81521900  0.65173600  1
  H  H29  1  0.35974900  0.68478100  0.34826400  1
  H  H30  1  0.14025100  0.31521900  0.84826400  1
  H  H31  1  0.64025100  0.18478100  0.15173600  1
  H  H32  1  0.00894500  0.01073400  0.12976300  1
  H  H33  1  0.50894500  0.48926600  0.87023700  1
  H  H34  1  0.99105500  0.51073400  0.37023700  1
  H  H35  1  0.49105500  0.98926600  0.62976300  1
  H  H36  1  0.99105500  0.98926600  0.87023700  1
  H  H37  1  0.49105500  0.51073400  0.12976300  1
  H  H38  1  0.00894500  0.48926600  0.62976300  1
  H  H39  1  0.50894500  0.01073400  0.37023700  1
  H  H40  1  0.00048300  0.20094000  0.15234200  1
  H  H41  1  0.50048300  0.29906000  0.84765800  1
  H  H42  1  0.99951700  0.70094000  0.34765800  1
  H  H43  1  0.49951700  0.79906000  0.65234200  1
  H  H44  1  0.99951700  0.79906000  0.84765800  1
  H  H45  1  0.49951700  0.70094000  0.15234200  1
  H  H46  1  0.00048300  0.29906000  0.65234200  1
  H  H47  1  0.50048300  0.20094000  0.34765800  1
  H  H48  1  0.25202100  0.35895600  0.11054800  1
  H  H49  1  0.75202100  0.14104400  0.88945200  1
  H  H50  1  0.74797900  0.85895600  0.38945200  1
  H  H51  1  0.24797900  0.64104400  0.61054800  1
  H  H52  1  0.74797900  0.64104400  0.88945200  1
  H  H53  1  0.24797900  0.85895600  0.11054800  1
  H  H54  1  0.25202100  0.14104400  0.61054800  1
  H  H55  1  0.75202100  0.35895600  0.38945200  1
  C  C56  1  0.07078400  0.10571600  0.16299800  1
  C  C57  1  0.57078400  0.39428400  0.83700200  1
  C  C58  1  0.92921600  0.60571600  0.33700200  1
  C  C59  1  0.42921600  0.89428400  0.66299800  1
  C  C60  1  0.92921600  0.89428400  0.83700200  1
  C  C61  1  0.42921600  0.60571600  0.16299800  1
  C  C62  1  0.07078400  0.39428400  0.66299800  1
  C  C63  1  0.57078400  0.10571600  0.33700200  1
  N  N64  1  0.10439800  0.08721300  0.30563300  1
  N  N65  1  0.60439800  0.41278700  0.69436700  1
  N  N66  1  0.89560200  0.58721300  0.19436700  1
  N  N67  1  0.39560200  0.91278700  0.80563300  1
  N  N68  1  0.89560200  0.91278700  0.69436700  1
  N  N69  1  0.39560200  0.58721300  0.30563300  1
  N  N70  1  0.10439800  0.41278700  0.80563300  1
  N  N71  1  0.60439800  0.08721300  0.19436700  1
  O  O72  1  0.33484400  0.99931100  0.09480400  1
  O  O73  1  0.83484400  0.50068900  0.90519600  1
  O  O74  1  0.66515600  0.49931100  0.40519600  1
  O  O75  1  0.16515600  0.00068900  0.59480400  1
  O  O76  1  0.66515600  0.00068900  0.90519600  1
  O  O77  1  0.16515600  0.49931100  0.09480400  1
  O  O78  1  0.33484400  0.50068900  0.59480400  1
  O  O79  1  0.83484400  0.99931100  0.40519600  1
  O  O80  1  0.31336700  0.26612300  0.12125900  1
  O  O81  1  0.81336700  0.23387700  0.87874100  1
  O  O82  1  0.68663300  0.76612300  0.37874100  1
  O  O83  1  0.18663300  0.73387700  0.62125900  1
  O  O84  1  0.68663300  0.73387700  0.87874100  1
  O  O85  1  0.18663300  0.76612300  0.12125900  1
  O  O86  1  0.31336700  0.23387700  0.62125900  1
  O  O87  1  0.81336700  0.26612300  0.37874100  1
  O  O88  1  0.19170300  0.14457100  0.92012300  1
  O  O89  1  0.69170300  0.35542900  0.07987700  1
  O  O90  1  0.80829700  0.64457100  0.57987700  1
  O  O91  1  0.30829700  0.85542900  0.42012300  1
  O  O92  1  0.80829700  0.85542900  0.07987700  1
  O  O93  1  0.30829700  0.64457100  0.92012300  1
  O  O94  1  0.19170300  0.35542900  0.42012300  1
  O  O95  1  0.69170300  0.14457100  0.57987700  1
