# generated using pymatgen
data_LaH6Au3C6(N2O)3
_symmetry_space_group_name_H-M   'P 1'
_cell_length_a   6.80452431
_cell_length_b   6.80452431
_cell_length_c   18.79716500
_cell_angle_alpha   90.00000000
_cell_angle_beta   90.00000000
_cell_angle_gamma   120.00000299
_symmetry_Int_Tables_number   1
_chemical_formula_structural   LaH6Au3C6(N2O)3
_chemical_formula_sum   'La2 H12 Au6 C12 N12 O6'
_cell_volume   753.73470416
_cell_formula_units_Z   2
loop_
 _symmetry_equiv_pos_site_id
 _symmetry_equiv_pos_as_xyz
  1  'x, y, z'
loop_
 _atom_site_type_symbol
 _atom_site_label
 _atom_site_symmetry_multiplicity
 _atom_site_fract_x
 _atom_site_fract_y
 _atom_site_fract_z
 _atom_site_occupancy
  La  La0  1  0.00000000  0.00000000  0.25000000  1
  La  La1  1  0.00000000  0.00000000  0.75000000  1
  H  H2  1  0.46021300  0.00000000  0.29161500  1
  H  H3  1  0.46021300  0.46021300  0.79161500  1
  H  H4  1  0.00000000  0.53978700  0.79161500  1
  H  H5  1  0.00000000  0.46021300  0.29161500  1
  H  H6  1  0.53978700  0.53978700  0.29161500  1
  H  H7  1  0.46021300  0.00000000  0.20838500  1
  H  H8  1  0.53978700  0.53978700  0.20838500  1
  H  H9  1  0.53978700  0.00000000  0.79161500  1
  H  H10  1  0.00000000  0.46021300  0.20838500  1
  H  H11  1  0.00000000  0.53978700  0.70838500  1
  H  H12  1  0.53978700  0.00000000  0.70838500  1
  H  H13  1  0.46021300  0.46021300  0.70838500  1
  Au  Au14  1  0.50000000  0.50000000  0.00000000  1
  Au  Au15  1  0.00000000  0.50000000  0.50000000  1
  Au  Au16  1  0.50000000  0.00000000  0.50000000  1
  Au  Au17  1  0.50000000  0.00000000  0.00000000  1
  Au  Au18  1  0.00000000  0.50000000  0.00000000  1
  Au  Au19  1  0.50000000  0.50000000  0.50000000  1
  C  C20  1  0.35946000  0.35946000  0.09311200  1
  C  C21  1  0.00000000  0.35946000  0.59311200  1
  C  C22  1  0.35946000  0.00000000  0.59311200  1
  C  C23  1  0.64054000  0.00000000  0.09311200  1
  C  C24  1  0.00000000  0.64054000  0.09311200  1
  C  C25  1  0.00000000  0.64054000  0.40688800  1
  C  C26  1  0.64054000  0.00000000  0.40688800  1
  C  C27  1  0.64054000  0.64054000  0.59311200  1
  C  C28  1  0.35946000  0.35946000  0.40688800  1
  C  C29  1  0.64054000  0.64054000  0.90688800  1
  C  C30  1  0.00000000  0.35946000  0.90688800  1
  C  C31  1  0.35946000  0.00000000  0.90688800  1
  N  N32  1  0.27551500  0.27551500  0.14767500  1
  N  N33  1  0.00000000  0.27551500  0.64767500  1
  N  N34  1  0.27551500  0.00000000  0.64767500  1
  N  N35  1  0.72448500  0.00000000  0.14767500  1
  N  N36  1  0.00000000  0.72448500  0.14767500  1
  N  N37  1  0.00000000  0.72448500  0.35232500  1
  N  N38  1  0.72448500  0.00000000  0.35232500  1
  N  N39  1  0.72448500  0.72448500  0.64767500  1
  N  N40  1  0.27551500  0.27551500  0.35232500  1
  N  N41  1  0.72448500  0.72448500  0.85232500  1
  N  N42  1  0.00000000  0.27551500  0.85232500  1
  N  N43  1  0.27551500  0.00000000  0.85232500  1
  O  O44  1  0.37351100  0.00000000  0.25000000  1
  O  O45  1  0.37351100  0.37351100  0.75000000  1
  O  O46  1  0.00000000  0.62648900  0.75000000  1
  O  O47  1  0.00000000  0.37351100  0.25000000  1
  O  O48  1  0.62648900  0.62648900  0.25000000  1
  O  O49  1  0.62648900  0.00000000  0.75000000  1
