# generated using pymatgen
data_Ba14Na17CaN6
_symmetry_space_group_name_H-M   'P 1'
_cell_length_a   11.17379600
_cell_length_b   12.04399397
_cell_length_c   13.72688498
_cell_angle_alpha   66.68601634
_cell_angle_beta   67.61054678
_cell_angle_gamma   78.80058851
_symmetry_Int_Tables_number   1
_chemical_formula_structural   Ba14Na17CaN6
_chemical_formula_sum   'Ba14 Na17 Ca1 N6'
_cell_volume   1566.54504350
_cell_formula_units_Z   1
loop_
 _symmetry_equiv_pos_site_id
 _symmetry_equiv_pos_as_xyz
  1  'x, y, z'
loop_
 _atom_site_type_symbol
 _atom_site_label
 _atom_site_symmetry_multiplicity
 _atom_site_fract_x
 _atom_site_fract_y
 _atom_site_fract_z
 _atom_site_occupancy
  Ba  Ba0  1  0.36922800  0.77911000  0.44566300  1
  Ba  Ba1  1  0.63077200  0.22089000  0.55433700  1
  Ba  Ba2  1  0.27638800  0.30901500  0.69651800  1
  Ba  Ba3  1  0.72361200  0.69098500  0.30348200  1
  Ba  Ba4  1  0.26263400  0.52082600  0.40571200  1
  Ba  Ba5  1  0.73736600  0.47917400  0.59428800  1
  Ba  Ba6  1  0.38476900  0.56886800  0.73358400  1
  Ba  Ba7  1  0.61523100  0.43113200  0.26641600  1
  Ba  Ba8  1  0.34192600  0.16245800  0.45656700  1
  Ba  Ba9  1  0.65807400  0.83754200  0.54343300  1
  Ba  Ba10  1  0.47629800  0.78870900  0.11932000  1
  Ba  Ba11  1  0.52370200  0.21129100  0.88068000  1
  Ba  Ba12  1  0.03016100  0.61820700  0.67768400  1
  Ba  Ba13  1  0.96983900  0.38179300  0.32231600  1
  Na  Na14  1  0.00000000  0.00000000  0.50000000  1
  Na  Na15  1  0.23658300  0.09581700  0.20904600  1
  Na  Na16  1  0.76341700  0.90418300  0.79095400  1
  Na  Na17  1  0.63057600  0.59885900  0.89460100  1
  Na  Na18  1  0.36942400  0.40114100  0.10539900  1
  Na  Na19  1  0.04035600  0.81550000  0.31115700  1
  Na  Na20  1  0.95964400  0.18450000  0.68884300  1
  Na  Na21  1  0.13611300  0.89264500  0.75418900  1
  Na  Na22  1  0.86388700  0.10735500  0.24581100  1
  Na  Na23  1  0.58713600  0.08617600  0.18680000  1
  Na  Na24  1  0.41286400  0.91382400  0.81320000  1
  Na  Na25  1  0.90480700  0.64508100  0.98446300  1
  Na  Na26  1  0.09519300  0.35491900  0.01553700  1
  Na  Na27  1  0.85215100  0.97163300  0.99162600  1
  Na  Na28  1  0.14784900  0.02836700  0.00837400  1
  Na  Na29  1  0.16906900  0.68937600  0.05595500  1
  Na  Na30  1  0.83093100  0.31062400  0.94404500  1
  Ca  Ca31  1  0.50000000  0.50000000  0.50000000  1
  N  N32  1  0.48818900  0.64195700  0.30688800  1
  N  N33  1  0.51181100  0.35804300  0.69311200  1
  N  N34  1  0.42640600  0.32714200  0.47603900  1
  N  N35  1  0.57359400  0.67285800  0.52396100  1
  N  N36  1  0.73660000  0.44108600  0.40672600  1
  N  N37  1  0.26340000  0.55891400  0.59327400  1
