# generated using pymatgen
data_SeN
_symmetry_space_group_name_H-M   'P 1'
_cell_length_a   7.90360600
_cell_length_b   9.24748300
_cell_length_c   12.95086306
_cell_angle_alpha   48.10623466
_cell_angle_beta   90.00000000
_cell_angle_gamma   90.00000000
_symmetry_Int_Tables_number   1
_chemical_formula_structural   SeN
_chemical_formula_sum   'Se16 N16'
_cell_volume   704.60332585
_cell_formula_units_Z   16
loop_
 _symmetry_equiv_pos_site_id
 _symmetry_equiv_pos_as_xyz
  1  'x, y, z'
loop_
 _atom_site_type_symbol
 _atom_site_label
 _atom_site_symmetry_multiplicity
 _atom_site_fract_x
 _atom_site_fract_y
 _atom_site_fract_z
 _atom_site_occupancy
  Se  Se0  1  0.71029300  0.43713900  0.15335400  1
  Se  Se1  1  0.21029300  0.56286100  0.34664600  1
  Se  Se2  1  0.28970700  0.56286100  0.84664600  1
  Se  Se3  1  0.78970700  0.43713900  0.65335400  1
  Se  Se4  1  0.79189100  0.69350300  0.84961500  1
  Se  Se5  1  0.29189100  0.30649700  0.65038500  1
  Se  Se6  1  0.20810900  0.30649700  0.15038500  1
  Se  Se7  1  0.70810900  0.69350300  0.34961500  1
  Se  Se8  1  0.54512800  0.80053400  0.96584700  1
  Se  Se9  1  0.04512800  0.19946600  0.53415300  1
  Se  Se10  1  0.45487200  0.19946600  0.03415300  1
  Se  Se11  1  0.95487200  0.80053400  0.46584700  1
  Se  Se12  1  0.92232100  0.79938600  0.99457900  1
  Se  Se13  1  0.42232100  0.20061400  0.50542100  1
  Se  Se14  1  0.07767900  0.20061400  0.00542100  1
  Se  Se15  1  0.57767900  0.79938600  0.49457900  1
  N  N16  1  0.76091400  0.44801700  0.01198400  1
  N  N17  1  0.26091400  0.55198300  0.48801600  1
  N  N18  1  0.23908600  0.55198300  0.98801600  1
  N  N19  1  0.73908600  0.44801700  0.51198400  1
  N  N20  1  0.59488800  0.81214200  0.82389900  1
  N  N21  1  0.09488800  0.18785800  0.67610100  1
  N  N22  1  0.40511200  0.18785800  0.17610100  1
  N  N23  1  0.90511200  0.81214200  0.32389900  1
  N  N24  1  0.72464500  0.91695700  0.97001200  1
  N  N25  1  0.22464500  0.08304300  0.52998800  1
  N  N26  1  0.27535500  0.08304300  0.02998800  1
  N  N27  1  0.77535500  0.91695700  0.47001200  1
  N  N28  1  0.89014500  0.55338200  0.15726900  1
  N  N29  1  0.39014500  0.44661800  0.34273100  1
  N  N30  1  0.10985500  0.44661800  0.84273100  1
  N  N31  1  0.60985500  0.55338200  0.65726900  1
