# generated using pymatgen
data_Cs3B12H12Br
_symmetry_space_group_name_H-M   'P 1'
_cell_length_a   7.32989835
_cell_length_b   7.32989835
_cell_length_c   7.32989768
_cell_angle_alpha   92.99512910
_cell_angle_beta   92.99512910
_cell_angle_gamma   92.99513063
_symmetry_Int_Tables_number   1
_chemical_formula_structural   Cs3B12H12Br
_chemical_formula_sum   'Cs3 B12 H12 Br1'
_cell_volume   392.14390481
_cell_formula_units_Z   1
loop_
 _symmetry_equiv_pos_site_id
 _symmetry_equiv_pos_as_xyz
  1  'x, y, z'
loop_
 _atom_site_type_symbol
 _atom_site_label
 _atom_site_symmetry_multiplicity
 _atom_site_fract_x
 _atom_site_fract_y
 _atom_site_fract_z
 _atom_site_occupancy
  Cs  Cs0  1  0.50000000  0.50000000  0.00000000  1
  Cs  Cs1  1  0.50000000  0.00000000  0.50000000  1
  Cs  Cs2  1  0.00000000  0.50000000  0.50000000  1
  B  B3  1  0.77641100  0.94369600  0.94369600  1
  B  B4  1  0.94369600  0.94369600  0.77641100  1
  B  B5  1  0.94369600  0.77641100  0.94369600  1
  B  B6  1  0.05630400  0.22358900  0.05630400  1
  B  B7  1  0.22358900  0.05630400  0.05630400  1
  B  B8  1  0.05630400  0.05630400  0.22358900  1
  B  B9  1  0.84599300  0.11681800  0.11681800  1
  B  B10  1  0.11681800  0.11681800  0.84599300  1
  B  B11  1  0.11681800  0.84599300  0.11681800  1
  B  B12  1  0.88318200  0.15400700  0.88318200  1
  B  B13  1  0.15400700  0.88318200  0.88318200  1
  B  B14  1  0.88318200  0.88318200  0.15400700  1
  H  H15  1  0.38281500  0.09553300  0.09553300  1
  H  H16  1  0.09553300  0.09553300  0.38281500  1
  H  H17  1  0.09553300  0.38281500  0.09553300  1
  H  H18  1  0.90446700  0.61718500  0.90446700  1
  H  H19  1  0.61718500  0.90446700  0.90446700  1
  H  H20  1  0.90446700  0.90446700  0.61718500  1
  H  H21  1  0.73706200  0.20072900  0.20072900  1
  H  H22  1  0.20072900  0.20072900  0.73706200  1
  H  H23  1  0.20072900  0.73706200  0.20072900  1
  H  H24  1  0.79927100  0.26293800  0.79927100  1
  H  H25  1  0.26293800  0.79927100  0.79927100  1
  H  H26  1  0.79927100  0.79927100  0.26293800  1
  Br  Br27  1  0.50000000  0.50000000  0.50000000  1
