# generated using pymatgen
data_K2Cr4O13
_symmetry_space_group_name_H-M   'P 1'
_cell_length_a   7.70193900
_cell_length_b   8.94250200
_cell_length_c   9.55354657
_cell_angle_alpha   87.49509459
_cell_angle_beta   90.00000000
_cell_angle_gamma   90.00000000
_symmetry_Int_Tables_number   1
_chemical_formula_structural   K2Cr4O13
_chemical_formula_sum   'K4 Cr8 O26'
_cell_volume   657.36801886
_cell_formula_units_Z   2
loop_
 _symmetry_equiv_pos_site_id
 _symmetry_equiv_pos_as_xyz
  1  'x, y, z'
loop_
 _atom_site_type_symbol
 _atom_site_label
 _atom_site_symmetry_multiplicity
 _atom_site_fract_x
 _atom_site_fract_y
 _atom_site_fract_z
 _atom_site_occupancy
  K  K0  1  0.59360600  0.80334300  0.75747000  1
  K  K1  1  0.40639400  0.80334300  0.25747000  1
  K  K2  1  0.10382500  0.54413900  0.89611900  1
  K  K3  1  0.89617500  0.54413900  0.39611900  1
  Cr  Cr4  1  0.57155000  0.51534300  0.03225800  1
  Cr  Cr5  1  0.42845000  0.51534300  0.53225800  1
  Cr  Cr6  1  0.56610600  0.17179200  0.98710000  1
  Cr  Cr7  1  0.43389400  0.17179200  0.48710000  1
  Cr  Cr8  1  0.89252100  0.18066000  0.75590900  1
  Cr  Cr9  1  0.10747900  0.18066000  0.25590900  1
  Cr  Cr10  1  0.07038300  0.85766300  0.63179800  1
  Cr  Cr11  1  0.92961700  0.85766300  0.13179800  1
  O  O12  1  0.74144500  0.53201700  0.93168700  1
  O  O13  1  0.25855500  0.53201700  0.43168700  1
  O  O14  1  0.45662300  0.34196700  0.99237100  1
  O  O15  1  0.54337700  0.34196700  0.49237100  1
  O  O16  1  0.43872900  0.65516600  0.99978400  1
  O  O17  1  0.56127100  0.65516600  0.49978400  1
  O  O18  1  0.62696200  0.51089500  0.19622800  1
  O  O19  1  0.37303800  0.51089500  0.69622800  1
  O  O20  1  0.43070200  0.03569700  0.00410600  1
  O  O21  1  0.56929800  0.03569700  0.50410600  1
  O  O22  1  0.70135100  0.16322300  0.11358600  1
  O  O23  1  0.29864900  0.16322300  0.61358600  1
  O  O24  1  0.67752700  0.15968100  0.82549500  1
  O  O25  1  0.32247300  0.15968100  0.32549500  1
  O  O26  1  0.89721800  0.32881000  0.65483500  1
  O  O27  1  0.10278200  0.32881000  0.15483500  1
  O  O28  1  0.02768700  0.20228700  0.87990400  1
  O  O29  1  0.97231300  0.20228700  0.37990400  1
  O  O30  1  0.15055300  0.87082900  0.47429600  1
  O  O31  1  0.84944700  0.87082900  0.97429600  1
  O  O32  1  0.22544600  0.83627100  0.74598400  1
  O  O33  1  0.77455400  0.83627100  0.24598400  1
  O  O34  1  0.93820900  0.02344500  0.66455500  1
  O  O35  1  0.06179100  0.02344500  0.16455500  1
  O  O36  1  0.94011100  0.71322000  0.64685500  1
  O  O37  1  0.05988900  0.71322000  0.14685500  1
