data_image0
_chemical_formula_structural       Hf8Ni21
_chemical_formula_sum              "Hf8 Ni21"
_cell_length_a       6.34893
_cell_length_b       7.87716
_cell_length_c       8.44305
_cell_angle_alpha    75.1959
_cell_angle_beta     68.0862
_cell_angle_gamma    75.591

_space_group_name_H-M_alt    "P 1"
_space_group_IT_number       1

loop_
  _space_group_symop_operation_xyz
  'x, y, z'

loop_
  _atom_site_type_symbol
  _atom_site_label
  _atom_site_symmetry_multiplicity
  _atom_site_fract_x
  _atom_site_fract_y
  _atom_site_fract_z
  _atom_site_occupancy
  Hf  Hf1       1.0  0.25000  0.06290  0.10600  1.0000
  Hf  Hf2       1.0  0.75000  0.93700  0.89400  1.0000
  Hf  Hf3       1.0  0.43100  0.46200  0.25500  1.0000
  Hf  Hf4       1.0  0.56900  0.53800  0.74500  1.0000
  Hf  Hf5       1.0  0.07020  0.40300  0.81300  1.0000
  Hf  Hf6       1.0  0.93000  0.59700  0.18700  1.0000
  Hf  Hf7       1.0  0.24600  0.93700  0.53500  1.0000
  Hf  Hf8       1.0  0.75400  0.06290  0.46500  1.0000
  Ni  Ni1       1.0  0.48400  0.88500  0.74200  1.0000
  Ni  Ni2       1.0  0.51600  0.11500  0.25800  1.0000
  Ni  Ni3       1.0  0.00000  0.50000  0.50000  1.0000
  Ni  Ni4       1.0  0.30600  0.74400  0.04090  1.0000
  Ni  Ni5       1.0  0.69400  0.25600  0.95900  1.0000
  Ni  Ni6       1.0  0.09980  0.78400  0.34500  1.0000
  Ni  Ni7       1.0  0.90000  0.21600  0.65500  1.0000
  Ni  Ni8       1.0  0.48300  0.20700  0.77600  1.0000
  Ni  Ni9       1.0  0.51700  0.79300  0.22400  1.0000
  Ni  Ni10      1.0  0.32000  0.24200  0.54900  1.0000
  Ni  Ni11      1.0  0.68000  0.75800  0.45100  1.0000
  Ni  Ni12      1.0  0.11700  0.05420  0.85100  1.0000
  Ni  Ni13      1.0  0.88300  0.94600  0.14900  1.0000
  Ni  Ni14      1.0  0.31800  0.59900  0.53600  1.0000
  Ni  Ni15      1.0  0.68200  0.40100  0.46400  1.0000
  Ni  Ni16      1.0  0.13500  0.71100  0.84400  1.0000
  Ni  Ni17      1.0  0.86500  0.28900  0.15600  1.0000
  Ni  Ni18      1.0  0.09940  0.25800  0.34600  1.0000
  Ni  Ni19      1.0  0.90100  0.74200  0.65400  1.0000
  Ni  Ni20      1.0  0.28600  0.39300  0.02750  1.0000
  Ni  Ni21      1.0  0.71400  0.60700  0.97200  1.0000
