# generated using pymatgen
data_Sr2Mn3(BiO)2
_symmetry_space_group_name_H-M   'P 1'
_cell_length_a   11.04421630
_cell_length_b   11.04421630
_cell_length_c   11.04421630
_cell_angle_alpha   157.13799689
_cell_angle_beta   157.13799689
_cell_angle_gamma   32.55380419
_symmetry_Int_Tables_number   1
_chemical_formula_structural   Sr2Mn3(BiO)2
_chemical_formula_sum   'Sr2 Mn3 Bi2 O2'
_cell_volume   203.16667112
_cell_formula_units_Z   1
loop_
 _symmetry_equiv_pos_site_id
 _symmetry_equiv_pos_as_xyz
  1  'x, y, z'
loop_
 _atom_site_type_symbol
 _atom_site_label
 _atom_site_symmetry_multiplicity
 _atom_site_fract_x
 _atom_site_fract_y
 _atom_site_fract_z
 _atom_site_occupancy
  Sr  Sr0  1  0.57556900  0.57556900  0.00000000  1
  Sr  Sr1  1  0.42443100  0.42443100  0.00000000  1
  Mn  Mn2  1  0.00000000  0.00000000  0.00000000  1
  Mn  Mn3  1  0.25000000  0.75000000  0.50000000  1
  Mn  Mn4  1  0.75000000  0.25000000  0.50000000  1
  Bi  Bi5  1  0.84077200  0.84077200  0.00000000  1
  Bi  Bi6  1  0.15922800  0.15922800  0.00000000  1
  O  O7  1  0.00000000  0.50000000  0.50000000  1
  O  O8  1  0.50000000  0.00000000  0.50000000  1
