# generated using pymatgen
data_NiGe3O8
_symmetry_space_group_name_H-M   'P 1'
_cell_length_a   8.12041800
_cell_length_b   8.12041800
_cell_length_c   8.12041800
_cell_angle_alpha   90.00000000
_cell_angle_beta   90.00000000
_cell_angle_gamma   90.00000000
_symmetry_Int_Tables_number   1
_chemical_formula_structural   NiGe3O8
_chemical_formula_sum   'Ni4 Ge12 O32'
_cell_volume   535.47001399
_cell_formula_units_Z   4
loop_
 _symmetry_equiv_pos_site_id
 _symmetry_equiv_pos_as_xyz
  1  'x, y, z'
loop_
 _atom_site_type_symbol
 _atom_site_label
 _atom_site_symmetry_multiplicity
 _atom_site_fract_x
 _atom_site_fract_y
 _atom_site_fract_z
 _atom_site_occupancy
  Ni  Ni0  1  0.12500000  0.87500000  0.37500000  1
  Ni  Ni1  1  0.37500000  0.12500000  0.87500000  1
  Ni  Ni2  1  0.62500000  0.62500000  0.62500000  1
  Ni  Ni3  1  0.87500000  0.37500000  0.12500000  1
  Ge  Ge4  1  0.12799800  0.12200200  0.62500000  1
  Ge  Ge5  1  0.12500000  0.37200200  0.87799800  1
  Ge  Ge6  1  0.12200200  0.62500000  0.12799800  1
  Ge  Ge7  1  0.37799800  0.37500000  0.62799800  1
  Ge  Ge8  1  0.37500000  0.62799800  0.37799800  1
  Ge  Ge9  1  0.37200200  0.87799800  0.12500000  1
  Ge  Ge10  1  0.62799800  0.37799800  0.37500000  1
  Ge  Ge11  1  0.62500000  0.12799800  0.12200200  1
  Ge  Ge12  1  0.62200200  0.87500000  0.87200200  1
  Ge  Ge13  1  0.87799800  0.12500000  0.37200200  1
  Ge  Ge14  1  0.87500000  0.87200200  0.62200200  1
  Ge  Ge15  1  0.87200200  0.62200200  0.87500000  1
  O  O16  1  0.11548000  0.10795100  0.38707900  1
  O  O17  1  0.11292100  0.88452000  0.60795100  1
  O  O18  1  0.11145100  0.61145100  0.88854900  1
  O  O19  1  0.14204900  0.13452000  0.86292100  1
  O  O20  1  0.10795100  0.38707900  0.11548000  1
  O  O21  1  0.13854900  0.36145100  0.63854900  1
  O  O22  1  0.13707900  0.64204900  0.36548000  1
  O  O23  1  0.13452000  0.86292100  0.14204900  1
  O  O24  1  0.36548000  0.13707900  0.64204900  1
  O  O25  1  0.36292100  0.35795100  0.86548000  1
  O  O26  1  0.36145100  0.63854900  0.13854900  1
  O  O27  1  0.39204900  0.61292100  0.61548000  1
  O  O28  1  0.35795100  0.86548000  0.36292100  1
  O  O29  1  0.38854900  0.38854900  0.38854900  1
  O  O30  1  0.38707900  0.11548000  0.10795100  1
  O  O31  1  0.38452000  0.89204900  0.88707900  1
  O  O32  1  0.61548000  0.39204900  0.61292100  1
  O  O33  1  0.61292100  0.61548000  0.39204900  1
  O  O34  1  0.61145100  0.88854900  0.11145100  1
  O  O35  1  0.64204900  0.36548000  0.13707900  1
  O  O36  1  0.60795100  0.11292100  0.88452000  1
  O  O37  1  0.63854900  0.13854900  0.36145100  1
  O  O38  1  0.63707900  0.85795100  0.63452000  1
  O  O39  1  0.63452000  0.63707900  0.85795100  1
  O  O40  1  0.86548000  0.36292100  0.35795100  1
  O  O41  1  0.86292100  0.14204900  0.13452000  1
  O  O42  1  0.86145100  0.86145100  0.86145100  1
  O  O43  1  0.89204900  0.88707900  0.38452000  1
  O  O44  1  0.85795100  0.63452000  0.63707900  1
  O  O45  1  0.88854900  0.11145100  0.61145100  1
  O  O46  1  0.88707900  0.38452000  0.89204900  1
  O  O47  1  0.88452000  0.60795100  0.11292100  1
