# generated using pymatgen
data_KSO4
_symmetry_space_group_name_H-M   'P 1'
_cell_length_a   5.10300400
_cell_length_b   5.58007763
_cell_length_c   7.60958293
_cell_angle_alpha   103.63847117
_cell_angle_beta   109.35647097
_cell_angle_gamma   87.70350950
_symmetry_Int_Tables_number   1
_chemical_formula_structural   KSO4
_chemical_formula_sum   'K2 S2 O8'
_cell_volume   198.50000966
_cell_formula_units_Z   2
loop_
 _symmetry_equiv_pos_site_id
 _symmetry_equiv_pos_as_xyz
  1  'x, y, z'
loop_
 _atom_site_type_symbol
 _atom_site_label
 _atom_site_symmetry_multiplicity
 _atom_site_fract_x
 _atom_site_fract_y
 _atom_site_fract_z
 _atom_site_occupancy
  K  K0  1  0.57253200  0.80866600  0.24033100  1
  K  K1  1  0.42746800  0.19133400  0.75966900  1
  S  S2  1  0.98092100  0.71654100  0.77055500  1
  S  S3  1  0.01907900  0.28345900  0.22944500  1
  O  O4  1  0.15844500  0.14830300  0.37458200  1
  O  O5  1  0.07264400  0.12607200  0.02710600  1
  O  O6  1  0.84155500  0.85169700  0.62541800  1
  O  O7  1  0.85112600  0.48238400  0.75428600  1
  O  O8  1  0.14887400  0.51761600  0.24571400  1
  O  O9  1  0.71676900  0.28301300  0.18223500  1
  O  O10  1  0.28323100  0.71698700  0.81776500  1
  O  O11  1  0.92735600  0.87392800  0.97289400  1
