# generated using pymatgen
data_Fe4OF7
_symmetry_space_group_name_H-M   'P 1'
_cell_length_a   5.80536700
_cell_length_b   5.81046426
_cell_length_c   10.14560087
_cell_angle_alpha   99.61480342
_cell_angle_beta   100.96095138
_cell_angle_gamma   111.94818172
_symmetry_Int_Tables_number   1
_chemical_formula_structural   Fe4OF7
_chemical_formula_sum   'Fe8 O2 F14'
_cell_volume   300.79430555
_cell_formula_units_Z   2
loop_
 _symmetry_equiv_pos_site_id
 _symmetry_equiv_pos_as_xyz
  1  'x, y, z'
loop_
 _atom_site_type_symbol
 _atom_site_label
 _atom_site_symmetry_multiplicity
 _atom_site_fract_x
 _atom_site_fract_y
 _atom_site_fract_z
 _atom_site_occupancy
  Fe  Fe0  1  0.61454600  0.12827900  0.24485400  1
  Fe  Fe1  1  0.87453700  0.37301600  0.75300500  1
  Fe  Fe2  1  0.25212200  0.26682400  0.49314400  1
  Fe  Fe3  1  0.73886800  0.74531600  0.49538400  1
  Fe  Fe4  1  0.50454300  0.51327400  0.99740700  1
  Fe  Fe5  1  0.38734600  0.87561800  0.75389900  1
  Fe  Fe6  1  0.14249700  0.61688700  0.26082000  1
  Fe  Fe7  1  0.96668600  0.98161400  0.99144900  1
  O  O8  1  0.34569300  0.52845700  0.40694800  1
  O  O9  1  0.61908200  0.81022600  0.90268100  1
  F  F10  1  0.86609200  0.06555300  0.39898800  1
  F  F11  1  0.92069600  0.21619600  0.14505800  1
  F  F12  1  0.57570300  0.27983100  0.85338900  1
  F  F13  1  0.32842100  0.02737700  0.35718300  1
  F  F14  1  0.82009900  0.52390500  0.34778200  1
  F  F15  1  0.92819600  0.71613700  0.10392800  1
  F  F16  1  0.63446100  0.43259200  0.60284200  1
  F  F17  1  0.37038000  0.18675300  0.09340800  1
  F  F18  1  0.08881500  0.28393900  0.90389300  1
  F  F19  1  0.68378400  0.97895200  0.64759400  1
  F  F20  1  0.16868400  0.46595900  0.64760500  1
  F  F21  1  0.43395900  0.72745100  0.15268900  1
  F  F22  1  0.07459100  0.77739300  0.85251000  1
  F  F23  1  0.16237100  0.97101700  0.59662700  1
