# generated using pymatgen
data_ZnCdC4(SeN)4
_symmetry_space_group_name_H-M   'P 1'
_cell_length_a   8.45354470
_cell_length_b   8.45354470
_cell_length_c   8.45354470
_cell_angle_alpha   94.99119324
_cell_angle_beta   94.99119324
_cell_angle_gamma   145.68947475
_symmetry_Int_Tables_number   1
_chemical_formula_structural   ZnCdC4(SeN)4
_chemical_formula_sum   'Zn1 Cd1 C4 Se4 N4'
_cell_volume   325.37355490
_cell_formula_units_Z   1
loop_
 _symmetry_equiv_pos_site_id
 _symmetry_equiv_pos_as_xyz
  1  'x, y, z'
loop_
 _atom_site_type_symbol
 _atom_site_label
 _atom_site_symmetry_multiplicity
 _atom_site_fract_x
 _atom_site_fract_y
 _atom_site_fract_z
 _atom_site_occupancy
  Zn  Zn0  1  0.25000000  0.75000000  0.50000000  1
  Cd  Cd1  1  0.50000000  0.50000000  0.00000000  1
  C  C2  1  0.11271000  0.32617900  0.64699200  1
  C  C3  1  0.53428200  0.88729000  0.21346900  1
  C  C4  1  0.67382100  0.32081400  0.78653100  1
  C  C5  1  0.67918600  0.46571800  0.35300800  1
  Se  Se6  1  0.03159700  0.07849500  0.72786700  1
  Se  Se7  1  0.69627000  0.96840300  0.04689800  1
  Se  Se8  1  0.92150500  0.64937200  0.95310200  1
  Se  Se9  1  0.35062800  0.30373000  0.27213300  1
  N  N10  1  0.15904600  0.48016500  0.59011500  1
  N  N11  1  0.43106900  0.84095400  0.32111900  1
  N  N12  1  0.51983500  0.10995000  0.67888100  1
  N  N13  1  0.89005000  0.56893100  0.40988500  1
