# generated using pymatgen
data_Na4CO4
_symmetry_space_group_name_H-M   'P 1'
_cell_length_a   5.60987160
_cell_length_b   5.60987160
_cell_length_c   5.60987160
_cell_angle_alpha   128.88416662
_cell_angle_beta   128.88416662
_cell_angle_gamma   75.19702604
_symmetry_Int_Tables_number   1
_chemical_formula_structural   Na4CO4
_chemical_formula_sum   'Na4 C1 O4'
_cell_volume   104.14022032
_cell_formula_units_Z   1
loop_
 _symmetry_equiv_pos_site_id
 _symmetry_equiv_pos_as_xyz
  1  'x, y, z'
loop_
 _atom_site_type_symbol
 _atom_site_label
 _atom_site_symmetry_multiplicity
 _atom_site_fract_x
 _atom_site_fract_y
 _atom_site_fract_z
 _atom_site_occupancy
  Na  Na0  1  0.84367300  0.44381600  0.00000000  1
  Na  Na1  1  0.55618400  0.55618400  0.39985700  1
  Na  Na2  1  0.15632700  0.15632700  0.60014300  1
  Na  Na3  1  0.44381600  0.84367300  0.00000000  1
  C  C4  1  0.00000000  0.00000000  0.00000000  1
  O  O5  1  0.07382600  0.73423700  0.00000000  1
  O  O6  1  0.26576300  0.26576300  0.33958900  1
  O  O7  1  0.92617400  0.92617400  0.66041100  1
  O  O8  1  0.73423700  0.07382600  0.00000000  1
