# generated using pymatgen
data_CdFeC5N6O
_symmetry_space_group_name_H-M   'P 1'
_cell_length_a   7.59733000
_cell_length_b   11.24654200
_cell_length_c   14.14039600
_cell_angle_alpha   90.00000000
_cell_angle_beta   90.00000000
_cell_angle_gamma   90.00000000
_symmetry_Int_Tables_number   1
_chemical_formula_structural   CdFeC5N6O
_chemical_formula_sum   'Cd4 Fe4 C20 N24 O4'
_cell_volume   1208.20762549
_cell_formula_units_Z   4
loop_
 _symmetry_equiv_pos_site_id
 _symmetry_equiv_pos_as_xyz
  1  'x, y, z'
loop_
 _atom_site_type_symbol
 _atom_site_label
 _atom_site_symmetry_multiplicity
 _atom_site_fract_x
 _atom_site_fract_y
 _atom_site_fract_z
 _atom_site_occupancy
  Cd  Cd0  1  0.25000000  0.36487400  0.32155700  1
  Cd  Cd1  1  0.75000000  0.63512600  0.67844300  1
  Cd  Cd2  1  0.75000000  0.86487400  0.17844300  1
  Cd  Cd3  1  0.25000000  0.13512600  0.82155700  1
  Fe  Fe4  1  0.25000000  0.81148800  0.44630400  1
  Fe  Fe5  1  0.75000000  0.18851200  0.55369600  1
  Fe  Fe6  1  0.75000000  0.31148800  0.05369600  1
  Fe  Fe7  1  0.25000000  0.68851200  0.94630400  1
  C  C8  1  0.25000000  0.65077500  0.39858400  1
  C  C9  1  0.75000000  0.34922500  0.60141600  1
  C  C10  1  0.75000000  0.15077500  0.10141600  1
  C  C11  1  0.25000000  0.84922500  0.89858400  1
  C  C12  1  0.42985300  0.75411700  0.53183000  1
  C  C13  1  0.92985300  0.24588300  0.46817000  1
  C  C14  1  0.57014700  0.25411700  0.96817000  1
  C  C15  1  0.07014700  0.74588300  0.03183000  1
  C  C16  1  0.57014700  0.24588300  0.46817000  1
  C  C17  1  0.07014700  0.75411700  0.53183000  1
  C  C18  1  0.42985300  0.74588300  0.03183000  1
  C  C19  1  0.92985300  0.25411700  0.96817000  1
  C  C20  1  0.42995600  0.83780200  0.35169100  1
  C  C21  1  0.92995600  0.16219800  0.64830900  1
  C  C22  1  0.57004400  0.33780200  0.14830900  1
  C  C23  1  0.07004400  0.66219800  0.85169100  1
  C  C24  1  0.57004400  0.16219800  0.64830900  1
  C  C25  1  0.07004400  0.83780200  0.35169100  1
  C  C26  1  0.42995600  0.66219800  0.85169100  1
  C  C27  1  0.92995600  0.33780200  0.14830900  1
  N  N28  1  0.25000000  0.55389100  0.36920200  1
  N  N29  1  0.75000000  0.44610900  0.63079800  1
  N  N30  1  0.75000000  0.05389100  0.13079800  1
  N  N31  1  0.25000000  0.94610900  0.86920200  1
  N  N32  1  0.54035100  0.72103500  0.58278900  1
  N  N33  1  0.04035100  0.27896500  0.41721100  1
  N  N34  1  0.45964900  0.22103500  0.91721100  1
  N  N35  1  0.95964900  0.77896500  0.08278900  1
  N  N36  1  0.45964900  0.27896500  0.41721100  1
  N  N37  1  0.95964900  0.72103500  0.58278900  1
  N  N38  1  0.54035100  0.77896500  0.08278900  1
  N  N39  1  0.04035100  0.22103500  0.91721100  1
  N  N40  1  0.54032400  0.85379200  0.29567300  1
  N  N41  1  0.04032400  0.14620800  0.70432700  1
  N  N42  1  0.45967600  0.35379200  0.20432700  1
  N  N43  1  0.95967600  0.64620800  0.79567300  1
  N  N44  1  0.45967600  0.14620800  0.70432700  1
  N  N45  1  0.95967600  0.85379200  0.29567300  1
  N  N46  1  0.54032400  0.64620800  0.79567300  1
  N  N47  1  0.04032400  0.35379200  0.20432700  1
  N  N48  1  0.25000000  0.95011400  0.48693400  1
  N  N49  1  0.75000000  0.04988600  0.51306600  1
  N  N50  1  0.75000000  0.45011400  0.01306600  1
  N  N51  1  0.25000000  0.54988600  0.98693400  1
  O  O52  1  0.25000000  0.04619800  0.51470600  1
  O  O53  1  0.75000000  0.95380200  0.48529400  1
  O  O54  1  0.75000000  0.54619800  0.98529400  1
  O  O55  1  0.25000000  0.45380200  0.01470600  1
