# generated using pymatgen
data_KClO4
_symmetry_space_group_name_H-M   'P 1'
_cell_length_a   5.39453036
_cell_length_b   5.39453036
_cell_length_c   5.39453036
_cell_angle_alpha   60.00000000
_cell_angle_beta   60.00000000
_cell_angle_gamma   60.00000000
_symmetry_Int_Tables_number   1
_chemical_formula_structural   KClO4
_chemical_formula_sum   'K1 Cl1 O4'
_cell_volume   111.00586552
_cell_formula_units_Z   1
loop_
 _symmetry_equiv_pos_site_id
 _symmetry_equiv_pos_as_xyz
  1  'x, y, z'
loop_
 _atom_site_type_symbol
 _atom_site_label
 _atom_site_symmetry_multiplicity
 _atom_site_fract_x
 _atom_site_fract_y
 _atom_site_fract_z
 _atom_site_occupancy
  K  K0  1  0.00000000  0.00000000  0.00000000  1
  Cl  Cl1  1  0.50000000  0.50000000  0.50000000  1
  O  O2  1  0.83266400  0.38911200  0.38911200  1
  O  O3  1  0.38911200  0.38911200  0.83266400  1
  O  O4  1  0.38911200  0.83266400  0.38911200  1
  O  O5  1  0.38911200  0.38911200  0.38911200  1
