# generated using pymatgen
data_Ga2Te3(HO2)6
_symmetry_space_group_name_H-M   'P 1'
_cell_length_a   8.70027440
_cell_length_b   8.70027440
_cell_length_c   8.70027390
_cell_angle_alpha   66.59492476
_cell_angle_beta   66.59492476
_cell_angle_gamma   66.59492323
_symmetry_Int_Tables_number   1
_chemical_formula_structural   Ga2Te3(HO2)6
_chemical_formula_sum   'Ga4 Te6 H12 O24'
_cell_volume   531.76253019
_cell_formula_units_Z   2
loop_
 _symmetry_equiv_pos_site_id
 _symmetry_equiv_pos_as_xyz
  1  'x, y, z'
loop_
 _atom_site_type_symbol
 _atom_site_label
 _atom_site_symmetry_multiplicity
 _atom_site_fract_x
 _atom_site_fract_y
 _atom_site_fract_z
 _atom_site_occupancy
  Ga  Ga0  1  0.09182400  0.09182400  0.09182400  1
  Ga  Ga1  1  0.59182400  0.59182400  0.59182400  1
  Ga  Ga2  1  0.33735800  0.33735800  0.33735800  1
  Ga  Ga3  1  0.83735800  0.83735800  0.83735800  1
  Te  Te4  1  0.90114400  0.44119700  0.81072500  1
  Te  Te5  1  0.44119700  0.81072500  0.90114400  1
  Te  Te6  1  0.81072500  0.90114400  0.44119700  1
  Te  Te7  1  0.94119700  0.40114400  0.31072500  1
  Te  Te8  1  0.40114400  0.31072500  0.94119700  1
  Te  Te9  1  0.31072500  0.94119700  0.40114400  1
  H  H10  1  0.34839200  0.35563800  0.63156800  1
  H  H11  1  0.35563800  0.63156800  0.34839200  1
  H  H12  1  0.63156800  0.34839200  0.35563800  1
  H  H13  1  0.85563800  0.84839200  0.13156800  1
  H  H14  1  0.84839200  0.13156800  0.85563800  1
  H  H15  1  0.13156800  0.85563800  0.84839200  1
  H  H16  1  0.30934900  0.17175700  0.68301100  1
  H  H17  1  0.17175700  0.68301100  0.30934900  1
  H  H18  1  0.68301200  0.30934900  0.17175700  1
  H  H19  1  0.67175700  0.80934900  0.18301100  1
  H  H20  1  0.80934900  0.18301100  0.67175700  1
  H  H21  1  0.18301100  0.67175700  0.80934900  1
  O  O22  1  0.88320300  0.22948200  0.99795000  1
  O  O23  1  0.22948200  0.99795000  0.88320300  1
  O  O24  1  0.99795000  0.88320300  0.22948200  1
  O  O25  1  0.72948200  0.38320300  0.49795000  1
  O  O26  1  0.38320300  0.49795000  0.72948200  1
  O  O27  1  0.49795000  0.72948200  0.38320300  1
  O  O28  1  0.17560500  0.30413600  0.96495900  1
  O  O29  1  0.30413600  0.96495900  0.17560500  1
  O  O30  1  0.96495900  0.17560500  0.30413600  1
  O  O31  1  0.80413600  0.67560500  0.46495900  1
  O  O32  1  0.67560500  0.46495900  0.80413600  1
  O  O33  1  0.46495900  0.80413600  0.67560500  1
  O  O34  1  0.81610100  0.59985900  0.94603900  1
  O  O35  1  0.59985900  0.94603900  0.81610100  1
  O  O36  1  0.94603900  0.81610100  0.59985900  1
  O  O37  1  0.09985900  0.31610100  0.44603900  1
  O  O38  1  0.31610100  0.44603900  0.09985900  1
  O  O39  1  0.44603900  0.09985900  0.31610100  1
  O  O40  1  0.36285500  0.26148300  0.58537300  1
  O  O41  1  0.26148300  0.58537300  0.36285500  1
  O  O42  1  0.58537300  0.36285500  0.26148300  1
  O  O43  1  0.76148300  0.86285500  0.08537300  1
  O  O44  1  0.86285500  0.08537300  0.76148300  1
  O  O45  1  0.08537300  0.76148300  0.86285500  1
