# generated using pymatgen
data_Fe10OF19
_symmetry_space_group_name_H-M   'P 1'
_cell_length_a   4.79519811
_cell_length_b   4.79519811
_cell_length_c   16.56307700
_cell_angle_alpha   90.00000000
_cell_angle_beta   90.00000000
_cell_angle_gamma   90.61670638
_symmetry_Int_Tables_number   1
_chemical_formula_structural   Fe10OF19
_chemical_formula_sum   'Fe10 O1 F19'
_cell_volume   380.82808818
_cell_formula_units_Z   1
loop_
 _symmetry_equiv_pos_site_id
 _symmetry_equiv_pos_as_xyz
  1  'x, y, z'
loop_
 _atom_site_type_symbol
 _atom_site_label
 _atom_site_symmetry_multiplicity
 _atom_site_fract_x
 _atom_site_fract_y
 _atom_site_fract_z
 _atom_site_occupancy
  Fe  Fe0  1  0.00936900  0.00936900  0.59528900  1
  Fe  Fe1  1  0.00936900  0.00936900  0.40471100  1
  Fe  Fe2  1  0.99950300  0.99950300  0.20085900  1
  Fe  Fe3  1  0.00008600  0.00008600  0.00000000  1
  Fe  Fe4  1  0.99950300  0.99950300  0.79914100  1
  Fe  Fe5  1  0.47524600  0.47524600  0.50000000  1
  Fe  Fe6  1  0.49985400  0.49985400  0.09987400  1
  Fe  Fe7  1  0.50238100  0.50238100  0.30013500  1
  Fe  Fe8  1  0.49985400  0.49985400  0.90012600  1
  Fe  Fe9  1  0.50238100  0.50238100  0.69986500  1
  O  O10  1  0.20471700  0.20471700  0.50000000  1
  F  F11  1  0.20100100  0.20100100  0.30002900  1
  F  F12  1  0.19885900  0.19885900  0.10013900  1
  F  F13  1  0.19885900  0.19885900  0.89986100  1
  F  F14  1  0.20100100  0.20100100  0.69997100  1
  F  F15  1  0.69468800  0.30836900  0.59633100  1
  F  F16  1  0.69468800  0.30836900  0.40366900  1
  F  F17  1  0.69977600  0.30046000  0.20010800  1
  F  F18  1  0.70003200  0.29990800  0.00000000  1
  F  F19  1  0.69977600  0.30046000  0.79989200  1
  F  F20  1  0.30836900  0.69468800  0.59633100  1
  F  F21  1  0.30836900  0.69468800  0.40366900  1
  F  F22  1  0.30046000  0.69977600  0.20010800  1
  F  F23  1  0.29990800  0.70003200  0.00000000  1
  F  F24  1  0.30046000  0.69977600  0.79989200  1
  F  F25  1  0.78205500  0.78205500  0.50000000  1
  F  F26  1  0.80090400  0.80090400  0.10017300  1
  F  F27  1  0.80381600  0.80381600  0.30260000  1
  F  F28  1  0.80381600  0.80381600  0.69740000  1
  F  F29  1  0.80090400  0.80090400  0.89982700  1
