# generated using pymatgen
data_EuY2O4
_symmetry_space_group_name_H-M   'P 1'
_cell_length_a   3.42187000
_cell_length_b   10.16602500
_cell_length_c   11.99776966
_cell_angle_alpha   89.81631347
_cell_angle_beta   90.00000000
_cell_angle_gamma   90.00000000
_symmetry_Int_Tables_number   1
_chemical_formula_structural   EuY2O4
_chemical_formula_sum   'Eu4 Y8 O16'
_cell_volume   417.36206022
_cell_formula_units_Z   4
loop_
 _symmetry_equiv_pos_site_id
 _symmetry_equiv_pos_as_xyz
  1  'x, y, z'
loop_
 _atom_site_type_symbol
 _atom_site_label
 _atom_site_symmetry_multiplicity
 _atom_site_fract_x
 _atom_site_fract_y
 _atom_site_fract_z
 _atom_site_occupancy
  Eu  Eu0  1  0.75000000  0.24486600  0.14932100  1
  Eu  Eu1  1  0.25000000  0.25375500  0.65246200  1
  Eu  Eu2  1  0.75000000  0.74624500  0.34753800  1
  Eu  Eu3  1  0.25000000  0.75513400  0.85067900  1
  Y  Y4  1  0.75000000  0.07559100  0.38791300  1
  Y  Y5  1  0.75000000  0.07885700  0.89126200  1
  Y  Y6  1  0.25000000  0.42129500  0.39147800  1
  Y  Y7  1  0.25000000  0.42721100  0.88821400  1
  Y  Y8  1  0.75000000  0.57278900  0.11178600  1
  Y  Y9  1  0.75000000  0.57870500  0.60852200  1
  Y  Y10  1  0.25000000  0.92114300  0.10873800  1
  Y  Y11  1  0.25000000  0.92440900  0.61208700  1
  O  O12  1  0.25000000  0.02118800  0.78338900  1
  O  O13  1  0.75000000  0.08023900  0.57767500  1
  O  O14  1  0.25000000  0.12441100  0.02424000  1
  O  O15  1  0.25000000  0.20999400  0.32317600  1
  O  O16  1  0.75000000  0.29165100  0.82728300  1
  O  O17  1  0.75000000  0.37407200  0.52374500  1
  O  O18  1  0.25000000  0.42035000  0.07822400  1
  O  O19  1  0.75000000  0.48445200  0.28590600  1
  O  O20  1  0.25000000  0.51554800  0.71409400  1
  O  O21  1  0.75000000  0.57965000  0.92177600  1
  O  O22  1  0.25000000  0.62592800  0.47625500  1
  O  O23  1  0.25000000  0.70834900  0.17271700  1
  O  O24  1  0.75000000  0.79000600  0.67682400  1
  O  O25  1  0.75000000  0.87558900  0.97576000  1
  O  O26  1  0.25000000  0.91976100  0.42232500  1
  O  O27  1  0.75000000  0.97881200  0.21661100  1
