# generated using pymatgen
data_Ag2PdO2
_symmetry_space_group_name_H-M   'P 1'
_cell_length_a   5.80390462
_cell_length_b   5.80390462
_cell_length_c   5.80390462
_cell_angle_alpha   149.45845671
_cell_angle_beta   133.34950664
_cell_angle_gamma   56.79009531
_symmetry_Int_Tables_number   1
_chemical_formula_structural   Ag2PdO2
_chemical_formula_sum   'Ag2 Pd1 O2'
_cell_volume   71.74228473
_cell_formula_units_Z   1
loop_
 _symmetry_equiv_pos_site_id
 _symmetry_equiv_pos_as_xyz
  1  'x, y, z'
loop_
 _atom_site_type_symbol
 _atom_site_label
 _atom_site_symmetry_multiplicity
 _atom_site_fract_x
 _atom_site_fract_y
 _atom_site_fract_z
 _atom_site_occupancy
  Ag  Ag0  1  0.35941200  0.35941200  0.00000000  1
  Ag  Ag1  1  0.64058800  0.64058800  0.00000000  1
  Pd  Pd2  1  0.00000000  0.00000000  0.00000000  1
  O  O3  1  0.13712700  0.63712700  0.50000000  1
  O  O4  1  0.86287300  0.36287300  0.50000000  1
