# generated using pymatgen
data_Sr2Cu3(IO2)2
_symmetry_space_group_name_H-M   'P 1'
_cell_length_a   9.62104884
_cell_length_b   9.62104884
_cell_length_c   9.62104884
_cell_angle_alpha   145.63744717
_cell_angle_beta   145.63744717
_cell_angle_gamma   49.38559095
_symmetry_Int_Tables_number   1
_chemical_formula_structural   Sr2Cu3(IO2)2
_chemical_formula_sum   'Sr2 Cu3 I2 O4'
_cell_volume   282.41646518
_cell_formula_units_Z   1
loop_
 _symmetry_equiv_pos_site_id
 _symmetry_equiv_pos_as_xyz
  1  'x, y, z'
loop_
 _atom_site_type_symbol
 _atom_site_label
 _atom_site_symmetry_multiplicity
 _atom_site_fract_x
 _atom_site_fract_y
 _atom_site_fract_z
 _atom_site_occupancy
  Sr  Sr0  1  0.85060100  0.85060100  0.00000000  1
  Sr  Sr1  1  0.14939900  0.14939900  0.00000000  1
  Cu  Cu2  1  0.50000000  0.00000000  0.50000000  1
  Cu  Cu3  1  0.00000000  0.50000000  0.50000000  1
  Cu  Cu4  1  0.00000000  0.00000000  0.00000000  1
  I  I5  1  0.75000000  0.25000000  0.50000000  1
  I  I6  1  0.25000000  0.75000000  0.50000000  1
  O  O7  1  0.22865300  0.77134700  0.00000000  1
  O  O8  1  0.22865300  0.22865300  0.45730600  1
  O  O9  1  0.77134700  0.77134700  0.54269400  1
  O  O10  1  0.77134700  0.22865300  0.00000000  1
