# generated using pymatgen
data_RbClO2
_symmetry_space_group_name_H-M   'P 1'
_cell_length_a   4.65204096
_cell_length_b   4.65204096
_cell_length_c   8.01287700
_cell_angle_alpha   90.00000000
_cell_angle_beta   90.00000000
_cell_angle_gamma   91.67452289
_symmetry_Int_Tables_number   1
_chemical_formula_structural   RbClO2
_chemical_formula_sum   'Rb2 Cl2 O4'
_cell_volume   173.33650380
_cell_formula_units_Z   2
loop_
 _symmetry_equiv_pos_site_id
 _symmetry_equiv_pos_as_xyz
  1  'x, y, z'
loop_
 _atom_site_type_symbol
 _atom_site_label
 _atom_site_symmetry_multiplicity
 _atom_site_fract_x
 _atom_site_fract_y
 _atom_site_fract_z
 _atom_site_occupancy
  Rb  Rb0  1  0.50000000  0.50000000  0.00000000  1
  Rb  Rb1  1  0.50000000  0.50000000  0.50000000  1
  Cl  Cl2  1  0.96420800  0.03579200  0.75000000  1
  Cl  Cl3  1  0.03579200  0.96420800  0.25000000  1
  O  O4  1  0.37294400  0.02650200  0.25000000  1
  O  O5  1  0.02650200  0.37294400  0.75000000  1
  O  O6  1  0.97349800  0.62705600  0.25000000  1
  O  O7  1  0.62705600  0.97349800  0.75000000  1
