# generated using pymatgen
data_Na3AlF6
_symmetry_space_group_name_H-M   'P 1'
_cell_length_a   5.69065143
_cell_length_b   5.69065143
_cell_length_c   5.69065143
_cell_angle_alpha   121.69408005
_cell_angle_beta   118.46547661
_cell_angle_gamma   89.88467009
_symmetry_Int_Tables_number   1
_chemical_formula_structural   Na3AlF6
_chemical_formula_sum   'Na3 Al1 F6'
_cell_volume   130.02105249
_cell_formula_units_Z   1
loop_
 _symmetry_equiv_pos_site_id
 _symmetry_equiv_pos_as_xyz
  1  'x, y, z'
loop_
 _atom_site_type_symbol
 _atom_site_label
 _atom_site_symmetry_multiplicity
 _atom_site_fract_x
 _atom_site_fract_y
 _atom_site_fract_z
 _atom_site_occupancy
  Na  Na0  1  0.78140400  0.28140400  0.50000000  1
  Na  Na1  1  0.21859600  0.71859600  0.50000000  1
  Na  Na2  1  0.50000000  0.50000000  0.00000000  1
  Al  Al3  1  0.00000000  0.00000000  0.00000000  1
  F  F4  1  0.78207000  0.23571000  0.01778100  1
  F  F5  1  0.78207000  0.76429000  0.54636000  1
  F  F6  1  0.21793000  0.23571000  0.45364000  1
  F  F7  1  0.21793000  0.76429000  0.98221900  1
  F  F8  1  0.77377800  0.77377800  0.00000000  1
  F  F9  1  0.22622200  0.22622200  0.00000000  1
