# generated using pymatgen
data_Tl4Hg3Sb2(As2S5)4
_symmetry_space_group_name_H-M   'P 1'
_cell_length_a   14.02225512
_cell_length_b   14.02225512
_cell_length_c   11.58472600
_cell_angle_alpha   90.00000000
_cell_angle_beta   90.00000000
_cell_angle_gamma   121.92771610
_symmetry_Int_Tables_number   1
_chemical_formula_structural   Tl4Hg3Sb2(As2S5)4
_chemical_formula_sum   'Tl8 Hg6 Sb4 As16 S40'
_cell_volume   1933.23151392
_cell_formula_units_Z   2
loop_
 _symmetry_equiv_pos_site_id
 _symmetry_equiv_pos_as_xyz
  1  'x, y, z'
loop_
 _atom_site_type_symbol
 _atom_site_label
 _atom_site_symmetry_multiplicity
 _atom_site_fract_x
 _atom_site_fract_y
 _atom_site_fract_z
 _atom_site_occupancy
  Tl  Tl0  1  0.01760900  0.48008600  0.44225700  1
  Tl  Tl1  1  0.85300000  0.63524000  0.70289000  1
  Tl  Tl2  1  0.51760900  0.98008600  0.05774300  1
  Tl  Tl3  1  0.48008600  0.01760900  0.55774300  1
  Tl  Tl4  1  0.35300000  0.13524000  0.79711000  1
  Tl  Tl5  1  0.63524000  0.85300000  0.29711000  1
  Tl  Tl6  1  0.98008600  0.51760900  0.94225700  1
  Tl  Tl7  1  0.13524000  0.35300000  0.20289000  1
  Hg  Hg8  1  0.05412100  0.93915400  0.42571600  1
  Hg  Hg9  1  0.55412100  0.43915400  0.07428400  1
  Hg  Hg10  1  0.93915400  0.05412100  0.57428400  1
  Hg  Hg11  1  0.43915400  0.55412100  0.92571600  1
  Hg  Hg12  1  0.99661200  0.99661200  0.00000000  1
  Hg  Hg13  1  0.49661200  0.49661200  0.50000000  1
  Sb  Sb14  1  0.34735700  0.67100100  0.70776100  1
  Sb  Sb15  1  0.17100100  0.84735700  0.20776100  1
  Sb  Sb16  1  0.84735700  0.17100100  0.79223900  1
  Sb  Sb17  1  0.67100100  0.34735700  0.29223900  1
  As  As18  1  0.81286300  0.70223500  0.10354900  1
  As  As19  1  0.29667200  0.69139700  0.09407400  1
  As  As20  1  0.29084700  0.70805400  0.38702100  1
  As  As21  1  0.68785600  0.78813500  0.60444100  1
  As  As22  1  0.20223500  0.31286300  0.60354900  1
  As  As23  1  0.79667200  0.19139700  0.40592600  1
  As  As24  1  0.19139700  0.79667200  0.59407400  1
  As  As25  1  0.69139700  0.29667200  0.90592600  1
  As  As26  1  0.79084700  0.20805400  0.11297900  1
  As  As27  1  0.28813500  0.18785600  0.10444100  1
  As  As28  1  0.70805400  0.29084700  0.61297900  1
  As  As29  1  0.18785600  0.28813500  0.89555900  1
  As  As30  1  0.78813500  0.68785600  0.39555900  1
  As  As31  1  0.20805400  0.79084700  0.88702100  1
  As  As32  1  0.31286300  0.20223500  0.39645100  1
  As  As33  1  0.70223500  0.81286300  0.89645100  1
  S  S34  1  0.37685600  0.36880800  0.17387400  1
  S  S35  1  0.36880800  0.37685600  0.82612600  1
  S  S36  1  0.13660100  0.85860600  0.75400800  1
  S  S37  1  0.27590500  0.93697900  0.01842600  1
  S  S38  1  0.98247500  0.80241900  0.01786300  1
  S  S39  1  0.62004600  0.85524500  0.74529200  1
  S  S40  1  0.35111500  0.88215300  0.30987200  1
  S  S41  1  0.54274800  0.22798000  0.02007900  1
  S  S42  1  0.63660100  0.35860600  0.74599200  1
  S  S43  1  0.88215300  0.35111500  0.69012800  1
  S  S44  1  0.61601700  0.62584000  0.32321100  1
  S  S45  1  0.30241900  0.48247500  0.51786300  1
  S  S46  1  0.86880800  0.87685600  0.67387400  1
  S  S47  1  0.80241900  0.98247500  0.98213700  1
  S  S48  1  0.22798000  0.54274800  0.97992100  1
  S  S49  1  0.11601700  0.12584000  0.17678900  1
  S  S50  1  0.05227300  0.23447200  0.47936000  1
  S  S51  1  0.65110600  0.12375800  0.83013800  1
  S  S52  1  0.77590500  0.43697900  0.48157400  1
  S  S53  1  0.12375800  0.65110600  0.16986200  1
  S  S54  1  0.23447200  0.05227300  0.52064000  1
  S  S55  1  0.35860600  0.63660100  0.25400800  1
  S  S56  1  0.12004600  0.35524500  0.75470800  1
  S  S57  1  0.04274800  0.72798000  0.47992100  1
  S  S58  1  0.93697900  0.27590500  0.98157400  1
  S  S59  1  0.55227300  0.73447200  0.02064000  1
  S  S60  1  0.48247500  0.30241900  0.48213700  1
  S  S61  1  0.73447200  0.55227300  0.97936000  1
  S  S62  1  0.87685600  0.86880800  0.32612600  1
  S  S63  1  0.62584000  0.61601700  0.67678900  1
  S  S64  1  0.43697900  0.77590500  0.51842600  1
  S  S65  1  0.85524500  0.62004600  0.25470800  1
  S  S66  1  0.85860600  0.13660100  0.24599200  1
  S  S67  1  0.62375800  0.15110600  0.33013800  1
  S  S68  1  0.72798000  0.04274800  0.52007900  1
  S  S69  1  0.38215300  0.85111500  0.80987200  1
  S  S70  1  0.35524500  0.12004600  0.24529200  1
  S  S71  1  0.12584000  0.11601700  0.82321100  1
  S  S72  1  0.85111500  0.38215300  0.19012800  1
  S  S73  1  0.15110600  0.62375800  0.66986200  1
