# generated using pymatgen
data_ZnS
_symmetry_space_group_name_H-M   'P 1'
_cell_length_a   3.85275277
_cell_length_b   3.85275277
_cell_length_c   88.21959000
_cell_angle_alpha   90.00000000
_cell_angle_beta   90.00000000
_cell_angle_gamma   120.00001329
_symmetry_Int_Tables_number   1
_chemical_formula_structural   ZnS
_chemical_formula_sum   'Zn28 S28'
_cell_volume   1134.06485618
_cell_formula_units_Z   28
loop_
 _symmetry_equiv_pos_site_id
 _symmetry_equiv_pos_as_xyz
  1  'x, y, z'
loop_
 _atom_site_type_symbol
 _atom_site_label
 _atom_site_symmetry_multiplicity
 _atom_site_fract_x
 _atom_site_fract_y
 _atom_site_fract_z
 _atom_site_occupancy
  Zn  Zn0  1  0.00000000  0.00000000  0.07142700  1
  Zn  Zn1  1  0.33333300  0.66666700  0.92858900  1
  Zn  Zn2  1  0.33333300  0.66666700  0.64288300  1
  Zn  Zn3  1  0.33333300  0.66666700  0.21430600  1
  Zn  Zn4  1  0.00000000  0.00000000  0.39286000  1
  Zn  Zn5  1  0.66666700  0.33333300  0.10716100  1
  Zn  Zn6  1  0.66666700  0.33333300  0.46427500  1
  Zn  Zn7  1  0.66666700  0.33333300  0.53573900  1
  Zn  Zn8  1  0.33333300  0.66666700  0.85717300  1
  Zn  Zn9  1  0.33333300  0.66666700  0.78572300  1
  Zn  Zn10  1  0.00000000  0.00000000  0.96429900  1
  Zn  Zn11  1  0.66666700  0.33333300  0.32144800  1
  Zn  Zn12  1  0.33333300  0.66666700  0.14283900  1
  Zn  Zn13  1  0.33333300  0.66666700  0.35712700  1
  Zn  Zn14  1  0.33333300  0.66666700  0.00002500  1
  Zn  Zn15  1  0.00000000  0.00000000  0.60714800  1
  Zn  Zn16  1  0.66666700  0.33333300  0.67856300  1
  Zn  Zn17  1  0.00000000  0.00000000  0.71429900  1
  Zn  Zn18  1  0.00000000  0.00000000  0.82145600  1
  Zn  Zn19  1  0.00000000  0.00000000  0.28571500  1
  Zn  Zn20  1  0.66666700  0.33333300  0.03569800  1
  Zn  Zn21  1  0.66666700  0.33333300  0.89287700  1
  Zn  Zn22  1  0.66666700  0.33333300  0.24998400  1
  Zn  Zn23  1  0.00000000  0.00000000  0.17857100  1
  Zn  Zn24  1  0.00000000  0.00000000  0.50000600  1
  Zn  Zn25  1  0.33333300  0.66666700  0.57141600  1
  Zn  Zn26  1  0.33333300  0.66666700  0.42859600  1
  Zn  Zn27  1  0.66666700  0.33333300  0.75003800  1
  S  S28  1  0.00000000  0.00000000  0.20537600  1
  S  S29  1  0.66666700  0.33333300  0.56249000  1
  S  S30  1  0.66666700  0.33333300  0.70532200  1
  S  S31  1  0.00000000  0.00000000  0.63395300  1
  S  S32  1  0.33333300  0.66666700  0.02677400  1
  S  S33  1  0.33333300  0.66666700  0.38388300  1
  S  S34  1  0.00000000  0.00000000  0.99109900  1
  S  S35  1  0.00000000  0.00000000  0.84825600  1
  S  S36  1  0.00000000  0.00000000  0.41966500  1
  S  S37  1  0.00000000  0.00000000  0.52681000  1
  S  S38  1  0.66666700  0.33333300  0.06245200  1
  S  S39  1  0.00000000  0.00000000  0.09823100  1
  S  S40  1  0.33333300  0.66666700  0.45534800  1
  S  S41  1  0.00000000  0.00000000  0.31251800  1
  S  S42  1  0.33333300  0.66666700  0.88391300  1
  S  S43  1  0.33333300  0.66666700  0.59817300  1
  S  S44  1  0.33333300  0.66666700  0.66963600  1
  S  S45  1  0.66666700  0.33333300  0.77679700  1
  S  S46  1  0.33333300  0.66666700  0.95533100  1
  S  S47  1  0.33333300  0.66666700  0.16959500  1
  S  S48  1  0.33333300  0.66666700  0.24105700  1
  S  S49  1  0.66666700  0.33333300  0.91967300  1
  S  S50  1  0.00000000  0.00000000  0.74110500  1
  S  S51  1  0.66666700  0.33333300  0.34820000  1
  S  S52  1  0.66666700  0.33333300  0.27673900  1
  S  S53  1  0.33333300  0.66666700  0.81248000  1
  S  S54  1  0.66666700  0.33333300  0.13391200  1
  S  S55  1  0.66666700  0.33333300  0.49103100  1
