# generated using pymatgen
data_BaCo2(AsO4)2
_symmetry_space_group_name_H-M   'P 1'
_cell_length_a   8.54271260
_cell_length_b   8.71950315
_cell_length_c   8.62300347
_cell_angle_alpha   33.41765343
_cell_angle_beta   33.72821919
_cell_angle_gamma   34.16078584
_symmetry_Int_Tables_number   1
_chemical_formula_structural   BaCo2(AsO4)2
_chemical_formula_sum   'Ba1 Co2 As2 O8'
_cell_volume   176.78171173
_cell_formula_units_Z   1
loop_
 _symmetry_equiv_pos_site_id
 _symmetry_equiv_pos_as_xyz
  1  'x, y, z'
loop_
 _atom_site_type_symbol
 _atom_site_label
 _atom_site_symmetry_multiplicity
 _atom_site_fract_x
 _atom_site_fract_y
 _atom_site_fract_z
 _atom_site_occupancy
  Ba  Ba0  1  0.99952200  0.00109800  0.99957900  1
  Co  Co1  1  0.82493000  0.82959700  0.84020100  1
  Co  Co2  1  0.17329500  0.17243800  0.16044300  1
  As  As3  1  0.43570800  0.41945900  0.42962600  1
  As  As4  1  0.56440800  0.58044300  0.57033700  1
  O  O5  1  0.55259600  0.22248300  0.88026600  1
  O  O6  1  0.20577600  0.88422600  0.55483700  1
  O  O7  1  0.87085300  0.56848600  0.21222200  1
  O  O8  1  0.44980400  0.77617600  0.11851900  1
  O  O9  1  0.79466600  0.11487500  0.44572800  1
  O  O10  1  0.35933100  0.35285900  0.36373100  1
  O  O11  1  0.63948600  0.64953400  0.63489000  1
  O  O12  1  0.12962500  0.42832700  0.78962000  1
