data_image0
_chemical_formula_structural       Pb4S12Zr4
_chemical_formula_sum              "Pb4 S12 Zr4"
_cell_length_a       9.11553
_cell_length_b       3.80485
_cell_length_c       14.0507
_cell_angle_alpha    90
_cell_angle_beta     90
_cell_angle_gamma    90

_space_group_name_H-M_alt    "P 1"
_space_group_IT_number       1

loop_
  _space_group_symop_operation_xyz
  'x, y, z'

loop_
  _atom_site_type_symbol
  _atom_site_label
  _atom_site_symmetry_multiplicity
  _atom_site_fract_x
  _atom_site_fract_y
  _atom_site_fract_z
  _atom_site_occupancy
  Pb  Pb1       1.0  0.51700  0.25000  0.82900  1.0000
  Pb  Pb2       1.0  0.98300  0.75000  0.32900  1.0000
  Pb  Pb3       1.0  0.01710  0.25000  0.67100  1.0000
  Pb  Pb4       1.0  0.48300  0.75000  0.17100  1.0000
  S   S1        1.0  0.00994  0.25000  0.89400  1.0000
  S   S2        1.0  0.49000  0.75000  0.39400  1.0000
  S   S3        1.0  0.51000  0.25000  0.60600  1.0000
  S   S4        1.0  0.99000  0.75000  0.10600  1.0000
  S   S5        1.0  0.16700  0.25000  0.48900  1.0000
  S   S6        1.0  0.33300  0.75000  0.98900  1.0000
  S   S7        1.0  0.66700  0.25000  0.01110  1.0000
  S   S8        1.0  0.83300  0.75000  0.51100  1.0000
  S   S9        1.0  0.27500  0.25000  0.21500  1.0000
  S   S10       1.0  0.22500  0.75000  0.71500  1.0000
  S   S11       1.0  0.77500  0.25000  0.28500  1.0000
  S   S12       1.0  0.72500  0.75000  0.78500  1.0000
  Zr  Zr1       1.0  0.16600  0.25000  0.04950  1.0000
  Zr  Zr2       1.0  0.33400  0.75000  0.54900  1.0000
  Zr  Zr3       1.0  0.66600  0.25000  0.45100  1.0000
  Zr  Zr4       1.0  0.83400  0.75000  0.95100  1.0000
