# generated using pymatgen
data_DyNbO4
_symmetry_space_group_name_H-M   'P 1'
_cell_length_a   5.52317800
_cell_length_b   5.16675800
_cell_length_c   5.35663335
_cell_angle_alpha   83.98118519
_cell_angle_beta   90.00000000
_cell_angle_gamma   90.00000000
_symmetry_Int_Tables_number   1
_chemical_formula_structural   DyNbO4
_chemical_formula_sum   'Dy2 Nb2 O8'
_cell_volume   152.01919115
_cell_formula_units_Z   2
loop_
 _symmetry_equiv_pos_site_id
 _symmetry_equiv_pos_as_xyz
  1  'x, y, z'
loop_
 _atom_site_type_symbol
 _atom_site_label
 _atom_site_symmetry_multiplicity
 _atom_site_fract_x
 _atom_site_fract_y
 _atom_site_fract_z
 _atom_site_occupancy
  Dy  Dy0  1  0.23940800  0.00000000  0.75000000  1
  Dy  Dy1  1  0.76059200  0.00000000  0.25000000  1
  Nb  Nb2  1  0.70031200  0.50000000  0.75000000  1
  Nb  Nb3  1  0.29968800  0.50000000  0.25000000  1
  O  O4  1  0.91788500  0.24950500  0.90302800  1
  O  O5  1  0.43656600  0.26543500  0.00999200  1
  O  O6  1  0.43656600  0.73456500  0.49000800  1
  O  O7  1  0.91788500  0.75049500  0.59697200  1
  O  O8  1  0.08211500  0.24950500  0.40302800  1
  O  O9  1  0.56343400  0.26543500  0.50999200  1
  O  O10  1  0.56343400  0.73456500  0.99000800  1
  O  O11  1  0.08211500  0.75049500  0.09697200  1
