# generated using pymatgen
data_KSeNO2
_symmetry_space_group_name_H-M   'P 1'
_cell_length_a   13.04565400
_cell_length_b   7.60158300
_cell_length_c   12.11938350
_cell_angle_alpha   66.10290226
_cell_angle_beta   90.00000000
_cell_angle_gamma   90.00000000
_symmetry_Int_Tables_number   1
_chemical_formula_structural   KSeNO2
_chemical_formula_sum   'K12 Se12 N12 O24'
_cell_volume   1098.82117936
_cell_formula_units_Z   12
loop_
 _symmetry_equiv_pos_site_id
 _symmetry_equiv_pos_as_xyz
  1  'x, y, z'
loop_
 _atom_site_type_symbol
 _atom_site_label
 _atom_site_symmetry_multiplicity
 _atom_site_fract_x
 _atom_site_fract_y
 _atom_site_fract_z
 _atom_site_occupancy
  K  K0  1  0.14014800  0.39905100  0.42994700  1
  K  K1  1  0.75043800  0.19253900  0.90430500  1
  K  K2  1  0.35985200  0.39905100  0.92994700  1
  K  K3  1  0.64014800  0.60094900  0.07005300  1
  K  K4  1  0.25043800  0.80746100  0.59569500  1
  K  K5  1  0.85985200  0.60094900  0.57005300  1
  K  K6  1  0.24956200  0.80746100  0.09569500  1
  K  K7  1  0.07766400  0.27919200  0.87003700  1
  K  K8  1  0.57766400  0.72080800  0.62996300  1
  K  K9  1  0.74956200  0.19253900  0.40430500  1
  K  K10  1  0.92233600  0.72080800  0.12996300  1
  K  K11  1  0.42233600  0.27919200  0.37003700  1
  Se  Se12  1  0.56123400  0.11493900  0.15657100  1
  Se  Se13  1  0.06123400  0.88506100  0.34342900  1
  Se  Se14  1  0.93627300  0.20799500  0.16610600  1
  Se  Se15  1  0.33396900  0.24690800  0.68309800  1
  Se  Se16  1  0.66603100  0.75309200  0.31690200  1
  Se  Se17  1  0.56372700  0.20799500  0.66610600  1
  Se  Se18  1  0.83396900  0.75309200  0.81690200  1
  Se  Se19  1  0.43627300  0.79200500  0.33389400  1
  Se  Se20  1  0.43876600  0.88506100  0.84342900  1
  Se  Se21  1  0.16603100  0.24690800  0.18309800  1
  Se  Se22  1  0.06372700  0.79200500  0.83389400  1
  Se  Se23  1  0.93876600  0.11493900  0.65657100  1
  N  N24  1  0.33426900  0.04915500  0.83055200  1
  N  N25  1  0.66573100  0.95084500  0.16944800  1
  N  N26  1  0.16573100  0.04915500  0.33055200  1
  N  N27  1  0.56290900  0.99999900  0.81037800  1
  N  N28  1  0.43709100  0.00000100  0.18962200  1
  N  N29  1  0.95607200  0.63178000  0.85012200  1
  N  N30  1  0.83426900  0.95084500  0.66944800  1
  N  N31  1  0.54392800  0.63178000  0.35012200  1
  N  N32  1  0.06290900  0.00000100  0.68962200  1
  N  N33  1  0.45607200  0.36822000  0.64987800  1
  N  N34  1  0.04392800  0.36822000  0.14987800  1
  N  N35  1  0.93709100  0.99999900  0.31037800  1
  O  O36  1  0.94139300  0.26297200  0.51158400  1
  O  O37  1  0.57176000  0.13680900  0.55309900  1
  O  O38  1  0.05860700  0.73702800  0.48841600  1
  O  O39  1  0.70279600  0.81725100  0.42757500  1
  O  O40  1  0.92824000  0.13680900  0.05309900  1
  O  O41  1  0.33697100  0.66048500  0.32829700  1
  O  O42  1  0.25339800  0.40227400  0.70075200  1
  O  O43  1  0.20279600  0.18274900  0.07242500  1
  O  O44  1  0.66302900  0.33951500  0.67170300  1
  O  O45  1  0.41713400  0.75887800  0.76019100  1
  O  O46  1  0.42824000  0.86319100  0.44690100  1
  O  O47  1  0.75339800  0.59772600  0.79924800  1
  O  O48  1  0.91713400  0.24112200  0.73980900  1
  O  O49  1  0.29720400  0.18274900  0.57242500  1
  O  O50  1  0.79720400  0.81725100  0.92757500  1
  O  O51  1  0.74660200  0.59772600  0.29924800  1
  O  O52  1  0.24660200  0.40227400  0.20075200  1
  O  O53  1  0.83697100  0.33951500  0.17170300  1
  O  O54  1  0.08286600  0.75887800  0.26019100  1
  O  O55  1  0.55860700  0.26297200  0.01158400  1
  O  O56  1  0.16302900  0.66048500  0.82829700  1
  O  O57  1  0.58286600  0.24112200  0.23980900  1
  O  O58  1  0.07176000  0.86319100  0.94690100  1
  O  O59  1  0.44139300  0.73702800  0.98841600  1
