# generated using pymatgen
data_OsO4
_symmetry_space_group_name_H-M   'P 1'
_cell_length_a   5.24507824
_cell_length_b   5.24507824
_cell_length_c   4.92671378
_cell_angle_alpha   64.28770538
_cell_angle_beta   64.28770538
_cell_angle_gamma   54.37085961
_symmetry_Int_Tables_number   1
_chemical_formula_structural   OsO4
_chemical_formula_sum   'Os1 O4'
_cell_volume   96.17423151
_cell_formula_units_Z   1
loop_
 _symmetry_equiv_pos_site_id
 _symmetry_equiv_pos_as_xyz
  1  'x, y, z'
loop_
 _atom_site_type_symbol
 _atom_site_label
 _atom_site_symmetry_multiplicity
 _atom_site_fract_x
 _atom_site_fract_y
 _atom_site_fract_z
 _atom_site_occupancy
  Os  Os0  1  0.00040000  0.99960000  0.50000000  1
  O  O1  1  0.66284500  0.07977200  0.42961500  1
  O  O2  1  0.09441000  0.67824500  0.81978200  1
  O  O3  1  0.92022800  0.33715500  0.57038500  1
  O  O4  1  0.32175500  0.90559000  0.18021800  1
