# generated using pymatgen
data_Cr2PO5
_symmetry_space_group_name_H-M   'P 1'
_cell_length_a   6.53197700
_cell_length_b   7.47400600
_cell_length_c   7.51452900
_cell_angle_alpha   90.00000000
_cell_angle_beta   90.00000000
_cell_angle_gamma   90.00000000
_symmetry_Int_Tables_number   1
_chemical_formula_structural   Cr2PO5
_chemical_formula_sum   'Cr8 P4 O20'
_cell_volume   366.85957097
_cell_formula_units_Z   4
loop_
 _symmetry_equiv_pos_site_id
 _symmetry_equiv_pos_as_xyz
  1  'x, y, z'
loop_
 _atom_site_type_symbol
 _atom_site_label
 _atom_site_symmetry_multiplicity
 _atom_site_fract_x
 _atom_site_fract_y
 _atom_site_fract_z
 _atom_site_occupancy
  Cr  Cr0  1  0.00000000  0.00000000  0.00000000  1
  Cr  Cr1  1  0.50000000  0.00000000  0.00000000  1
  Cr  Cr2  1  0.25000000  0.71891500  0.15700400  1
  Cr  Cr3  1  0.75000000  0.21891500  0.34299600  1
  Cr  Cr4  1  0.00000000  0.50000000  0.50000000  1
  Cr  Cr5  1  0.50000000  0.50000000  0.50000000  1
  Cr  Cr6  1  0.25000000  0.78108500  0.65700400  1
  Cr  Cr7  1  0.75000000  0.28108500  0.84299600  1
  P  P8  1  0.75000000  0.62184400  0.11255800  1
  P  P9  1  0.25000000  0.12184400  0.38744200  1
  P  P10  1  0.75000000  0.87815600  0.61255800  1
  P  P11  1  0.25000000  0.37815600  0.88744200  1
  O  O12  1  0.25000000  0.47388600  0.06695300  1
  O  O13  1  0.75000000  0.14136300  0.08846300  1
  O  O14  1  0.93991800  0.74783800  0.13076200  1
  O  O15  1  0.56008200  0.74783800  0.13076200  1
  O  O16  1  0.25000000  0.98856000  0.22955300  1
  O  O17  1  0.75000000  0.48856000  0.27044700  1
  O  O18  1  0.06008200  0.24783800  0.36923800  1
  O  O19  1  0.43991800  0.24783800  0.36923800  1
  O  O20  1  0.25000000  0.64136300  0.41153700  1
  O  O21  1  0.75000000  0.97388600  0.43304700  1
  O  O22  1  0.25000000  0.02611400  0.56695300  1
  O  O23  1  0.75000000  0.35863700  0.58846300  1
  O  O24  1  0.56008200  0.75216200  0.63076200  1
  O  O25  1  0.93991800  0.75216200  0.63076200  1
  O  O26  1  0.25000000  0.51144000  0.72955300  1
  O  O27  1  0.75000000  0.01144000  0.77044700  1
  O  O28  1  0.06008200  0.25216200  0.86923800  1
  O  O29  1  0.43991800  0.25216200  0.86923800  1
  O  O30  1  0.25000000  0.85863700  0.91153700  1
  O  O31  1  0.75000000  0.52611400  0.93304700  1
