# generated using pymatgen
data_SiO2
_symmetry_space_group_name_H-M   'P 1'
_cell_length_a   10.98464903
_cell_length_b   10.98464903
_cell_length_c   10.98464903
_cell_angle_alpha   99.80282313
_cell_angle_beta   99.80282313
_cell_angle_gamma   131.26052352
_symmetry_Int_Tables_number   1
_chemical_formula_structural   SiO2
_chemical_formula_sum   'Si16 O32'
_cell_volume   907.58107095
_cell_formula_units_Z   16
loop_
 _symmetry_equiv_pos_site_id
 _symmetry_equiv_pos_as_xyz
  1  'x, y, z'
loop_
 _atom_site_type_symbol
 _atom_site_label
 _atom_site_symmetry_multiplicity
 _atom_site_fract_x
 _atom_site_fract_y
 _atom_site_fract_z
 _atom_site_occupancy
  Si  Si0  1  0.92590600  0.58491800  0.86079100  1
  Si  Si1  1  0.58491800  0.72412700  0.65901200  1
  Si  Si2  1  0.77587300  0.91508200  0.34098800  1
  Si  Si3  1  0.91508200  0.57409400  0.13920900  1
  Si  Si4  1  0.43488500  0.77587300  0.86079100  1
  Si  Si5  1  0.57409400  0.43488500  0.65901200  1
  Si  Si6  1  0.22412700  0.08491800  0.65901200  1
  Si  Si7  1  0.08491800  0.42590600  0.86079100  1
  Si  Si8  1  0.07409400  0.41508200  0.13920900  1
  Si  Si9  1  0.93488500  0.07409400  0.65901200  1
  Si  Si10  1  0.42590600  0.56511500  0.34098800  1
  Si  Si11  1  0.72412700  0.06511500  0.13920900  1
  Si  Si12  1  0.27587300  0.93488500  0.86079100  1
  Si  Si13  1  0.41508200  0.27587300  0.34098800  1
  Si  Si14  1  0.06511500  0.92590600  0.34098800  1
  Si  Si15  1  0.56511500  0.22412700  0.13920900  1
  O  O16  1  0.62748900  0.12748900  0.16006700  1
  O  O17  1  0.60429300  0.60429300  0.70858600  1
  O  O18  1  0.75000000  0.48611100  0.73611100  1
  O  O19  1  0.41333200  0.27875400  0.69208600  1
  O  O20  1  0.87251100  0.03257800  0.50000000  1
  O  O21  1  0.37251100  0.87251100  0.83993300  1
  O  O22  1  0.89570700  0.60429300  0.00000000  1
  O  O23  1  0.75000000  0.01388900  0.26388900  1
  O  O24  1  0.27875400  0.58666800  0.86542200  1
  O  O25  1  0.10429300  0.39570700  0.00000000  1
  O  O26  1  0.58666800  0.72124600  0.30791400  1
  O  O27  1  0.25000000  0.98611100  0.73611100  1
  O  O28  1  0.46742200  0.62748900  0.50000000  1
  O  O29  1  0.89570700  0.89570700  0.29141400  1
  O  O30  1  0.39570700  0.10429300  0.00000000  1
  O  O31  1  0.98611100  0.25000000  0.73611100  1
  O  O32  1  0.96742200  0.46742200  0.83993300  1
  O  O33  1  0.25000000  0.51388900  0.26388900  1
  O  O34  1  0.08666800  0.77875400  0.86542200  1
  O  O35  1  0.22124600  0.08666800  0.30791400  1
  O  O36  1  0.53257800  0.37251100  0.50000000  1
  O  O37  1  0.77875400  0.91333200  0.69208600  1
  O  O38  1  0.12748900  0.96742200  0.50000000  1
  O  O39  1  0.91333200  0.22124600  0.13457800  1
  O  O40  1  0.72124600  0.41333200  0.13457800  1
  O  O41  1  0.01388900  0.75000000  0.26388900  1
  O  O42  1  0.51388900  0.25000000  0.26388900  1
  O  O43  1  0.10429300  0.10429300  0.70858600  1
  O  O44  1  0.48611100  0.75000000  0.73611100  1
  O  O45  1  0.39570700  0.39570700  0.29141400  1
  O  O46  1  0.03257800  0.53257800  0.16006700  1
  O  O47  1  0.60429300  0.89570700  0.00000000  1
