# generated using pymatgen
data_NaCa4(BO3)3
_symmetry_space_group_name_H-M   'P 1'
_cell_length_a   6.56002451
_cell_length_b   6.56002451
_cell_length_c   10.77738000
_cell_angle_alpha   90.00000000
_cell_angle_beta   90.00000000
_cell_angle_gamma   120.20676618
_symmetry_Int_Tables_number   1
_chemical_formula_structural   NaCa4(BO3)3
_chemical_formula_sum   'Na2 Ca8 B6 O18'
_cell_volume   400.81698610
_cell_formula_units_Z   2
loop_
 _symmetry_equiv_pos_site_id
 _symmetry_equiv_pos_as_xyz
  1  'x, y, z'
loop_
 _atom_site_type_symbol
 _atom_site_label
 _atom_site_symmetry_multiplicity
 _atom_site_fract_x
 _atom_site_fract_y
 _atom_site_fract_z
 _atom_site_occupancy
  Na  Na0  1  0.53619100  0.38646500  0.25000000  1
  Na  Na1  1  0.38646500  0.53619100  0.75000000  1
  Ca  Ca2  1  0.17730900  0.60544000  0.47209700  1
  Ca  Ca3  1  0.60544000  0.17730900  0.52790300  1
  Ca  Ca4  1  0.17730900  0.60544000  0.02790300  1
  Ca  Ca5  1  0.60544000  0.17730900  0.97209700  1
  Ca  Ca6  1  0.03273800  0.03273800  0.50000000  1
  Ca  Ca7  1  0.03273800  0.03273800  0.00000000  1
  Ca  Ca8  1  0.60843800  0.90768900  0.25000000  1
  Ca  Ca9  1  0.90768900  0.60843800  0.75000000  1
  B  B10  1  0.16804900  0.92445300  0.25000000  1
  B  B11  1  0.92445300  0.16804900  0.75000000  1
  B  B12  1  0.01177600  0.35614800  0.25000000  1
  B  B13  1  0.35614800  0.01177600  0.75000000  1
  B  B14  1  0.60768000  0.60768000  0.50000000  1
  B  B15  1  0.60768000  0.60768000  0.00000000  1
  O  O16  1  0.24626300  0.52910100  0.25000000  1
  O  O17  1  0.52910100  0.24626300  0.75000000  1
  O  O18  1  0.39700800  0.39700800  0.50000000  1
  O  O19  1  0.39700800  0.39700800  0.00000000  1
  O  O20  1  0.60994600  0.81546300  0.47129600  1
  O  O21  1  0.81546300  0.60994600  0.52870400  1
  O  O22  1  0.60994600  0.81546300  0.02870400  1
  O  O23  1  0.81546300  0.60994600  0.97129600  1
  O  O24  1  0.29950200  0.97616400  0.36100700  1
  O  O25  1  0.97616400  0.29950200  0.63899300  1
  O  O26  1  0.29950200  0.97616400  0.13899300  1
  O  O27  1  0.97616400  0.29950200  0.86100700  1
  O  O28  1  0.88785900  0.26874300  0.36114000  1
  O  O29  1  0.26874300  0.88785900  0.63886000  1
  O  O30  1  0.88785900  0.26874300  0.13886000  1
  O  O31  1  0.26874300  0.88785900  0.86114000  1
  O  O32  1  0.93116700  0.84269700  0.25000000  1
  O  O33  1  0.84269700  0.93116700  0.75000000  1
