# generated using pymatgen
data_SmSbMo2O9
_symmetry_space_group_name_H-M   'P 1'
_cell_length_a   9.83242873
_cell_length_b   9.83242873
_cell_length_c   10.99193003
_cell_angle_alpha   68.23475611
_cell_angle_beta   68.23475611
_cell_angle_gamma   95.69737314
_symmetry_Int_Tables_number   1
_chemical_formula_structural   SmSbMo2O9
_chemical_formula_sum   'Sm4 Sb4 Mo8 O36'
_cell_volume   881.33983521
_cell_formula_units_Z   4
loop_
 _symmetry_equiv_pos_site_id
 _symmetry_equiv_pos_as_xyz
  1  'x, y, z'
loop_
 _atom_site_type_symbol
 _atom_site_label
 _atom_site_symmetry_multiplicity
 _atom_site_fract_x
 _atom_site_fract_y
 _atom_site_fract_z
 _atom_site_occupancy
  Sm  Sm0  1  0.67343200  0.32656800  0.75000000  1
  Sm  Sm1  1  0.87505800  0.12494200  0.25000000  1
  Sm  Sm2  1  0.12494200  0.87505800  0.75000000  1
  Sm  Sm3  1  0.32656800  0.67343200  0.25000000  1
  Sb  Sb4  1  0.62124100  0.64832900  0.46286000  1
  Sb  Sb5  1  0.37875900  0.35167100  0.53714000  1
  Sb  Sb6  1  0.35167100  0.37875900  0.03714000  1
  Sb  Sb7  1  0.64832900  0.62124100  0.96286000  1
  Mo  Mo8  1  0.94079000  0.56547300  0.19453400  1
  Mo  Mo9  1  0.05921000  0.43452700  0.80546600  1
  Mo  Mo10  1  0.95195000  0.74106200  0.52587300  1
  Mo  Mo11  1  0.25893800  0.04805000  0.97412700  1
  Mo  Mo12  1  0.43452700  0.05921000  0.30546600  1
  Mo  Mo13  1  0.04805000  0.25893800  0.47412700  1
  Mo  Mo14  1  0.56547300  0.94079000  0.69453400  1
  Mo  Mo15  1  0.74106200  0.95195000  0.02587300  1
  O  O16  1  0.29708100  0.87389000  0.06450200  1
  O  O17  1  0.57626900  0.45885100  0.90138200  1
  O  O18  1  0.77994400  0.59573600  0.57701800  1
  O  O19  1  0.54114900  0.42373100  0.59861800  1
  O  O20  1  0.09529800  0.06525700  0.10059300  1
  O  O21  1  0.77555400  0.95201400  0.17539400  1
  O  O22  1  0.90960200  0.44179300  0.75055800  1
  O  O23  1  0.98213000  0.30641400  0.99359200  1
  O  O24  1  0.63012800  0.78865100  0.79958100  1
  O  O25  1  0.14126200  0.61922400  0.77585000  1
  O  O26  1  0.09039800  0.55820700  0.24944200  1
  O  O27  1  0.69358600  0.01787000  0.50640800  1
  O  O28  1  0.42373100  0.54114900  0.09861800  1
  O  O29  1  0.06525700  0.09529800  0.60059300  1
  O  O30  1  0.38077600  0.85873800  0.72415000  1
  O  O31  1  0.12611000  0.70291900  0.43549800  1
  O  O32  1  0.55820700  0.09039800  0.74944200  1
  O  O33  1  0.45885100  0.57626900  0.40138200  1
  O  O34  1  0.59573600  0.77994400  0.07701800  1
  O  O35  1  0.70291900  0.12611000  0.93549800  1
  O  O36  1  0.93474300  0.90470200  0.39940700  1
  O  O37  1  0.30641400  0.98213000  0.49359200  1
  O  O38  1  0.44179300  0.90960200  0.25055800  1
  O  O39  1  0.40426400  0.22005600  0.92298200  1
  O  O40  1  0.22005600  0.40426400  0.42298200  1
  O  O41  1  0.61922400  0.14126200  0.27585000  1
  O  O42  1  0.95201400  0.77555400  0.67539400  1
  O  O43  1  0.78865100  0.63012800  0.29958100  1
  O  O44  1  0.21134900  0.36987200  0.70041900  1
  O  O45  1  0.87389000  0.29708100  0.56450200  1
  O  O46  1  0.90470200  0.93474300  0.89940700  1
  O  O47  1  0.85873800  0.38077600  0.22415000  1
  O  O48  1  0.04798600  0.22444600  0.32460600  1
  O  O49  1  0.36987200  0.21134900  0.20041900  1
  O  O50  1  0.01787000  0.69358600  0.00640800  1
  O  O51  1  0.22444600  0.04798600  0.82460600  1
