# generated using pymatgen
data_Ba3Lu2Zn5O11
_symmetry_space_group_name_H-M   'P 1'
_cell_length_a   9.62934055
_cell_length_b   9.62934055
_cell_length_c   9.62934055
_cell_angle_alpha   60.00000000
_cell_angle_beta   60.00000000
_cell_angle_gamma   60.00000000
_symmetry_Int_Tables_number   1
_chemical_formula_structural   Ba3Lu2Zn5O11
_chemical_formula_sum   'Ba6 Lu4 Zn10 O22'
_cell_volume   631.35647739
_cell_formula_units_Z   2
loop_
 _symmetry_equiv_pos_site_id
 _symmetry_equiv_pos_as_xyz
  1  'x, y, z'
loop_
 _atom_site_type_symbol
 _atom_site_label
 _atom_site_symmetry_multiplicity
 _atom_site_fract_x
 _atom_site_fract_y
 _atom_site_fract_z
 _atom_site_occupancy
  Ba  Ba0  1  0.54360000  0.54360000  0.95640000  1
  Ba  Ba1  1  0.95640000  0.54360000  0.95640000  1
  Ba  Ba2  1  0.54360000  0.95640000  0.54360000  1
  Ba  Ba3  1  0.95640000  0.95640000  0.54360000  1
  Ba  Ba4  1  0.54360000  0.95640000  0.95640000  1
  Ba  Ba5  1  0.95640000  0.54360000  0.54360000  1
  Lu  Lu6  1  0.74314100  0.08562000  0.08562000  1
  Lu  Lu7  1  0.08562000  0.74314100  0.08562000  1
  Lu  Lu8  1  0.08562000  0.08562000  0.08562000  1
  Lu  Lu9  1  0.08562000  0.08562000  0.74314100  1
  Zn  Zn10  1  0.66754400  0.33245600  0.66754400  1
  Zn  Zn11  1  0.99901200  0.33366300  0.33366300  1
  Zn  Zn12  1  0.66754400  0.66754400  0.33245600  1
  Zn  Zn13  1  0.33366300  0.33366300  0.99901200  1
  Zn  Zn14  1  0.33245600  0.66754400  0.66754400  1
  Zn  Zn15  1  0.33366300  0.33366300  0.33366300  1
  Zn  Zn16  1  0.33245600  0.33245600  0.66754400  1
  Zn  Zn17  1  0.33366300  0.99901200  0.33366300  1
  Zn  Zn18  1  0.33245600  0.66754400  0.33245600  1
  Zn  Zn19  1  0.66754400  0.33245600  0.33245600  1
  O  O20  1  0.58354100  0.24809600  0.24809600  1
  O  O21  1  0.58354100  0.24809600  0.92026700  1
  O  O22  1  0.23742900  0.92085700  0.92085700  1
  O  O23  1  0.22425500  0.59191500  0.59191500  1
  O  O24  1  0.92026700  0.24809600  0.58354100  1
  O  O25  1  0.58354100  0.92026700  0.24809600  1
  O  O26  1  0.59191500  0.59191500  0.22425500  1
  O  O27  1  0.24809600  0.24809600  0.58354100  1
  O  O28  1  0.24809600  0.58354100  0.24809600  1
  O  O29  1  0.24809600  0.92026700  0.24809600  1
  O  O30  1  0.59191500  0.22425500  0.59191500  1
  O  O31  1  0.25000000  0.25000000  0.25000000  1
  O  O32  1  0.92085700  0.92085700  0.92085700  1
  O  O33  1  0.24809600  0.24809600  0.92026700  1
  O  O34  1  0.92085700  0.92085700  0.23742900  1
  O  O35  1  0.92085700  0.23742900  0.92085700  1
  O  O36  1  0.92026700  0.58354100  0.24809600  1
  O  O37  1  0.24809600  0.58354100  0.92026700  1
  O  O38  1  0.59191500  0.59191500  0.59191500  1
  O  O39  1  0.24809600  0.92026700  0.58354100  1
  O  O40  1  0.75000000  0.75000000  0.75000000  1
  O  O41  1  0.92026700  0.24809600  0.24809600  1
