# generated using pymatgen
data_Ca3SiO5
_symmetry_space_group_name_H-M   'P 1'
_cell_length_a   9.59467217
_cell_length_b   9.59467217
_cell_length_c   9.59467172
_cell_angle_alpha   43.81302179
_cell_angle_beta   43.81302179
_cell_angle_gamma   43.81302049
_symmetry_Int_Tables_number   1
_chemical_formula_structural   Ca3SiO5
_chemical_formula_sum   'Ca9 Si3 O15'
_cell_volume   384.35728854
_cell_formula_units_Z   3
loop_
 _symmetry_equiv_pos_site_id
 _symmetry_equiv_pos_as_xyz
  1  'x, y, z'
loop_
 _atom_site_type_symbol
 _atom_site_label
 _atom_site_symmetry_multiplicity
 _atom_site_fract_x
 _atom_site_fract_y
 _atom_site_fract_z
 _atom_site_occupancy
  Ca  Ca0  1  0.98659200  0.50358900  0.50358900  1
  Ca  Ca1  1  0.28356900  0.28356900  0.76020700  1
  Ca  Ca2  1  0.71285200  0.25959900  0.71285200  1
  Ca  Ca3  1  0.71285200  0.71285200  0.25959900  1
  Ca  Ca4  1  0.25959900  0.71285200  0.71285200  1
  Ca  Ca5  1  0.28356900  0.76020700  0.28356900  1
  Ca  Ca6  1  0.50358900  0.98659200  0.50358900  1
  Ca  Ca7  1  0.76020700  0.28356900  0.28356900  1
  Ca  Ca8  1  0.50358900  0.50358900  0.98659200  1
  Si  Si9  1  0.22077600  0.22077600  0.22077600  1
  Si  Si10  1  0.78617200  0.78617200  0.78617200  1
  Si  Si11  1  0.00139300  0.00139300  0.00139300  1
  O  O12  1  0.85078400  0.85078400  0.85078400  1
  O  O13  1  0.23101900  0.85476600  0.85476600  1
  O  O14  1  0.37124500  0.37124500  0.37124500  1
  O  O15  1  0.63906600  0.01294400  0.63906600  1
  O  O16  1  0.49973400  0.49973400  0.49973400  1
  O  O17  1  0.61848900  0.61848900  0.61848900  1
  O  O18  1  0.85476600  0.85476600  0.23101900  1
  O  O19  1  0.36656600  0.36656600  0.99005300  1
  O  O20  1  0.06406900  0.06406900  0.06406900  1
  O  O21  1  0.36656600  0.99005300  0.36656600  1
  O  O22  1  0.99005300  0.36656600  0.36656600  1
  O  O23  1  0.63906600  0.63906600  0.01294400  1
  O  O24  1  0.01294400  0.63906600  0.63906600  1
  O  O25  1  0.15792000  0.15792000  0.15792000  1
  O  O26  1  0.85476600  0.23101900  0.85476600  1
