# generated using pymatgen
data_NaGa(TeO3)2
_symmetry_space_group_name_H-M   'P 1'
_cell_length_a   7.92105900
_cell_length_b   10.48827700
_cell_length_c   13.59140600
_cell_angle_alpha   90.00000000
_cell_angle_beta   90.00000000
_cell_angle_gamma   90.00000000
_symmetry_Int_Tables_number   1
_chemical_formula_structural   NaGa(TeO3)2
_chemical_formula_sum   'Na8 Ga8 Te16 O48'
_cell_volume   1129.15037401
_cell_formula_units_Z   8
loop_
 _symmetry_equiv_pos_site_id
 _symmetry_equiv_pos_as_xyz
  1  'x, y, z'
loop_
 _atom_site_type_symbol
 _atom_site_label
 _atom_site_symmetry_multiplicity
 _atom_site_fract_x
 _atom_site_fract_y
 _atom_site_fract_z
 _atom_site_occupancy
  Na  Na0  1  0.32649600  0.75653500  0.85704300  1
  Na  Na1  1  0.82649600  0.24346500  0.64295700  1
  Na  Na2  1  0.67350400  0.24346500  0.14295700  1
  Na  Na3  1  0.67350400  0.74346500  0.35704300  1
  Na  Na4  1  0.82649600  0.74346500  0.85704300  1
  Na  Na5  1  0.32649600  0.25653500  0.64295700  1
  Na  Na6  1  0.17350400  0.75653500  0.35704300  1
  Na  Na7  1  0.17350400  0.25653500  0.14295700  1
  Ga  Ga8  1  0.69439300  0.50244500  0.01990700  1
  Ga  Ga9  1  0.30560700  0.49755500  0.98009300  1
  Ga  Ga10  1  0.80560700  0.00244500  0.98009300  1
  Ga  Ga11  1  0.30560700  0.99755500  0.51990700  1
  Ga  Ga12  1  0.69439300  0.00244500  0.48009300  1
  Ga  Ga13  1  0.19439300  0.49755500  0.48009300  1
  Ga  Ga14  1  0.80560700  0.50244500  0.51990700  1
  Ga  Ga15  1  0.19439300  0.99755500  0.01990700  1
  Te  Te16  1  0.45044500  0.71144600  0.57439000  1
  Te  Te17  1  0.07987700  0.01005600  0.76738600  1
  Te  Te18  1  0.92012300  0.48994400  0.26738600  1
  Te  Te19  1  0.57987700  0.98994400  0.73261400  1
  Te  Te20  1  0.42012300  0.51005600  0.23261400  1
  Te  Te21  1  0.57987700  0.48994400  0.76738600  1
  Te  Te22  1  0.04955500  0.21144600  0.42561000  1
  Te  Te23  1  0.04955500  0.71144600  0.07439000  1
  Te  Te24  1  0.92012300  0.98994400  0.23261400  1
  Te  Te25  1  0.95044500  0.78855400  0.57439000  1
  Te  Te26  1  0.07987700  0.51005600  0.73261400  1
  Te  Te27  1  0.45044500  0.21144600  0.92561000  1
  Te  Te28  1  0.54955500  0.28855400  0.42561000  1
  Te  Te29  1  0.42012300  0.01005600  0.26738600  1
  Te  Te30  1  0.54955500  0.78855400  0.07439000  1
  Te  Te31  1  0.95044500  0.28855400  0.92561000  1
  O  O32  1  0.13178700  0.12427300  0.54135400  1
  O  O33  1  0.56986100  0.31082700  0.76637900  1
  O  O34  1  0.49833800  0.87219500  0.50795900  1
  O  O35  1  0.26247000  0.48053300  0.12710000  1
  O  O36  1  0.81910500  0.16085100  0.45195700  1
  O  O37  1  0.87074100  0.97300400  0.83670900  1
  O  O38  1  0.73753000  0.51946700  0.87290000  1
  O  O39  1  0.76247000  0.51946700  0.37290000  1
  O  O40  1  0.87074100  0.47300400  0.66329100  1
  O  O41  1  0.36821300  0.12427300  0.04135400  1
  O  O42  1  0.13178700  0.62427300  0.95864600  1
  O  O43  1  0.93013900  0.81082700  0.23362100  1
  O  O44  1  0.63178700  0.37572700  0.54135400  1
  O  O45  1  0.81910500  0.66085100  0.04804300  1
  O  O46  1  0.68089500  0.66085100  0.54804300  1
  O  O47  1  0.31910500  0.33914900  0.45195700  1
  O  O48  1  0.68089500  0.16085100  0.95195700  1
  O  O49  1  0.86821300  0.37572700  0.04135400  1
  O  O50  1  0.00166200  0.87219500  0.00795900  1
  O  O51  1  0.36821300  0.62427300  0.45864600  1
  O  O52  1  0.18089500  0.83914900  0.54804300  1
  O  O53  1  0.37074100  0.52699600  0.83670900  1
  O  O54  1  0.12925900  0.02699600  0.16329100  1
  O  O55  1  0.99833800  0.12780500  0.99204100  1
  O  O56  1  0.23753000  0.98053300  0.87290000  1
  O  O57  1  0.63178700  0.87572700  0.95864600  1
  O  O58  1  0.49833800  0.37219500  0.99204100  1
  O  O59  1  0.26247000  0.98053300  0.37290000  1
  O  O60  1  0.31910500  0.83914900  0.04804300  1
  O  O61  1  0.93013900  0.31082700  0.26637900  1
  O  O62  1  0.56986100  0.81082700  0.73362100  1
  O  O63  1  0.43013900  0.68917300  0.23362100  1
  O  O64  1  0.23753000  0.48053300  0.62710000  1
  O  O65  1  0.99833800  0.62780500  0.50795900  1
  O  O66  1  0.37074100  0.02699600  0.66329100  1
  O  O67  1  0.62925900  0.47300400  0.16329100  1
  O  O68  1  0.50166200  0.62780500  0.00795900  1
  O  O69  1  0.06986100  0.18917300  0.76637900  1
  O  O70  1  0.00166200  0.37219500  0.49204100  1
  O  O71  1  0.73753000  0.01946700  0.62710000  1
  O  O72  1  0.50166200  0.12780500  0.49204100  1
  O  O73  1  0.06986100  0.68917300  0.73362100  1
  O  O74  1  0.12925900  0.52699600  0.33670900  1
  O  O75  1  0.86821300  0.87572700  0.45864600  1
  O  O76  1  0.62925900  0.97300400  0.33670900  1
  O  O77  1  0.43013900  0.18917300  0.26637900  1
  O  O78  1  0.76247000  0.01946700  0.12710000  1
  O  O79  1  0.18089500  0.33914900  0.95195700  1
