# generated using pymatgen
data_Mg3(PO4)2
_symmetry_space_group_name_H-M   'P 1'
_cell_length_a   8.61162986
_cell_length_b   9.09287231
_cell_length_c   9.41919682
_cell_angle_alpha   115.93422236
_cell_angle_beta   91.39466113
_cell_angle_gamma   114.41327019
_symmetry_Int_Tables_number   1
_chemical_formula_structural   Mg3(PO4)2
_chemical_formula_sum   'Mg12 P8 O32'
_cell_volume   584.73309206
_cell_formula_units_Z   4
loop_
 _symmetry_equiv_pos_site_id
 _symmetry_equiv_pos_as_xyz
  1  'x, y, z'
loop_
 _atom_site_type_symbol
 _atom_site_label
 _atom_site_symmetry_multiplicity
 _atom_site_fract_x
 _atom_site_fract_y
 _atom_site_fract_z
 _atom_site_occupancy
  Mg  Mg0  1  0.07788800  0.30184800  0.87406600  1
  Mg  Mg1  1  0.59351000  0.52255100  0.26262200  1
  Mg  Mg2  1  0.51573100  0.89147900  0.82218100  1
  Mg  Mg3  1  0.48426900  0.10852100  0.17781900  1
  Mg  Mg4  1  0.98281100  0.70688600  0.44387400  1
  Mg  Mg5  1  0.59863000  0.19278500  0.67431600  1
  Mg  Mg6  1  0.90315100  0.81865600  0.83911400  1
  Mg  Mg7  1  0.40137000  0.80721500  0.32568400  1
  Mg  Mg8  1  0.40649000  0.47744900  0.73737800  1
  Mg  Mg9  1  0.09684900  0.18134400  0.16088600  1
  Mg  Mg10  1  0.01718900  0.29311400  0.55612600  1
  Mg  Mg11  1  0.92211200  0.69815200  0.12593400  1
  P  P12  1  0.32870700  0.17899900  0.90696400  1
  P  P13  1  0.17828000  0.68956500  0.94742200  1
  P  P14  1  0.67129300  0.82100100  0.09303600  1
  P  P15  1  0.76413900  0.92836500  0.59893900  1
  P  P16  1  0.72971100  0.43348700  0.54945700  1
  P  P17  1  0.27028900  0.56651300  0.45054300  1
  P  P18  1  0.23586100  0.07163500  0.40106100  1
  P  P19  1  0.82172000  0.31043500  0.05257800  1
  O  O20  1  0.13195700  0.06001800  0.90425700  1
  O  O21  1  0.15714500  0.50233200  0.80064500  1
  O  O22  1  0.24635400  0.09573100  0.24733900  1
  O  O23  1  0.84285500  0.49766800  0.19935500  1
  O  O24  1  0.00269100  0.69916700  0.93038300  1
  O  O25  1  0.60029300  0.94398600  0.55282800  1
  O  O26  1  0.40949000  0.07294600  0.78316300  1
  O  O27  1  0.43370000  0.26775500  0.08369300  1
  O  O28  1  0.21176900  0.70834000  0.45703100  1
  O  O29  1  0.93383400  0.11075500  0.64457700  1
  O  O30  1  0.10659300  0.37284800  0.38958000  1
  O  O31  1  0.56630000  0.73224500  0.91630700  1
  O  O32  1  0.32440000  0.33072000  0.87305200  1
  O  O33  1  0.67146100  0.13975700  0.04724300  1
  O  O34  1  0.67560000  0.66928000  0.12694800  1
  O  O35  1  0.62049500  0.44547100  0.68045500  1
  O  O36  1  0.20473000  0.67894200  0.10516000  1
  O  O37  1  0.37728900  0.62901400  0.61868200  1
  O  O38  1  0.59051000  0.92705400  0.21683700  1
  O  O39  1  0.77182400  0.76369300  0.45714200  1
  O  O40  1  0.99730900  0.30083300  0.06961700  1
  O  O41  1  0.39970700  0.05601400  0.44717200  1
  O  O42  1  0.78823100  0.29166000  0.54296900  1
  O  O43  1  0.37950500  0.55452900  0.31954500  1
  O  O44  1  0.22817600  0.23630700  0.54285800  1
  O  O45  1  0.62271100  0.37098600  0.38131800  1
  O  O46  1  0.32853900  0.86024300  0.95275700  1
  O  O47  1  0.75364600  0.90426900  0.75266100  1
  O  O48  1  0.79527000  0.32105800  0.89484000  1
  O  O49  1  0.86804300  0.93998200  0.09574300  1
  O  O50  1  0.89340700  0.62715200  0.61042000  1
  O  O51  1  0.06616600  0.88924500  0.35542300  1
