# generated using pymatgen
data_SmCu(MoO4)2
_symmetry_space_group_name_H-M   'P 1'
_cell_length_a   9.98273200
_cell_length_b   10.42041300
_cell_length_c   14.86667900
_cell_angle_alpha   90.00000000
_cell_angle_beta   90.00000000
_cell_angle_gamma   90.00000000
_symmetry_Int_Tables_number   1
_chemical_formula_structural   SmCu(MoO4)2
_chemical_formula_sum   'Sm8 Cu8 Mo16 O64'
_cell_volume   1546.49424555
_cell_formula_units_Z   8
loop_
 _symmetry_equiv_pos_site_id
 _symmetry_equiv_pos_as_xyz
  1  'x, y, z'
loop_
 _atom_site_type_symbol
 _atom_site_label
 _atom_site_symmetry_multiplicity
 _atom_site_fract_x
 _atom_site_fract_y
 _atom_site_fract_z
 _atom_site_occupancy
  Sm  Sm0  1  0.22294200  0.46491600  0.39606400  1
  Sm  Sm1  1  0.27705800  0.46491600  0.89606400  1
  Sm  Sm2  1  0.22294200  0.96491600  0.10393600  1
  Sm  Sm3  1  0.27705800  0.96491600  0.60393600  1
  Sm  Sm4  1  0.72294200  0.53508400  0.10393600  1
  Sm  Sm5  1  0.77705800  0.53508400  0.60393600  1
  Sm  Sm6  1  0.72294200  0.03508400  0.39606400  1
  Sm  Sm7  1  0.77705800  0.03508400  0.89606400  1
  Cu  Cu8  1  0.80717200  0.18268200  0.69476100  1
  Cu  Cu9  1  0.69282800  0.68268200  0.30523900  1
  Cu  Cu10  1  0.80717200  0.68268200  0.80523900  1
  Cu  Cu11  1  0.30717200  0.31731800  0.69476100  1
  Cu  Cu12  1  0.19282800  0.81731800  0.30523900  1
  Cu  Cu13  1  0.30717200  0.81731800  0.80523900  1
  Cu  Cu14  1  0.69282800  0.18268200  0.19476100  1
  Cu  Cu15  1  0.19282800  0.31731800  0.19476100  1
  Mo  Mo16  1  0.83018800  0.89747000  0.15294700  1
  Mo  Mo17  1  0.50082700  0.72024800  0.44230200  1
  Mo  Mo18  1  0.50082700  0.22024800  0.05769800  1
  Mo  Mo19  1  0.16981200  0.60253000  0.65294700  1
  Mo  Mo20  1  0.33018800  0.10253000  0.34705300  1
  Mo  Mo21  1  0.00082700  0.77975200  0.44230200  1
  Mo  Mo22  1  0.49917300  0.27975200  0.55769800  1
  Mo  Mo23  1  0.66981200  0.39747000  0.84705300  1
  Mo  Mo24  1  0.16981200  0.10253000  0.84705300  1
  Mo  Mo25  1  0.49917300  0.77975200  0.94230200  1
  Mo  Mo26  1  0.66981200  0.89747000  0.65294700  1
  Mo  Mo27  1  0.99917300  0.22024800  0.55769800  1
  Mo  Mo28  1  0.00082700  0.27975200  0.05769800  1
  Mo  Mo29  1  0.83018800  0.39747000  0.34705300  1
  Mo  Mo30  1  0.33018800  0.60253000  0.15294700  1
  Mo  Mo31  1  0.99917300  0.72024800  0.94230200  1
  O  O32  1  0.25529600  0.48718700  0.72704300  1
  O  O33  1  0.59979100  0.38640700  0.62457900  1
  O  O34  1  0.39181100  0.83078000  0.49752100  1
  O  O35  1  0.11214200  0.18168500  0.13142800  1
  O  O36  1  0.24470400  0.98718700  0.27295700  1
  O  O37  1  0.71171600  0.42444700  0.96164700  1
  O  O38  1  0.21171600  0.07555300  0.96164700  1
  O  O39  1  0.10818900  0.83078000  0.99752100  1
  O  O40  1  0.72555000  0.73697300  0.68216500  1
  O  O41  1  0.49310200  0.41200600  0.83432300  1
  O  O42  1  0.27445000  0.26302700  0.31783500  1
  O  O43  1  0.40628400  0.86721300  0.02434100  1
  O  O44  1  0.88785800  0.31831500  0.63142800  1
  O  O45  1  0.74470400  0.01281300  0.22704300  1
  O  O46  1  0.60818900  0.66922000  0.99752100  1
  O  O47  1  0.59979100  0.88640700  0.87542100  1
  O  O48  1  0.49310200  0.91200600  0.66567700  1
  O  O49  1  0.77445000  0.23697300  0.31783500  1
  O  O50  1  0.38785800  0.68168500  0.86857200  1
  O  O51  1  0.11214200  0.68168500  0.36857200  1
  O  O52  1  0.00689800  0.91200600  0.16567700  1
  O  O53  1  0.77445000  0.73697300  0.18216500  1
  O  O54  1  0.75529600  0.01281300  0.72704300  1
  O  O55  1  0.09979100  0.61359300  0.87542100  1
  O  O56  1  0.28828400  0.07555300  0.46164700  1
  O  O57  1  0.00689800  0.41200600  0.33432300  1
  O  O58  1  0.78828400  0.92444700  0.03835300  1
  O  O59  1  0.78828400  0.42444700  0.46164700  1
  O  O60  1  0.10818900  0.33078000  0.50247900  1
  O  O61  1  0.72555000  0.23697300  0.81783500  1
  O  O62  1  0.28828400  0.57555300  0.03835300  1
  O  O63  1  0.22555000  0.26302700  0.81783500  1
  O  O64  1  0.40628400  0.36721300  0.47565900  1
  O  O65  1  0.50689800  0.58799400  0.16567700  1
  O  O66  1  0.89181100  0.66922000  0.49752100  1
  O  O67  1  0.22555000  0.76302700  0.68216500  1
  O  O68  1  0.71171600  0.92444700  0.53835300  1
  O  O69  1  0.40020900  0.11359300  0.12457900  1
  O  O70  1  0.75529600  0.51281300  0.77295700  1
  O  O71  1  0.99310200  0.58799400  0.66567700  1
  O  O72  1  0.24470400  0.48718700  0.22704300  1
  O  O73  1  0.25529600  0.98718700  0.77295700  1
  O  O74  1  0.90628400  0.63278700  0.02434100  1
  O  O75  1  0.21171600  0.57555300  0.53835300  1
  O  O76  1  0.40020900  0.61359300  0.37542100  1
  O  O77  1  0.59371600  0.63278700  0.52434100  1
  O  O78  1  0.59371600  0.13278700  0.97565900  1
  O  O79  1  0.27445000  0.76302700  0.18216500  1
  O  O80  1  0.39181100  0.33078000  0.00247900  1
  O  O81  1  0.09371600  0.86721300  0.52434100  1
  O  O82  1  0.09979100  0.11359300  0.62457900  1
  O  O83  1  0.89181100  0.16922000  0.00247900  1
  O  O84  1  0.90628400  0.13278700  0.47565900  1
  O  O85  1  0.90020900  0.38640700  0.12457900  1
  O  O86  1  0.61214200  0.81831500  0.36857200  1
  O  O87  1  0.74470400  0.51281300  0.27295700  1
  O  O88  1  0.38785800  0.18168500  0.63142800  1
  O  O89  1  0.88785800  0.81831500  0.86857200  1
  O  O90  1  0.90020900  0.88640700  0.37542100  1
  O  O91  1  0.50689800  0.08799400  0.33432300  1
  O  O92  1  0.61214200  0.31831500  0.13142800  1
  O  O93  1  0.09371600  0.36721300  0.97565900  1
  O  O94  1  0.99310200  0.08799400  0.83432300  1
  O  O95  1  0.60818900  0.16922000  0.50247900  1
