# generated using pymatgen
data_SnHg2(SBr)2
_symmetry_space_group_name_H-M   'P 1'
_cell_length_a   10.27694300
_cell_length_b   10.51031600
_cell_length_c   11.97064757
_cell_angle_alpha   71.41757094
_cell_angle_beta   90.00000000
_cell_angle_gamma   90.00000000
_symmetry_Int_Tables_number   1
_chemical_formula_structural   SnHg2(SBr)2
_chemical_formula_sum   'Sn4 Hg8 S8 Br8'
_cell_volume   1225.58770263
_cell_formula_units_Z   4
loop_
 _symmetry_equiv_pos_site_id
 _symmetry_equiv_pos_as_xyz
  1  'x, y, z'
loop_
 _atom_site_type_symbol
 _atom_site_label
 _atom_site_symmetry_multiplicity
 _atom_site_fract_x
 _atom_site_fract_y
 _atom_site_fract_z
 _atom_site_occupancy
  Sn  Sn0  1  0.12896100  0.83800800  0.01481700  1
  Sn  Sn1  1  0.37103900  0.83800800  0.51481700  1
  Sn  Sn2  1  0.62896100  0.16199200  0.48518300  1
  Sn  Sn3  1  0.87103900  0.16199200  0.98518300  1
  Hg  Hg4  1  0.43331300  0.68444500  0.19117500  1
  Hg  Hg5  1  0.16017000  0.53709900  0.39569900  1
  Hg  Hg6  1  0.66017000  0.46290100  0.10430100  1
  Hg  Hg7  1  0.56668700  0.31555500  0.80882500  1
  Hg  Hg8  1  0.33983000  0.53709900  0.89569900  1
  Hg  Hg9  1  0.06668700  0.68444500  0.69117500  1
  Hg  Hg10  1  0.93331300  0.31555500  0.30882500  1
  Hg  Hg11  1  0.83983000  0.46290100  0.60430100  1
  S  S12  1  0.28968900  0.73633900  0.32633600  1
  S  S13  1  0.21031100  0.73633900  0.82633600  1
  S  S14  1  0.05097600  0.32752500  0.47413200  1
  S  S15  1  0.44902400  0.32752500  0.97413200  1
  S  S16  1  0.78968900  0.26366100  0.17366400  1
  S  S17  1  0.55097600  0.67247500  0.02586800  1
  S  S18  1  0.71031100  0.26366100  0.67366400  1
  S  S19  1  0.94902400  0.67247500  0.52586800  1
  Br  Br20  1  0.97598800  0.63958700  0.14409200  1
  Br  Br21  1  0.02401200  0.36041300  0.85590800  1
  Br  Br22  1  0.47598800  0.36041300  0.35590800  1
  Br  Br23  1  0.94112900  0.96044200  0.86126400  1
  Br  Br24  1  0.44112900  0.03955800  0.63873600  1
  Br  Br25  1  0.05887100  0.03955800  0.13873600  1
  Br  Br26  1  0.55887100  0.96044200  0.36126400  1
  Br  Br27  1  0.52401200  0.63958700  0.64409200  1
