# generated using pymatgen
data_Nb2VSe4
_symmetry_space_group_name_H-M   'P 1'
_cell_length_a   7.11720273
_cell_length_b   7.11720273
_cell_length_c   6.38039834
_cell_angle_alpha   65.06085815
_cell_angle_beta   65.06085815
_cell_angle_gamma   28.65460093
_symmetry_Int_Tables_number   1
_chemical_formula_structural   Nb2VSe4
_chemical_formula_sum   'Nb2 V1 Se4'
_cell_volume   139.53606168
_cell_formula_units_Z   1
loop_
 _symmetry_equiv_pos_site_id
 _symmetry_equiv_pos_as_xyz
  1  'x, y, z'
loop_
 _atom_site_type_symbol
 _atom_site_label
 _atom_site_symmetry_multiplicity
 _atom_site_fract_x
 _atom_site_fract_y
 _atom_site_fract_z
 _atom_site_occupancy
  Nb  Nb0  1  0.25627100  0.25627100  0.67813600  1
  Nb  Nb1  1  0.74372900  0.74372900  0.32186400  1
  V  V2  1  0.00000000  0.00000000  0.00000000  1
  Se  Se3  1  0.89975300  0.89975300  0.44429000  1
  Se  Se4  1  0.63563800  0.63563800  0.02565200  1
  Se  Se5  1  0.36436200  0.36436200  0.97434800  1
  Se  Se6  1  0.10024700  0.10024700  0.55571000  1
