data_image0
_chemical_formula_structural       Ir2Mg6
_chemical_formula_sum              "Ir2 Mg6"
_cell_length_a       4.5644
_cell_length_b       4.56458
_cell_length_c       8.26086
_cell_angle_alpha    90
_cell_angle_beta     90
_cell_angle_gamma    119.999

_space_group_name_H-M_alt    "P 1"
_space_group_IT_number       1

loop_
  _space_group_symop_operation_xyz
  'x, y, z'

loop_
  _atom_site_type_symbol
  _atom_site_label
  _atom_site_symmetry_multiplicity
  _atom_site_fract_x
  _atom_site_fract_y
  _atom_site_fract_z
  _atom_site_occupancy
  Ir  Ir1       1.0  0.33300  0.66700  0.25000  1.0000
  Ir  Ir2       1.0  0.66700  0.33300  0.75000  1.0000
  Mg  Mg1       1.0  0.66700  0.33300  0.07800  1.0000
  Mg  Mg2       1.0  0.00000  0.00000  0.25000  1.0000
  Mg  Mg3       1.0  0.66700  0.33300  0.42200  1.0000
  Mg  Mg4       1.0  0.33300  0.66700  0.57800  1.0000
  Mg  Mg5       1.0  0.00000  0.00001  0.75000  1.0000
  Mg  Mg6       1.0  0.33300  0.66700  0.92200  1.0000
