# generated using pymatgen
data_KEr(PO3)4
_symmetry_space_group_name_H-M   'P 1'
_cell_length_a   7.90384167
_cell_length_b   7.90384167
_cell_length_c   17.43929700
_cell_angle_alpha   90.00000000
_cell_angle_beta   90.00000000
_cell_angle_gamma   97.59094720
_symmetry_Int_Tables_number   1
_chemical_formula_structural   KEr(PO3)4
_chemical_formula_sum   'K4 Er4 P16 O48'
_cell_volume   1079.89788393
_cell_formula_units_Z   4
loop_
 _symmetry_equiv_pos_site_id
 _symmetry_equiv_pos_as_xyz
  1  'x, y, z'
loop_
 _atom_site_type_symbol
 _atom_site_label
 _atom_site_symmetry_multiplicity
 _atom_site_fract_x
 _atom_site_fract_y
 _atom_site_fract_z
 _atom_site_occupancy
  K  K0  1  0.02813600  0.76376700  0.86808100  1
  K  K1  1  0.97186400  0.23623300  0.36808100  1
  K  K2  1  0.23623300  0.97186400  0.63191900  1
  K  K3  1  0.76376700  0.02813600  0.13191900  1
  Er  Er4  1  0.02882900  0.40266600  0.64226800  1
  Er  Er5  1  0.97117100  0.59733400  0.14226800  1
  Er  Er6  1  0.59733400  0.97117100  0.85773200  1
  Er  Er7  1  0.40266600  0.02882900  0.35773200  1
  P  P8  1  0.22038800  0.68067900  0.48522400  1
  P  P9  1  0.96372500  0.26419800  0.84210700  1
  P  P10  1  0.36680000  0.63320000  0.75000000  1
  P  P11  1  0.67982300  0.71719000  0.30575400  1
  P  P12  1  0.64871800  0.64871800  0.00000000  1
  P  P13  1  0.68067900  0.22038800  0.51477600  1
  P  P14  1  0.63320100  0.36679900  0.25000000  1
  P  P15  1  0.32017700  0.28281000  0.80575400  1
  P  P16  1  0.71719000  0.67982300  0.69424600  1
  P  P17  1  0.35128200  0.35128200  0.50000000  1
  P  P18  1  0.73580200  0.03627500  0.65789300  1
  P  P19  1  0.77961200  0.31932100  0.98522400  1
  P  P20  1  0.28281000  0.32017700  0.19424600  1
  P  P21  1  0.31932100  0.77961200  0.01477600  1
  P  P22  1  0.26419800  0.96372500  0.15789300  1
  P  P23  1  0.03627500  0.73580200  0.34210700  1
  O  O24  1  0.36726700  0.94732000  0.22855300  1
  O  O25  1  0.83844300  0.73533400  0.36573600  1
  O  O26  1  0.63273300  0.05268000  0.72855300  1
  O  O27  1  0.87967700  0.08191000  0.84769500  1
  O  O28  1  0.37512500  0.90251100  0.08765600  1
  O  O29  1  0.16155700  0.26466600  0.86573600  1
  O  O30  1  0.39504500  0.80052000  0.79177600  1
  O  O31  1  0.14258500  0.68711100  0.02589100  1
  O  O32  1  0.05268000  0.63273300  0.27144700  1
  O  O33  1  0.60495500  0.19948000  0.29177600  1
  O  O34  1  0.80627500  0.54619300  0.65686200  1
  O  O35  1  0.68711100  0.14258500  0.97410900  1
  O  O36  1  0.91809000  0.12032300  0.65230500  1
  O  O37  1  0.80052000  0.39504500  0.20822400  1
  O  O38  1  0.23663000  0.31109500  0.56834800  1
  O  O39  1  0.11929500  0.64051200  0.55729800  1
  O  O40  1  0.51292500  0.61382900  0.68781200  1
  O  O41  1  0.48707500  0.38617100  0.18781200  1
  O  O42  1  0.45380700  0.19372500  0.84313800  1
  O  O43  1  0.61382900  0.51292500  0.31218800  1
  O  O44  1  0.64051200  0.11929500  0.44270200  1
  O  O45  1  0.19948000  0.60495500  0.70822400  1
  O  O46  1  0.73533400  0.83844300  0.63426400  1
  O  O47  1  0.26466600  0.16155700  0.13426400  1
  O  O48  1  0.08191000  0.87967700  0.15230500  1
  O  O49  1  0.54619300  0.80627500  0.34313800  1
  O  O50  1  0.38617100  0.48707500  0.81218800  1
  O  O51  1  0.68890500  0.76337000  0.93165200  1
  O  O52  1  0.75921800  0.74300900  0.77377900  1
  O  O53  1  0.24078200  0.25699100  0.27377900  1
  O  O54  1  0.35753800  0.54715200  0.47503500  1
  O  O55  1  0.12032300  0.91809000  0.34769500  1
  O  O56  1  0.54715200  0.35753800  0.52496500  1
  O  O57  1  0.35948800  0.88070500  0.94270200  1
  O  O58  1  0.19372500  0.45380700  0.15686200  1
  O  O59  1  0.31288900  0.85741500  0.47410900  1
  O  O60  1  0.31109500  0.23663000  0.43165200  1
  O  O61  1  0.62487500  0.09748900  0.58765600  1
  O  O62  1  0.88070500  0.35948800  0.05729800  1
  O  O63  1  0.94732000  0.36726700  0.77144700  1
  O  O64  1  0.85741500  0.31288900  0.52589100  1
  O  O65  1  0.45284800  0.64246200  0.02496500  1
  O  O66  1  0.64246200  0.45284800  0.97503500  1
  O  O67  1  0.74300900  0.75921800  0.22622100  1
  O  O68  1  0.25699100  0.24078200  0.72622100  1
  O  O69  1  0.90251100  0.37512500  0.91234400  1
  O  O70  1  0.76337000  0.68890500  0.06834800  1
  O  O71  1  0.09748900  0.62487500  0.41234400  1
