# generated using pymatgen
data_GdCuSe2ClO6
_symmetry_space_group_name_H-M   'P 1'
_cell_length_a   7.12605700
_cell_length_b   9.40420244
_cell_length_c   12.11076037
_cell_angle_alpha   97.90363741
_cell_angle_beta   106.95993409
_cell_angle_gamma   109.60788080
_symmetry_Int_Tables_number   1
_chemical_formula_structural   GdCuSe2ClO6
_chemical_formula_sum   'Gd4 Cu4 Se8 Cl4 O24'
_cell_volume   705.89020161
_cell_formula_units_Z   4
loop_
 _symmetry_equiv_pos_site_id
 _symmetry_equiv_pos_as_xyz
  1  'x, y, z'
loop_
 _atom_site_type_symbol
 _atom_site_label
 _atom_site_symmetry_multiplicity
 _atom_site_fract_x
 _atom_site_fract_y
 _atom_site_fract_z
 _atom_site_occupancy
  Gd  Gd0  1  0.66314000  0.38856500  0.42979600  1
  Gd  Gd1  1  0.33686000  0.61143500  0.57020400  1
  Gd  Gd2  1  0.66427300  0.91329400  0.91446700  1
  Gd  Gd3  1  0.33572700  0.08670600  0.08553300  1
  Cu  Cu4  1  0.58019700  0.62135800  0.15843900  1
  Cu  Cu5  1  0.42469500  0.85518300  0.34840700  1
  Cu  Cu6  1  0.41980300  0.37864200  0.84156100  1
  Cu  Cu7  1  0.57530500  0.14481700  0.65159300  1
  Se  Se8  1  0.21675200  0.92784600  0.74715800  1
  Se  Se9  1  0.98393200  0.25913800  0.90163200  1
  Se  Se10  1  0.96499300  0.73316900  0.40538600  1
  Se  Se11  1  0.03500700  0.26683100  0.59461400  1
  Se  Se12  1  0.21936700  0.40613900  0.25083900  1
  Se  Se13  1  0.78324800  0.07215400  0.25284200  1
  Se  Se14  1  0.78063300  0.59386100  0.74916100  1
  Se  Se15  1  0.01606800  0.74086200  0.09836800  1
  Cl  Cl16  1  0.40769800  0.64737900  0.97051700  1
  Cl  Cl17  1  0.36001000  0.12624300  0.46238400  1
  Cl  Cl18  1  0.59230200  0.35262100  0.02948300  1
  Cl  Cl19  1  0.63999000  0.87375700  0.53761600  1
  O  O20  1  0.01544500  0.14448600  0.00144200  1
  O  O21  1  0.64085000  0.18465400  0.27559300  1
  O  O22  1  0.18320800  0.70677500  0.38064200  1
  O  O23  1  0.65312800  0.71995200  0.76449700  1
  O  O24  1  0.01992100  0.35798000  0.47843400  1
  O  O25  1  0.68394100  0.92070100  0.31222100  1
  O  O26  1  0.98455500  0.85551400  0.99855800  1
  O  O27  1  0.73634700  0.11457500  0.80483900  1
  O  O28  1  0.26365300  0.88542500  0.19516100  1
  O  O29  1  0.85841200  0.77375300  0.17444800  1
  O  O30  1  0.81679200  0.29322500  0.61935800  1
  O  O31  1  0.14158800  0.22624700  0.82555200  1
  O  O32  1  0.25863700  0.42894200  0.69573400  1
  O  O33  1  0.70030200  0.46462700  0.83004700  1
  O  O34  1  0.29969800  0.53537300  0.16995300  1
  O  O35  1  0.38870700  0.49766700  0.39830600  1
  O  O36  1  0.98007900  0.64202000  0.52156600  1
  O  O37  1  0.35986800  0.99162400  0.90110100  1
  O  O38  1  0.64013200  0.00837600  0.09889900  1
  O  O39  1  0.34687200  0.28004800  0.23550300  1
  O  O40  1  0.35915000  0.81534600  0.72440700  1
  O  O41  1  0.31605900  0.07929900  0.68777900  1
  O  O42  1  0.74136300  0.57105800  0.30426600  1
  O  O43  1  0.61129300  0.50233300  0.60169400  1
