# generated using pymatgen
data_KHo(PO3)4
_symmetry_space_group_name_H-M   'P 1'
_cell_length_a   7.39837744
_cell_length_b   7.39837744
_cell_length_c   10.51728948
_cell_angle_alpha   78.93951774
_cell_angle_beta   78.93951774
_cell_angle_gamma   115.32313872
_symmetry_Int_Tables_number   1
_chemical_formula_structural   KHo(PO3)4
_chemical_formula_sum   'K2 Ho2 P8 O24'
_cell_volume   485.74070638
_cell_formula_units_Z   2
loop_
 _symmetry_equiv_pos_site_id
 _symmetry_equiv_pos_as_xyz
  1  'x, y, z'
loop_
 _atom_site_type_symbol
 _atom_site_label
 _atom_site_symmetry_multiplicity
 _atom_site_fract_x
 _atom_site_fract_y
 _atom_site_fract_z
 _atom_site_occupancy
  K  K0  1  0.81580100  0.18419900  0.75000000  1
  K  K1  1  0.18419900  0.81580100  0.25000000  1
  Ho  Ho2  1  0.88016600  0.11983400  0.25000000  1
  Ho  Ho3  1  0.11983400  0.88016600  0.75000000  1
  P  P4  1  0.30264100  0.25478200  0.94290100  1
  P  P5  1  0.25478200  0.30264100  0.44290100  1
  P  P6  1  0.74521800  0.69735900  0.55709900  1
  P  P7  1  0.71489700  0.37379600  0.00333100  1
  P  P8  1  0.62620400  0.28510300  0.49666900  1
  P  P9  1  0.28510300  0.62620400  0.99666900  1
  P  P10  1  0.37379600  0.71489700  0.50333100  1
  P  P11  1  0.69735900  0.74521800  0.05709900  1
  O  O12  1  0.72848300  0.47080400  0.56377100  1
  O  O13  1  0.15625000  0.13603200  0.08597400  1
  O  O14  1  0.75324900  0.81605500  0.17409300  1
  O  O15  1  0.84375000  0.86396800  0.91402600  1
  O  O16  1  0.18394500  0.24675100  0.32590700  1
  O  O17  1  0.91025700  0.51396400  0.88464800  1
  O  O18  1  0.13603200  0.15625000  0.58597400  1
  O  O19  1  0.64190800  0.50053900  0.08997900  1
  O  O20  1  0.24675100  0.18394500  0.82590700  1
  O  O21  1  0.35809200  0.49946100  0.91002100  1
  O  O22  1  0.86396800  0.84375000  0.41402600  1
  O  O23  1  0.08974300  0.48603600  0.11535200  1
  O  O24  1  0.51396400  0.91025700  0.38464800  1
  O  O25  1  0.19113400  0.70457600  0.60237900  1
  O  O26  1  0.52919600  0.27151700  0.93622900  1
  O  O27  1  0.80886600  0.29542400  0.39762100  1
  O  O28  1  0.27151700  0.52919600  0.43622900  1
  O  O29  1  0.70457600  0.19113400  0.10237900  1
  O  O30  1  0.29542400  0.80886600  0.89762100  1
  O  O31  1  0.47080400  0.72848300  0.06377100  1
  O  O32  1  0.50053900  0.64190800  0.58997900  1
  O  O33  1  0.49946100  0.35809200  0.41002100  1
  O  O34  1  0.48603600  0.08974300  0.61535200  1
  O  O35  1  0.81605500  0.75324900  0.67409300  1
