# generated using pymatgen
data_ZnS
_symmetry_space_group_name_H-M   'P 1'
_cell_length_a   3.85289616
_cell_length_b   3.85289616
_cell_length_c   75.58036600
_cell_angle_alpha   90.00000000
_cell_angle_beta   90.00000000
_cell_angle_gamma   120.00000276
_symmetry_Int_Tables_number   1
_chemical_formula_structural   ZnS
_chemical_formula_sum   'Zn24 S24'
_cell_volume   971.65976443
_cell_formula_units_Z   24
loop_
 _symmetry_equiv_pos_site_id
 _symmetry_equiv_pos_as_xyz
  1  'x, y, z'
loop_
 _atom_site_type_symbol
 _atom_site_label
 _atom_site_symmetry_multiplicity
 _atom_site_fract_x
 _atom_site_fract_y
 _atom_site_fract_z
 _atom_site_occupancy
  Zn  Zn0  1  0.00000000  0.00000000  0.95833000  1
  Zn  Zn1  1  0.00000000  0.00000000  0.45832900  1
  Zn  Zn2  1  0.33333300  0.66666700  0.37499900  1
  Zn  Zn3  1  0.66666700  0.33333300  0.33332900  1
  Zn  Zn4  1  0.66666700  0.33333300  0.70833400  1
  Zn  Zn5  1  0.00000000  0.00000000  0.08333400  1
  Zn  Zn6  1  0.33333300  0.66666700  0.91667700  1
  Zn  Zn7  1  0.00000000  0.00000000  0.54168200  1
  Zn  Zn8  1  0.00000000  0.00000000  0.20832900  1
  Zn  Zn9  1  0.33333300  0.66666700  0.83333900  1
  Zn  Zn10  1  0.66666700  0.33333300  0.04167200  1
  Zn  Zn11  1  0.33333300  0.66666700  0.12500200  1
  Zn  Zn12  1  0.66666700  0.33333300  0.16667200  1
  Zn  Zn13  1  0.66666700  0.33333300  0.41668200  1
  Zn  Zn14  1  0.33333300  0.66666700  0.49999900  1
  Zn  Zn15  1  0.33333300  0.66666700  0.62500200  1
  Zn  Zn16  1  0.00000000  0.00000000  0.66667200  1
  Zn  Zn17  1  0.00000000  0.00000000  0.29168200  1
  Zn  Zn18  1  0.66666700  0.33333300  0.58333300  1
  Zn  Zn19  1  0.33333300  0.66666700  0.24999900  1
  Zn  Zn20  1  0.00000000  0.00000000  0.79166900  1
  Zn  Zn21  1  0.33333300  0.66666700  0.00001100  1
  Zn  Zn22  1  0.66666700  0.33333300  0.87499900  1
  Zn  Zn23  1  0.33333300  0.66666700  0.74999700  1
  S  S24  1  0.00000000  0.00000000  0.69791600  1
  S  S25  1  0.66666700  0.33333300  0.19791500  1
  S  S26  1  0.66666700  0.33333300  0.44791400  1
  S  S27  1  0.33333300  0.66666700  0.40627300  1
  S  S28  1  0.33333300  0.66666700  0.53127300  1
  S  S29  1  0.00000000  0.00000000  0.57291400  1
  S  S30  1  0.00000000  0.00000000  0.32291400  1
  S  S31  1  0.33333300  0.66666700  0.78122300  1
  S  S32  1  0.33333300  0.66666700  0.86455400  1
  S  S33  1  0.33333300  0.66666700  0.03124700  1
  S  S34  1  0.00000000  0.00000000  0.98960300  1
  S  S35  1  0.33333300  0.66666700  0.15624800  1
  S  S36  1  0.33333300  0.66666700  0.94788900  1
  S  S37  1  0.33333300  0.66666700  0.65624800  1
  S  S38  1  0.66666700  0.33333300  0.73957800  1
  S  S39  1  0.33333300  0.66666700  0.28127300  1
  S  S40  1  0.00000000  0.00000000  0.48955300  1
  S  S41  1  0.66666700  0.33333300  0.36455400  1
  S  S42  1  0.66666700  0.33333300  0.07291500  1
  S  S43  1  0.00000000  0.00000000  0.11457800  1
  S  S44  1  0.66666700  0.33333300  0.61457800  1
  S  S45  1  0.00000000  0.00000000  0.82294000  1
  S  S46  1  0.66666700  0.33333300  0.90627200  1
  S  S47  1  0.00000000  0.00000000  0.23955400  1
