# generated using pymatgen
data_K2Ca2(CO3)3
_symmetry_space_group_name_H-M   'P 1'
_cell_length_a   8.16572462
_cell_length_b   8.16572462
_cell_length_c   8.16572518
_cell_angle_alpha   108.01993052
_cell_angle_beta   108.01993052
_cell_angle_gamma   108.01993810
_symmetry_Int_Tables_number   1
_chemical_formula_structural   K2Ca2(CO3)3
_chemical_formula_sum   'K4 Ca4 C6 O18'
_cell_volume   440.22541678
_cell_formula_units_Z   2
loop_
 _symmetry_equiv_pos_site_id
 _symmetry_equiv_pos_as_xyz
  1  'x, y, z'
loop_
 _atom_site_type_symbol
 _atom_site_label
 _atom_site_symmetry_multiplicity
 _atom_site_fract_x
 _atom_site_fract_y
 _atom_site_fract_z
 _atom_site_occupancy
  K  K0  1  0.12938300  0.12938300  0.12938300  1
  K  K1  1  0.90272200  0.44490200  0.29952600  1
  K  K2  1  0.29952600  0.90272200  0.44490200  1
  K  K3  1  0.44490200  0.29952600  0.90272200  1
  Ca  Ca4  1  0.97526800  0.49192500  0.82831600  1
  Ca  Ca5  1  0.49192500  0.82831600  0.97526800  1
  Ca  Ca6  1  0.82831600  0.97526800  0.49192500  1
  Ca  Ca7  1  0.55290200  0.55290200  0.55290200  1
  C  C8  1  0.58433200  0.19816300  0.38533900  1
  C  C9  1  0.06553300  0.82042700  0.73290700  1
  C  C10  1  0.73290700  0.06553300  0.82042700  1
  C  C11  1  0.82042700  0.73290700  0.06553300  1
  C  C12  1  0.19816300  0.38533900  0.58433200  1
  C  C13  1  0.38533900  0.58433200  0.19816300  1
  O  O14  1  0.64024900  0.89781500  0.66968200  1
  O  O15  1  0.89590600  0.18757700  0.84559300  1
  O  O16  1  0.66320200  0.10719300  0.94196700  1
  O  O17  1  0.52563200  0.28063800  0.28351600  1
  O  O18  1  0.65013900  0.28323800  0.57154500  1
  O  O19  1  0.57517100  0.02810300  0.30332300  1
  O  O20  1  0.28351600  0.52563200  0.28063800  1
  O  O21  1  0.10719300  0.94196700  0.66320200  1
  O  O22  1  0.30332300  0.57517100  0.02810300  1
  O  O23  1  0.57154500  0.65013900  0.28323800  1
  O  O24  1  0.89781500  0.66968200  0.64024900  1
  O  O25  1  0.28063800  0.28351600  0.52563200  1
  O  O26  1  0.84559300  0.89590600  0.18757700  1
  O  O27  1  0.66968200  0.64024900  0.89781500  1
  O  O28  1  0.94196700  0.66320200  0.10719300  1
  O  O29  1  0.02810300  0.30332300  0.57517100  1
  O  O30  1  0.28323800  0.57154500  0.65013900  1
  O  O31  1  0.18757700  0.84559300  0.89590600  1
