# generated using pymatgen
data_Ba2CuF6
_symmetry_space_group_name_H-M   'P 1'
_cell_length_a   8.49515556
_cell_length_b   8.49515556
_cell_length_c   8.49515556
_cell_angle_alpha   151.21642302
_cell_angle_beta   151.21642302
_cell_angle_gamma   41.15870408
_symmetry_Int_Tables_number   1
_chemical_formula_structural   Ba2CuF6
_chemical_formula_sum   'Ba2 Cu1 F6'
_cell_volume   141.82981591
_cell_formula_units_Z   1
loop_
 _symmetry_equiv_pos_site_id
 _symmetry_equiv_pos_as_xyz
  1  'x, y, z'
loop_
 _atom_site_type_symbol
 _atom_site_label
 _atom_site_symmetry_multiplicity
 _atom_site_fract_x
 _atom_site_fract_y
 _atom_site_fract_z
 _atom_site_occupancy
  Ba  Ba0  1  0.14943500  0.14943500  0.00000000  1
  Ba  Ba1  1  0.85056500  0.85056500  0.00000000  1
  Cu  Cu2  1  0.50000000  0.50000000  0.00000000  1
  F  F3  1  0.38034000  0.38034000  0.00000000  1
  F  F4  1  0.00000000  0.50000000  0.50000000  1
  F  F5  1  0.50000000  0.00000000  0.50000000  1
  F  F6  1  0.61966000  0.61966000  0.00000000  1
  F  F7  1  0.25000000  0.75000000  0.50000000  1
  F  F8  1  0.75000000  0.25000000  0.50000000  1
