# generated using pymatgen
data_SiNi2(P2O7)2
_symmetry_space_group_name_H-M   'P 1'
_cell_length_a   8.88591993
_cell_length_b   8.88591993
_cell_length_c   12.34018390
_cell_angle_alpha   76.95620553
_cell_angle_beta   76.95620553
_cell_angle_gamma   32.50807014
_symmetry_Int_Tables_number   1
_chemical_formula_structural   SiNi2(P2O7)2
_chemical_formula_sum   'Si2 Ni4 P8 O28'
_cell_volume   508.97115190
_cell_formula_units_Z   2
loop_
 _symmetry_equiv_pos_site_id
 _symmetry_equiv_pos_as_xyz
  1  'x, y, z'
loop_
 _atom_site_type_symbol
 _atom_site_label
 _atom_site_symmetry_multiplicity
 _atom_site_fract_x
 _atom_site_fract_y
 _atom_site_fract_z
 _atom_site_occupancy
  Si  Si0  1  0.65934400  0.34065600  0.75000000  1
  Si  Si1  1  0.34065600  0.65934400  0.25000000  1
  Ni  Ni2  1  0.89770300  0.59739100  0.37100400  1
  Ni  Ni3  1  0.40260900  0.10229700  0.12899600  1
  Ni  Ni4  1  0.59739100  0.89770300  0.87100400  1
  Ni  Ni5  1  0.10229700  0.40260900  0.62899600  1
  P  P6  1  0.99429300  0.25885600  0.86354300  1
  P  P7  1  0.19800300  0.52946700  0.91612400  1
  P  P8  1  0.00570700  0.74114400  0.13645700  1
  P  P9  1  0.47053300  0.80199700  0.58387600  1
  P  P10  1  0.25885600  0.99429300  0.36354300  1
  P  P11  1  0.52946700  0.19800300  0.41612400  1
  P  P12  1  0.74114400  0.00570700  0.63645700  1
  P  P13  1  0.80199700  0.47053300  0.08387600  1
  O  O14  1  0.80563900  0.10318900  0.67773500  1
  O  O15  1  0.62314600  0.18696300  0.51849200  1
  O  O16  1  0.10318900  0.80563900  0.17773500  1
  O  O17  1  0.69835400  0.01350100  0.12050100  1
  O  O18  1  0.30164600  0.98649900  0.87949900  1
  O  O19  1  0.46797200  0.40463200  0.33233900  1
  O  O20  1  0.19436100  0.89681100  0.32226500  1
  O  O21  1  0.49777600  0.89083900  0.29293700  1
  O  O22  1  0.40463200  0.46797200  0.83233900  1
  O  O23  1  0.89083900  0.49777600  0.79293700  1
  O  O24  1  0.81303700  0.37685400  0.98150800  1
  O  O25  1  0.91780800  0.77216100  0.86815100  1
  O  O26  1  0.77216100  0.91780800  0.36815100  1
  O  O27  1  0.01350100  0.69835400  0.62050100  1
  O  O28  1  0.26098700  0.32978900  0.45558500  1
  O  O29  1  0.22783900  0.08219200  0.63184900  1
  O  O30  1  0.98649900  0.30164600  0.37949900  1
  O  O31  1  0.32978900  0.26098700  0.95558500  1
  O  O32  1  0.37685400  0.81303700  0.48150800  1
  O  O33  1  0.08219200  0.22783900  0.13184900  1
  O  O34  1  0.10916100  0.50222400  0.20706300  1
  O  O35  1  0.73901300  0.67021100  0.54441500  1
  O  O36  1  0.50222400  0.10916100  0.70706300  1
  O  O37  1  0.59536800  0.53202800  0.16766100  1
  O  O38  1  0.89681100  0.19436100  0.82226500  1
  O  O39  1  0.18696300  0.62314600  0.01849200  1
  O  O40  1  0.53202800  0.59536800  0.66766100  1
  O  O41  1  0.67021100  0.73901300  0.04441500  1
