# generated using pymatgen
data_SiO2
_symmetry_space_group_name_H-M   'P 1'
_cell_length_a   15.94091096
_cell_length_b   15.94091096
_cell_length_c   15.94091096
_cell_angle_alpha   100.50687374
_cell_angle_beta   100.50687374
_cell_angle_gamma   129.44172138
_symmetry_Int_Tables_number   1
_chemical_formula_structural   SiO2
_chemical_formula_sum   'Si48 O96'
_cell_volume   2828.73345678
_cell_formula_units_Z   48
loop_
 _symmetry_equiv_pos_site_id
 _symmetry_equiv_pos_as_xyz
  1  'x, y, z'
loop_
 _atom_site_type_symbol
 _atom_site_label
 _atom_site_symmetry_multiplicity
 _atom_site_fract_x
 _atom_site_fract_y
 _atom_site_fract_z
 _atom_site_occupancy
  Si  Si0  1  0.70801700  0.93840300  0.61840700  1
  Si  Si1  1  0.06159700  0.68000400  0.76961500  1
  Si  Si2  1  0.57218300  0.42429400  0.69940100  1
  Si  Si3  1  0.92390300  0.68939800  0.61459200  1
  Si  Si4  1  0.73964300  0.43546400  0.45549300  1
  Si  Si5  1  0.12950100  0.66432700  0.09333100  1
  Si  Si6  1  0.58967600  0.67526400  0.52766800  1
  Si  Si7  1  0.58769100  0.43949200  0.30281400  1
  Si  Si8  1  0.57099600  0.03617000  0.90666900  1
  Si  Si9  1  0.56050800  0.86332300  0.14819900  1
  Si  Si10  1  0.56453600  0.02002900  0.30417900  1
  Si  Si11  1  0.71512300  0.41230900  0.85180100  1
  Si  Si12  1  0.93799200  0.41032400  0.08558700  1
  Si  Si13  1  0.57188700  0.26941500  0.54506900  1
  Si  Si14  1  0.32156100  0.32945400  0.62193800  1
  Si  Si15  1  0.13667700  0.28487700  0.69718600  1
  Si  Si16  1  0.69069000  0.07609700  0.76549600  1
  Si  Si17  1  0.94935900  0.26080400  0.93242700  1
  Si  Si18  1  0.31060200  0.92519400  0.23450400  1
  Si  Si19  1  0.91038900  0.29198300  0.23038500  1
  Si  Si20  1  0.72434600  0.02681900  0.45493100  1
  Si  Si21  1  0.92746200  0.92762700  0.84606500  1
  Si  Si22  1  0.31999600  0.08961100  0.38159300  1
  Si  Si23  1  0.57570600  0.27510600  0.14788900  1
  Si  Si24  1  0.96410900  0.02861500  0.69338500  1
  Si  Si25  1  0.33523000  0.27072400  0.30661500  1
  Si  Si26  1  0.32473600  0.85240400  0.91441300  1
  Si  Si27  1  0.73919600  0.67162300  0.68855500  1
  Si  Si28  1  0.33567300  0.42900400  0.46517400  1
  Si  Si29  1  0.70751700  0.69962400  0.37806200  1
  Si  Si30  1  0.97318100  0.42811300  0.69752700  1
  Si  Si31  1  0.72489400  0.87278300  0.30059900  1
  Si  Si32  1  0.07237300  0.91843800  0.99983500  1
  Si  Si33  1  0.67054600  0.29248300  0.99210700  1
  Si  Si34  1  0.73058500  0.27565400  0.30247300  1
  Si  Si35  1  0.72927600  0.03589100  0.06450500  1
  Si  Si36  1  0.08156200  0.08139700  0.15393500  1
  Si  Si37  1  0.97997100  0.28415000  0.54450700  1
  Si  Si38  1  0.07480600  0.30931000  0.38540800  1
  Si  Si39  1  0.98306800  0.05064100  0.31144500  1
  Si  Si40  1  0.97138500  0.66477000  0.93549500  1
  Si  Si41  1  0.32837700  0.01693200  0.06757300  1
  Si  Si42  1  0.96383000  0.87049900  0.53482600  1
  Si  Si43  1  0.30037600  0.67843900  0.00789300  1
  Si  Si44  1  0.12721700  0.42781700  0.85211100  1
  Si  Si45  1  0.71585000  0.26035700  0.69582100  1
  Si  Si46  1  0.91860300  0.07253800  0.00016500  1
  Si  Si47  1  0.14759600  0.06200800  0.47233200  1
  O  O48  1  0.85879300  0.56604000  0.53175100  1
  O  O49  1  0.16748500  0.38374700  0.78432500  1
  O  O50  1  0.32677100  0.97980000  0.15571400  1
  O  O51  1  0.82894300  0.67322900  0.65302900  1
  O  O52  1  0.68837700  0.75538000  0.31027300  1
  O  O53  1  0.65316500  0.57239700  0.31224700  1
  O  O54  1  0.59942200  0.38316000  0.21567500  1
  O  O55  1  0.63583100  0.92155100  0.08608400  1
  O  O56  1  0.59053200  0.15238400  0.93622000  1
  O  O57  1  0.20709300  0.98271800  0.01668000  1
  O  O58  1  0.04239400  0.44020600  0.79476900  1
  O  O59  1  0.33106900  0.33854500  0.39263900  1
  O  O60  1  0.22032200  0.20124000  0.21270000  1
  O  O61  1  0.44734900  0.56515400  0.48387000  1
  O  O62  1  0.95375800  0.37845700  0.17458700  1
  O  O63  1  0.79876000  0.01146000  0.01908200  1
  O  O64  1  0.07844900  0.16453300  0.71428000  1
  O  O65  1  0.21781000  0.40425600  0.42303400  1
  O  O66  1  0.67295800  0.14120700  0.70724700  1
  O  O67  1  0.66145500  0.05409400  0.99252400  1
  O  O68  1  0.88674100  0.97637100  0.90941500  1
  O  O69  1  0.22082900  0.04624200  0.42469900  1
  O  O70  1  0.63840100  0.68351900  0.44594300  1
  O  O71  1  0.03018300  0.72588400  0.69840100  1
  O  O72  1  0.95613000  0.35232900  0.00510300  1
  O  O73  1  0.05607500  0.33260000  0.89753900  1
  O  O74  1  0.43396000  0.96571100  0.29275300  1
  O  O75  1  0.55842500  0.95641100  0.20763000  1
  O  O76  1  0.23757600  0.19245900  0.55405700  1
  O  O77  1  0.84761600  0.78383600  0.43814800  1
  O  O78  1  0.66821900  0.96981700  0.69570100  1
  O  O79  1  0.02362900  0.93304400  0.91037100  1
  O  O80  1  0.20522400  0.78219000  0.18644500  1
  O  O81  1  0.03428900  0.32704200  0.46824900  1
  O  O82  1  0.61684000  0.83251500  0.21626200  1
  O  O83  1  0.62154300  0.79613000  0.57530100  1
  O  O84  1  0.84566000  0.00551500  0.66723200  1
  O  O85  1  0.61625300  0.40057800  0.78373800  1
  O  O86  1  0.66740000  0.56493900  0.72347600  1
  O  O87  1  0.42760300  0.73985000  0.08076800  1
  O  O88  1  0.98854000  0.00762200  0.78730000  1
  O  O89  1  0.06157000  0.66893100  0.00747600  1
  O  O90  1  0.64767100  0.65277400  0.60380000  1
  O  O91  1  0.00333500  0.39150500  0.61415200  1
  O  O92  1  0.43506100  0.15853600  0.10246100  1
  O  O93  1  0.80958700  0.79290700  0.77562600  1
  O  O94  1  0.84146400  0.94392500  0.27652400  1
  O  O95  1  0.82408600  0.17105700  0.84428600  1
  O  O96  1  0.61081700  0.99666500  0.38817000  1
  O  O97  1  0.08128400  0.96347900  0.51613000  1
  O  O98  1  0.02020000  0.17591400  0.34697100  1
  O  O99  1  0.04358900  0.25122000  0.60201500  1
  O  O100  1  0.74878000  0.35079500  0.79237000  1
  O  O101  1  0.01578600  0.55442000  0.70982100  1
  O  O102  1  0.83879200  0.16812600  0.49434600  1
  O  O103  1  0.69403500  0.98421400  0.53863400  1
  O  O104  1  0.21616400  0.65431200  0.06378000  1
  O  O105  1  0.60849500  0.22264800  0.61183000  1
  O  O106  1  0.34722600  0.95102700  0.99489700  1
  O  O107  1  0.64920500  0.44157500  0.39798500  1
  O  O108  1  0.44510700  0.37810500  0.68972700  1
  O  O109  1  0.03652100  0.55265100  0.11780500  1
  O  O110  1  0.99237800  0.77967800  0.98091800  1
  O  O111  1  0.99448500  0.66171700  0.84014500  1
  O  O112  1  0.02267300  0.11325900  0.08962900  1
  O  O113  1  0.64543700  0.24762500  0.20523100  1
  O  O114  1  0.65908200  0.34683500  0.91923200  1
  O  O115  1  0.83546700  0.54974700  0.91391600  1
  O  O116  1  0.65555400  0.16120800  0.32933400  1
  O  O117  1  0.31648100  0.76242400  0.95488300  1
  O  O118  1  0.27411600  0.97251800  0.30429900  1
  O  O119  1  0.80754100  0.36159900  0.04511700  1
  O  O120  1  0.20387000  0.77917100  0.82541300  1
  O  O121  1  0.01728200  0.03396100  0.22437400  1
  O  O122  1  0.96603900  0.19041300  0.98332000  1
  O  O123  1  0.83187400  0.32622000  0.67066600  1
  O  O124  1  0.77735200  0.38918300  0.38584800  1
  O  O125  1  0.02748200  0.33178100  0.30159900  1
  O  O126  1  0.82157200  0.15434000  0.15985500  1
  O  O127  1  0.67378000  0.34444600  0.50565400  1
  O  O128  1  0.26015000  0.34091800  0.68775300  1
  O  O129  1  0.44558000  0.15540100  0.46136600  1
  O  O130  1  0.75237500  0.95760600  0.39781200  1
  O  O131  1  0.06695600  0.97732700  0.09058500  1
  O  O132  1  0.34568800  0.40946800  0.56185200  1
  O  O133  1  0.94590600  0.93843000  0.60736100  1
  O  O134  1  0.33828300  0.17842800  0.33276800  1
  O  O135  1  0.59574400  0.01877800  0.81355500  1
  O  O136  1  0.04897300  0.04387000  0.39620000  1
  O  O137  1  0.43484600  0.91871600  0.88219500  1
  O  O138  1  0.98122200  0.79477600  0.57696600  1
  O  O139  1  0.55979400  0.35456300  0.60218800  1
  O  O140  1  0.84459900  0.30596500  0.29017900  1
  O  O141  1  0.62189500  0.31162300  0.06700200  1
  O  O142  1  0.24462000  0.55489300  0.93299800  1
  O  O143  1  0.45025300  0.36416900  0.28572000  1
