# generated using pymatgen
data_Cs2CeO3
_symmetry_space_group_name_H-M   'P 1'
_cell_length_a   14.61778800
_cell_length_b   6.89643300
_cell_length_c   7.48297832
_cell_angle_alpha   62.64551859
_cell_angle_beta   90.00000000
_cell_angle_gamma   90.00000000
_symmetry_Int_Tables_number   1
_chemical_formula_structural   Cs2CeO3
_chemical_formula_sum   'Cs8 Ce4 O12'
_cell_volume   670.01111014
_cell_formula_units_Z   4
loop_
 _symmetry_equiv_pos_site_id
 _symmetry_equiv_pos_as_xyz
  1  'x, y, z'
loop_
 _atom_site_type_symbol
 _atom_site_label
 _atom_site_symmetry_multiplicity
 _atom_site_fract_x
 _atom_site_fract_y
 _atom_site_fract_z
 _atom_site_occupancy
  Cs  Cs0  1  0.08291300  0.87573800  0.24448400  1
  Cs  Cs1  1  0.13269600  0.19454900  0.61028500  1
  Cs  Cs2  1  0.58291300  0.12426200  0.75551600  1
  Cs  Cs3  1  0.63269600  0.80545100  0.38971500  1
  Cs  Cs4  1  0.36379300  0.69342900  0.60506100  1
  Cs  Cs5  1  0.41725100  0.37007100  0.24922300  1
  Cs  Cs6  1  0.86379300  0.30657100  0.39493900  1
  Cs  Cs7  1  0.91725100  0.62992900  0.75077700  1
  Ce  Ce8  1  0.34106100  0.01049400  0.97840600  1
  Ce  Ce9  1  0.84106100  0.98950600  0.02159400  1
  Ce  Ce10  1  0.66010000  0.48995700  0.02276300  1
  Ce  Ce11  1  0.16010000  0.51004300  0.97723700  1
  O  O12  1  0.25117600  0.22517500  0.04736900  1
  O  O13  1  0.44566900  0.90798600  0.18413600  1
  O  O14  1  0.36862200  0.16584400  0.67813100  1
  O  O15  1  0.94566900  0.09201400  0.81586400  1
  O  O16  1  0.86862200  0.83415600  0.32186900  1
  O  O17  1  0.75117600  0.77482500  0.95263100  1
  O  O18  1  0.25068100  0.73091700  0.03754900  1
  O  O19  1  0.05551400  0.41029500  0.18233300  1
  O  O20  1  0.13133600  0.65332500  0.67959100  1
  O  O21  1  0.63133600  0.34667500  0.32040900  1
  O  O22  1  0.55551400  0.58970500  0.81766700  1
  O  O23  1  0.75068100  0.26908300  0.96245100  1
