# generated using pymatgen
data_Ba2Sb4P2O17
_symmetry_space_group_name_H-M   'P 1'
_cell_length_a   7.31108000
_cell_length_b   9.68854500
_cell_length_c   21.31115900
_cell_angle_alpha   90.00000000
_cell_angle_beta   90.00000000
_cell_angle_gamma   90.00000000
_symmetry_Int_Tables_number   1
_chemical_formula_structural   Ba2Sb4P2O17
_chemical_formula_sum   'Ba8 Sb16 P8 O68'
_cell_volume   1509.54883099
_cell_formula_units_Z   4
loop_
 _symmetry_equiv_pos_site_id
 _symmetry_equiv_pos_as_xyz
  1  'x, y, z'
loop_
 _atom_site_type_symbol
 _atom_site_label
 _atom_site_symmetry_multiplicity
 _atom_site_fract_x
 _atom_site_fract_y
 _atom_site_fract_z
 _atom_site_occupancy
  Ba  Ba0  1  0.25000000  0.31076300  0.67471400  1
  Ba  Ba1  1  0.25000000  0.15153000  0.47029200  1
  Ba  Ba2  1  0.25000000  0.34847000  0.97029200  1
  Ba  Ba3  1  0.75000000  0.68923700  0.32528600  1
  Ba  Ba4  1  0.75000000  0.84847000  0.52970800  1
  Ba  Ba5  1  0.75000000  0.65153000  0.02970800  1
  Ba  Ba6  1  0.25000000  0.18923700  0.17471400  1
  Ba  Ba7  1  0.75000000  0.81076300  0.82528600  1
  Sb  Sb8  1  0.00137600  0.67095600  0.65864100  1
  Sb  Sb9  1  0.25000000  0.86801100  0.77658700  1
  Sb  Sb10  1  0.99862400  0.17095600  0.84135900  1
  Sb  Sb11  1  0.25000000  0.63198900  0.27658700  1
  Sb  Sb12  1  0.00000000  0.50000000  0.50000000  1
  Sb  Sb13  1  0.75000000  0.13198900  0.22341300  1
  Sb  Sb14  1  0.50137600  0.17095600  0.84135900  1
  Sb  Sb15  1  0.49862400  0.67095600  0.65864100  1
  Sb  Sb16  1  0.75000000  0.36801100  0.72341300  1
  Sb  Sb17  1  0.00000000  0.00000000  0.00000000  1
  Sb  Sb18  1  0.50000000  0.00000000  0.00000000  1
  Sb  Sb19  1  0.00137600  0.82904400  0.15864100  1
  Sb  Sb20  1  0.99862400  0.32904400  0.34135900  1
  Sb  Sb21  1  0.49862400  0.82904400  0.15864100  1
  Sb  Sb22  1  0.50137600  0.32904400  0.34135900  1
  Sb  Sb23  1  0.50000000  0.50000000  0.50000000  1
  P  P24  1  0.25000000  0.75322500  0.92642700  1
  P  P25  1  0.25000000  0.54887000  0.13003200  1
  P  P26  1  0.75000000  0.25322500  0.57357300  1
  P  P27  1  0.25000000  0.74677500  0.42642700  1
  P  P28  1  0.75000000  0.04887000  0.36996800  1
  P  P29  1  0.75000000  0.45113000  0.86996800  1
  P  P30  1  0.75000000  0.24677500  0.07357300  1
  P  P31  1  0.25000000  0.95113000  0.63003200  1
  O  O32  1  0.75000000  0.24021700  0.64687600  1
  O  O33  1  0.94837600  0.02024000  0.18664300  1
  O  O34  1  0.75000000  0.40388800  0.34703800  1
  O  O35  1  0.54618200  0.24861900  0.25623500  1
  O  O36  1  0.92757600  0.16507000  0.05472400  1
  O  O37  1  0.75000000  0.09611200  0.84703800  1
  O  O38  1  0.05162400  0.97976000  0.81335700  1
  O  O39  1  0.07457900  0.86224800  0.61795300  1
  O  O40  1  0.75000000  0.54759600  0.46911900  1
  O  O41  1  0.75000000  0.74980100  0.66585900  1
  O  O42  1  0.25000000  0.61207400  0.95565400  1
  O  O43  1  0.95381800  0.25138100  0.75623500  1
  O  O44  1  0.44837600  0.52024000  0.31335700  1
  O  O45  1  0.75000000  0.91832400  0.40900800  1
  O  O46  1  0.92757600  0.33493000  0.55472400  1
  O  O47  1  0.45212700  0.13098600  0.93125800  1
  O  O48  1  0.04618200  0.75138100  0.74376500  1
  O  O49  1  0.94837600  0.47976000  0.68664300  1
  O  O50  1  0.04787300  0.13098600  0.93125800  1
  O  O51  1  0.04618200  0.74861900  0.24376500  1
  O  O52  1  0.95212700  0.63098600  0.56874200  1
  O  O53  1  0.07457900  0.63775200  0.11795300  1
  O  O54  1  0.25000000  0.41832400  0.09099200  1
  O  O55  1  0.57457900  0.13775200  0.38204700  1
  O  O56  1  0.54618200  0.25138100  0.75623500  1
  O  O57  1  0.25000000  0.88792600  0.45565400  1
  O  O58  1  0.25000000  0.59611200  0.65296200  1
  O  O59  1  0.75000000  0.11207400  0.54434600  1
  O  O60  1  0.25000000  0.90388800  0.15296200  1
  O  O61  1  0.42757600  0.83493000  0.94527600  1
  O  O62  1  0.75000000  0.25978300  0.14687600  1
  O  O63  1  0.75000000  0.75019900  0.16585900  1
  O  O64  1  0.42757600  0.66507000  0.44527600  1
  O  O65  1  0.45381800  0.74861900  0.24376500  1
  O  O66  1  0.25000000  0.75978300  0.35312400  1
  O  O67  1  0.25000000  0.04759600  0.03088100  1
  O  O68  1  0.42542100  0.86224800  0.61795300  1
  O  O69  1  0.92542100  0.13775200  0.38204700  1
  O  O70  1  0.07242400  0.83493000  0.94527600  1
  O  O71  1  0.55162400  0.02024000  0.18664300  1
  O  O72  1  0.25000000  0.50170400  0.20077500  1
  O  O73  1  0.45381800  0.75138100  0.74376500  1
  O  O74  1  0.75000000  0.00170400  0.29922500  1
  O  O75  1  0.54787300  0.86901400  0.06874200  1
  O  O76  1  0.75000000  0.49829600  0.79922500  1
  O  O77  1  0.75000000  0.95240400  0.96911900  1
  O  O78  1  0.95212700  0.86901400  0.06874200  1
  O  O79  1  0.04787300  0.36901400  0.43125800  1
  O  O80  1  0.75000000  0.38792600  0.04434600  1
  O  O81  1  0.54787300  0.63098600  0.56874200  1
  O  O82  1  0.25000000  0.99829600  0.70077500  1
  O  O83  1  0.42542100  0.63775200  0.11795300  1
  O  O84  1  0.44837600  0.97976000  0.81335700  1
  O  O85  1  0.25000000  0.24980100  0.83414100  1
  O  O86  1  0.92542100  0.36224800  0.88204700  1
  O  O87  1  0.25000000  0.25019900  0.33414100  1
  O  O88  1  0.57242400  0.33493000  0.55472400  1
  O  O89  1  0.55162400  0.47976000  0.68664300  1
  O  O90  1  0.95381800  0.24861900  0.25623500  1
  O  O91  1  0.05162400  0.52024000  0.31335700  1
  O  O92  1  0.07242400  0.66507000  0.44527600  1
  O  O93  1  0.25000000  0.08167600  0.59099200  1
  O  O94  1  0.25000000  0.45240400  0.53088100  1
  O  O95  1  0.57242400  0.16507000  0.05472400  1
  O  O96  1  0.45212700  0.36901400  0.43125800  1
  O  O97  1  0.57457900  0.36224800  0.88204700  1
  O  O98  1  0.75000000  0.58167600  0.90900800  1
  O  O99  1  0.25000000  0.74021700  0.85312400  1
