# generated using pymatgen
data_K3Sb2N2O6F7
_symmetry_space_group_name_H-M   'P 1'
_cell_length_a   8.18467597
_cell_length_b   8.18467597
_cell_length_c   7.30705066
_cell_angle_alpha   88.53132172
_cell_angle_beta   88.53132172
_cell_angle_gamma   41.25471972
_symmetry_Int_Tables_number   1
_chemical_formula_structural   K3Sb2N2O6F7
_chemical_formula_sum   'K3 Sb2 N2 O6 F7'
_cell_volume   322.65338223
_cell_formula_units_Z   1
loop_
 _symmetry_equiv_pos_site_id
 _symmetry_equiv_pos_as_xyz
  1  'x, y, z'
loop_
 _atom_site_type_symbol
 _atom_site_label
 _atom_site_symmetry_multiplicity
 _atom_site_fract_x
 _atom_site_fract_y
 _atom_site_fract_z
 _atom_site_occupancy
  K  K0  1  0.78280400  0.78280400  0.74081900  1
  K  K1  1  0.21719600  0.21719600  0.25918100  1
  K  K2  1  0.50000000  0.50000000  0.50000000  1
  Sb  Sb3  1  0.09659700  0.09659700  0.74923000  1
  Sb  Sb4  1  0.90340300  0.90340300  0.25077000  1
  N  N5  1  0.40856500  0.40856500  0.92089600  1
  N  N6  1  0.59143500  0.59143500  0.07910400  1
  O  O7  1  0.39208900  0.39208900  0.09293900  1
  O  O8  1  0.39212000  0.77320600  0.16368100  1
  O  O9  1  0.60788000  0.22679400  0.83631900  1
  O  O10  1  0.22679400  0.60788000  0.83631900  1
  O  O11  1  0.77320600  0.39212000  0.16368100  1
  O  O12  1  0.60791100  0.60791100  0.90706100  1
  F  F13  1  0.61492700  0.08559400  0.41619600  1
  F  F14  1  0.91440600  0.38507300  0.58380400  1
  F  F15  1  0.08559400  0.61492700  0.41619600  1
  F  F16  1  0.78752700  0.78752700  0.12940300  1
  F  F17  1  0.38507300  0.91440600  0.58380400  1
  F  F18  1  0.21247300  0.21247300  0.87059700  1
  F  F19  1  0.00000000  0.00000000  0.50000000  1
