# generated using pymatgen
data_CrO
_symmetry_space_group_name_H-M   'P 1'
_cell_length_a   16.61399800
_cell_length_b   3.03028400
_cell_length_c   3.14725045
_cell_angle_alpha   68.40348843
_cell_angle_beta   90.00000000
_cell_angle_gamma   90.00000000
_symmetry_Int_Tables_number   1
_chemical_formula_structural   CrO
_chemical_formula_sum   'Cr6 O6'
_cell_volume   147.32546415
_cell_formula_units_Z   6
loop_
 _symmetry_equiv_pos_site_id
 _symmetry_equiv_pos_as_xyz
  1  'x, y, z'
loop_
 _atom_site_type_symbol
 _atom_site_label
 _atom_site_symmetry_multiplicity
 _atom_site_fract_x
 _atom_site_fract_y
 _atom_site_fract_z
 _atom_site_occupancy
  Cr  Cr0  1  0.33448600  0.45268200  0.12518100  1
  Cr  Cr1  1  0.00000000  0.04635900  0.33850200  1
  Cr  Cr2  1  0.66551400  0.45268200  0.12518100  1
  Cr  Cr3  1  0.50000000  0.94853800  0.68219000  1
  Cr  Cr4  1  0.83402700  0.54950000  0.86874900  1
  Cr  Cr5  1  0.16597300  0.54950000  0.86874900  1
  O  O6  1  0.25093000  0.01123900  0.97154600  1
  O  O7  1  0.41754100  0.93142900  0.18933500  1
  O  O8  1  0.58245900  0.93142900  0.18933500  1
  O  O9  1  0.74907000  0.01123900  0.97154600  1
  O  O10  1  0.91743500  0.06252000  0.82953100  1
  O  O11  1  0.08256500  0.06252000  0.82953100  1
