# generated using pymatgen
data_H10C3NClO
_symmetry_space_group_name_H-M   'P 1'
_cell_length_a   5.49362800
_cell_length_b   7.70712800
_cell_length_c   14.40948300
_cell_angle_alpha   90.00000000
_cell_angle_beta   90.00000000
_cell_angle_gamma   90.00000000
_symmetry_Int_Tables_number   1
_chemical_formula_structural   H10C3NClO
_chemical_formula_sum   'H40 C12 N4 Cl4 O4'
_cell_volume   610.09886731
_cell_formula_units_Z   4
loop_
 _symmetry_equiv_pos_site_id
 _symmetry_equiv_pos_as_xyz
  1  'x, y, z'
loop_
 _atom_site_type_symbol
 _atom_site_label
 _atom_site_symmetry_multiplicity
 _atom_site_fract_x
 _atom_site_fract_y
 _atom_site_fract_z
 _atom_site_occupancy
  H  H0  1  0.78191700  0.86746900  0.43528500  1
  H  H1  1  0.73746900  0.09041900  0.08093500  1
  H  H2  1  0.04876200  0.25000000  0.27971400  1
  H  H3  1  0.23746900  0.59041900  0.41906500  1
  H  H4  1  0.47291100  0.47747600  0.35567100  1
  H  H5  1  0.52708900  0.52252400  0.64432900  1
  H  H6  1  0.76253100  0.09041900  0.58093500  1
  H  H7  1  0.44401300  0.25000000  0.49875500  1
  H  H8  1  0.76361100  0.09237600  0.70611600  1
  H  H9  1  0.52708900  0.97747600  0.64432900  1
  H  H10  1  0.54876200  0.75000000  0.22028600  1
  H  H11  1  0.23638900  0.59237600  0.29388400  1
  H  H12  1  0.73638900  0.09237600  0.20611600  1
  H  H13  1  0.71808300  0.63253100  0.93528500  1
  H  H14  1  0.47291100  0.02252400  0.35567100  1
  H  H15  1  0.26253100  0.59041900  0.91906500  1
  H  H16  1  0.26361100  0.59237600  0.79388400  1
  H  H17  1  0.73638900  0.40762400  0.20611600  1
  H  H18  1  0.02708900  0.02252400  0.85567100  1
  H  H19  1  0.28191600  0.36746900  0.06471500  1
  H  H20  1  0.78191700  0.63253100  0.43528500  1
  H  H21  1  0.28191600  0.13253100  0.06471500  1
  H  H22  1  0.26253100  0.90958100  0.91906500  1
  H  H23  1  0.76253100  0.40958100  0.58093500  1
  H  H24  1  0.73746900  0.40958100  0.08093500  1
  H  H25  1  0.02708900  0.47747600  0.85567100  1
  H  H26  1  0.23746900  0.90958100  0.41906500  1
  H  H27  1  0.97291100  0.52252400  0.14432900  1
  H  H28  1  0.97291100  0.97747600  0.14432900  1
  H  H29  1  0.94401300  0.75000000  0.00124500  1
  H  H30  1  0.21808300  0.13253100  0.56471500  1
  H  H31  1  0.21808300  0.36746900  0.56471500  1
  H  H32  1  0.55598700  0.75000000  0.50124500  1
  H  H33  1  0.23638900  0.90762400  0.29388400  1
  H  H34  1  0.05598700  0.25000000  0.99875500  1
  H  H35  1  0.76361100  0.40762400  0.70611600  1
  H  H36  1  0.45123800  0.25000000  0.77971400  1
  H  H37  1  0.71808300  0.86746900  0.93528500  1
  H  H38  1  0.95123800  0.75000000  0.72028600  1
  H  H39  1  0.26361100  0.90762400  0.79388400  1
  C  C40  1  0.34998200  0.58956300  0.35621700  1
  C  C41  1  0.67032400  0.75000000  0.43881800  1
  C  C42  1  0.82967600  0.75000000  0.93881800  1
  C  C43  1  0.65001800  0.08956300  0.64378300  1
  C  C44  1  0.84998200  0.08956300  0.14378300  1
  C  C45  1  0.34998200  0.91043700  0.35621700  1
  C  C46  1  0.17032400  0.25000000  0.06118200  1
  C  C47  1  0.32967600  0.25000000  0.56118200  1
  C  C48  1  0.65001800  0.41043700  0.64378300  1
  C  C49  1  0.15001800  0.58956300  0.85621700  1
  C  C50  1  0.84998200  0.41043700  0.14378300  1
  C  C51  1  0.15001800  0.91043700  0.85621700  1
  N  N52  1  0.00374600  0.25000000  0.14304900  1
  N  N53  1  0.49625400  0.25000000  0.64304900  1
  N  N54  1  0.50374600  0.75000000  0.35695100  1
  N  N55  1  0.99625400  0.75000000  0.85695100  1
  Cl  Cl56  1  0.85853700  0.25000000  0.39271800  1
  Cl  Cl57  1  0.35853700  0.75000000  0.10728200  1
  Cl  Cl58  1  0.64146300  0.25000000  0.89271800  1
  Cl  Cl59  1  0.14146300  0.75000000  0.60728200  1
  O  O60  1  0.83879000  0.75000000  0.77764200  1
  O  O61  1  0.66121000  0.75000000  0.27764200  1
  O  O62  1  0.33879000  0.25000000  0.72235800  1
  O  O63  1  0.16121000  0.25000000  0.22235800  1
