# generated using pymatgen
data_Ba3Nb2(P2O9)2
_symmetry_space_group_name_H-M   'P 1'
_cell_length_a   4.97169400
_cell_length_b   9.19303973
_cell_length_c   9.68435108
_cell_angle_alpha   88.41670094
_cell_angle_beta   101.19710113
_cell_angle_gamma   101.62483816
_symmetry_Int_Tables_number   1
_chemical_formula_structural   Ba3Nb2(P2O9)2
_chemical_formula_sum   'Ba3 Nb2 P4 O18'
_cell_volume   425.26101547
_cell_formula_units_Z   1
loop_
 _symmetry_equiv_pos_site_id
 _symmetry_equiv_pos_as_xyz
  1  'x, y, z'
loop_
 _atom_site_type_symbol
 _atom_site_label
 _atom_site_symmetry_multiplicity
 _atom_site_fract_x
 _atom_site_fract_y
 _atom_site_fract_z
 _atom_site_occupancy
  Ba  Ba0  1  0.04783000  0.28281100  0.91054200  1
  Ba  Ba1  1  0.50000000  0.50000000  0.50000000  1
  Ba  Ba2  1  0.95217000  0.71718900  0.08945800  1
  Nb  Nb3  1  0.74357200  0.89165500  0.72853300  1
  Nb  Nb4  1  0.25642800  0.10834500  0.27146700  1
  P  P5  1  0.80825200  0.36629400  0.21745700  1
  P  P6  1  0.69059900  0.86543600  0.35948200  1
  P  P7  1  0.30940100  0.13456400  0.64051800  1
  P  P8  1  0.19174800  0.63370600  0.78254300  1
  O  O9  1  0.55763700  0.00471400  0.36280600  1
  O  O10  1  0.01107800  0.50627300  0.68717700  1
  O  O11  1  0.73765300  0.93787600  0.90516600  1
  O  O12  1  0.24229300  0.19184000  0.48954900  1
  O  O13  1  0.96164600  0.23343900  0.21071400  1
  O  O14  1  0.97042900  0.92244900  0.30314700  1
  O  O15  1  0.45635600  0.69466600  0.71506500  1
  O  O16  1  0.27775600  0.58637600  0.93506100  1
  O  O17  1  0.26234700  0.06212400  0.09483400  1
  O  O18  1  0.44236300  0.99528600  0.63719400  1
  O  O19  1  0.49010000  0.25683500  0.74118100  1
  O  O20  1  0.75770700  0.80816000  0.51045100  1
  O  O21  1  0.03835400  0.76656100  0.78928600  1
  O  O22  1  0.02957100  0.07755100  0.69685300  1
  O  O23  1  0.72224400  0.41362400  0.06493900  1
  O  O24  1  0.98892200  0.49372700  0.31282300  1
  O  O25  1  0.50990000  0.74316500  0.25881900  1
  O  O26  1  0.54364400  0.30533400  0.28493500  1
