# generated using pymatgen
data_LaSc3(BO3)4
_symmetry_space_group_name_H-M   'P 1'
_cell_length_a   6.32020625
_cell_length_b   6.32020625
_cell_length_c   12.18716568
_cell_angle_alpha   80.47144259
_cell_angle_beta   80.47144259
_cell_angle_gamma   103.68583807
_symmetry_Int_Tables_number   1
_chemical_formula_structural   LaSc3(BO3)4
_chemical_formula_sum   'La2 Sc6 B8 O24'
_cell_volume   455.69965732
_cell_formula_units_Z   2
loop_
 _symmetry_equiv_pos_site_id
 _symmetry_equiv_pos_as_xyz
  1  'x, y, z'
loop_
 _atom_site_type_symbol
 _atom_site_label
 _atom_site_symmetry_multiplicity
 _atom_site_fract_x
 _atom_site_fract_y
 _atom_site_fract_z
 _atom_site_occupancy
  La  La0  1  0.82011600  0.74880600  0.25584800  1
  La  La1  1  0.74880600  0.82011600  0.75584800  1
  Sc  Sc2  1  0.21396600  0.36442200  0.75583300  1
  Sc  Sc3  1  0.09386700  0.59025400  0.97975000  1
  Sc  Sc4  1  0.49680900  0.99430500  0.03032200  1
  Sc  Sc5  1  0.36442200  0.21396600  0.25583300  1
  Sc  Sc6  1  0.59025400  0.09386700  0.47975000  1
  Sc  Sc7  1  0.99430500  0.49680900  0.53032200  1
  B  B8  1  0.28364900  0.89681000  0.73158100  1
  B  B9  1  0.06238900  0.01595500  0.50485700  1
  B  B10  1  0.89681000  0.28364900  0.23158100  1
  B  B11  1  0.57321600  0.52010700  0.00552000  1
  B  B12  1  0.01595500  0.06238900  0.00485700  1
  B  B13  1  0.68949000  0.29704300  0.77981400  1
  B  B14  1  0.52010700  0.57321600  0.50552000  1
  B  B15  1  0.29704300  0.68949000  0.27981400  1
  O  O16  1  0.78677700  0.59941200  0.93830400  1
  O  O17  1  0.42943200  0.54650200  0.26677200  1
  O  O18  1  0.30758900  0.49770200  0.57408600  1
  O  O19  1  0.92406300  0.15719100  0.51016200  1
  O  O20  1  0.66138500  0.43510500  0.49878900  1
  O  O21  1  0.23317700  0.68426000  0.79939500  1
  O  O22  1  0.59941200  0.78677700  0.43830400  1
  O  O23  1  0.68426000  0.23317700  0.29939500  1
  O  O24  1  0.02800600  0.13967200  0.24825500  1
  O  O25  1  0.48276200  0.96838300  0.65250900  1
  O  O26  1  0.49770200  0.30758900  0.07408600  1
  O  O27  1  0.27591400  0.08820900  0.43707500  1
  O  O28  1  0.97982200  0.80256500  0.57200200  1
  O  O29  1  0.09688800  0.63093400  0.35737400  1
  O  O30  1  0.80256500  0.97982200  0.07200200  1
  O  O31  1  0.43510500  0.66138500  0.99878900  1
  O  O32  1  0.54650200  0.42943200  0.76677200  1
  O  O33  1  0.90164000  0.36700700  0.71085300  1
  O  O34  1  0.15719100  0.92406300  0.01016200  1
  O  O35  1  0.36700700  0.90164000  0.21085300  1
  O  O36  1  0.08820900  0.27591400  0.93707500  1
  O  O37  1  0.96838300  0.48276200  0.15250900  1
  O  O38  1  0.63093400  0.09688800  0.85737400  1
  O  O39  1  0.13967200  0.02800600  0.74825500  1
