# generated using pymatgen
data_Cr(WO4)3
_symmetry_space_group_name_H-M   'P 1'
_cell_length_a   5.26989200
_cell_length_b   5.38640029
_cell_length_c   7.53658027
_cell_angle_alpha   91.55465828
_cell_angle_beta   90.00513159
_cell_angle_gamma   90.01893407
_symmetry_Int_Tables_number   1
_chemical_formula_structural   Cr(WO4)3
_chemical_formula_sum   'Cr1 W3 O12'
_cell_volume   213.85270555
_cell_formula_units_Z   1
loop_
 _symmetry_equiv_pos_site_id
 _symmetry_equiv_pos_as_xyz
  1  'x, y, z'
loop_
 _atom_site_type_symbol
 _atom_site_label
 _atom_site_symmetry_multiplicity
 _atom_site_fract_x
 _atom_site_fract_y
 _atom_site_fract_z
 _atom_site_occupancy
  Cr  Cr0  1  0.50190900  0.56041500  0.46917500  1
  W  W1  1  0.99944200  0.99523700  0.00477200  1
  W  W2  1  0.01012000  0.05694900  0.50327800  1
  W  W3  1  0.49185900  0.49579400  0.96889000  1
  O  O4  1  0.29743400  0.22579100  0.46289900  1
  O  O5  1  0.06652600  0.99150000  0.75040100  1
  O  O6  1  0.28608800  0.78081600  0.03851400  1
  O  O7  1  0.22766700  0.71307400  0.45645500  1
  O  O8  1  0.78392300  0.70718600  0.96515100  1
  O  O9  1  0.42086600  0.50143100  0.73824300  1
  O  O10  1  0.57819400  0.50800500  0.25866900  1
  O  O11  1  0.21193200  0.28278800  0.03623900  1
  O  O12  1  0.78563400  0.30235000  0.53801600  1
  O  O13  1  0.70943500  0.20925600  0.96681200  1
  O  O14  1  0.92672600  0.99473900  0.25447500  1
  O  O15  1  0.70224400  0.78426900  0.53321100  1
