# generated using pymatgen
data_Na4Si3(SnO6)2
_symmetry_space_group_name_H-M   'P 1'
_cell_length_a   9.10055852
_cell_length_b   9.10055852
_cell_length_c   9.10055889
_cell_angle_alpha   60.44765022
_cell_angle_beta   60.44765022
_cell_angle_gamma   60.44765460
_symmetry_Int_Tables_number   1
_chemical_formula_structural   Na4Si3(SnO6)2
_chemical_formula_sum   'Na8 Si6 Sn4 O24'
_cell_volume   538.34696950
_cell_formula_units_Z   2
loop_
 _symmetry_equiv_pos_site_id
 _symmetry_equiv_pos_as_xyz
  1  'x, y, z'
loop_
 _atom_site_type_symbol
 _atom_site_label
 _atom_site_symmetry_multiplicity
 _atom_site_fract_x
 _atom_site_fract_y
 _atom_site_fract_z
 _atom_site_occupancy
  Na  Na0  1  0.00000000  0.00000000  0.00000000  1
  Na  Na1  1  0.75000000  0.38317600  0.11682400  1
  Na  Na2  1  0.38317600  0.11682400  0.75000000  1
  Na  Na3  1  0.11682400  0.75000000  0.38317600  1
  Na  Na4  1  0.88317600  0.25000000  0.61682400  1
  Na  Na5  1  0.50000000  0.50000000  0.50000000  1
  Na  Na6  1  0.61682400  0.88317600  0.25000000  1
  Na  Na7  1  0.25000000  0.61682400  0.88317600  1
  Si  Si8  1  0.45569100  0.75000000  0.04430900  1
  Si  Si9  1  0.25000000  0.95569100  0.54430900  1
  Si  Si10  1  0.54430900  0.25000000  0.95569100  1
  Si  Si11  1  0.04430900  0.45569100  0.75000000  1
  Si  Si12  1  0.95569100  0.54430900  0.25000000  1
  Si  Si13  1  0.75000000  0.04430900  0.45569100  1
  Sn  Sn14  1  0.64663500  0.64663500  0.64663500  1
  Sn  Sn15  1  0.14663500  0.14663500  0.14663500  1
  Sn  Sn16  1  0.85336500  0.85336500  0.85336500  1
  Sn  Sn17  1  0.35336500  0.35336500  0.35336500  1
  O  O18  1  0.28084300  0.13020700  0.51994000  1
  O  O19  1  0.73025200  0.07793900  0.93571200  1
  O  O20  1  0.92206100  0.06428800  0.26974800  1
  O  O21  1  0.98006000  0.36979300  0.21915700  1
  O  O22  1  0.63020700  0.78084300  0.01994000  1
  O  O23  1  0.78084300  0.01994000  0.63020700  1
  O  O24  1  0.36979300  0.21915700  0.98006000  1
  O  O25  1  0.21915700  0.98006000  0.36979300  1
  O  O26  1  0.42206100  0.76974800  0.56428800  1
  O  O27  1  0.56428800  0.42206100  0.76974800  1
  O  O28  1  0.07793900  0.93571200  0.73025200  1
  O  O29  1  0.71915700  0.86979300  0.48006000  1
  O  O30  1  0.23025200  0.43571200  0.57793900  1
  O  O31  1  0.93571200  0.73025200  0.07793900  1
  O  O32  1  0.57793900  0.23025200  0.43571200  1
  O  O33  1  0.51994000  0.28084300  0.13020700  1
  O  O34  1  0.13020700  0.51994000  0.28084300  1
  O  O35  1  0.26974800  0.92206100  0.06428800  1
  O  O36  1  0.43571200  0.57793900  0.23025200  1
  O  O37  1  0.76974800  0.56428800  0.42206100  1
  O  O38  1  0.06428800  0.26974800  0.92206100  1
  O  O39  1  0.86979300  0.48006000  0.71915700  1
  O  O40  1  0.48006000  0.71915700  0.86979300  1
  O  O41  1  0.01994000  0.63020700  0.78084300  1
