# generated using pymatgen
data_Nb2AgPS10
_symmetry_space_group_name_H-M   'P 1'
_cell_length_a   13.31204296
_cell_length_b   13.31204296
_cell_length_c   13.05949112
_cell_angle_alpha   86.43852292
_cell_angle_beta   86.43852292
_cell_angle_gamma   36.02542995
_symmetry_Int_Tables_number   1
_chemical_formula_structural   Nb2AgPS10
_chemical_formula_sum   'Nb8 Ag4 P4 S40'
_cell_volume   1358.22283924
_cell_formula_units_Z   4
loop_
 _symmetry_equiv_pos_site_id
 _symmetry_equiv_pos_as_xyz
  1  'x, y, z'
loop_
 _atom_site_type_symbol
 _atom_site_label
 _atom_site_symmetry_multiplicity
 _atom_site_fract_x
 _atom_site_fract_y
 _atom_site_fract_z
 _atom_site_occupancy
  Nb  Nb0  1  0.20263400  0.06730800  0.28653500  1
  Nb  Nb1  1  0.91480000  0.81179800  0.50481200  1
  Nb  Nb2  1  0.08520000  0.18820200  0.49518800  1
  Nb  Nb3  1  0.93269200  0.79736600  0.21346500  1
  Nb  Nb4  1  0.79736600  0.93269200  0.71346500  1
  Nb  Nb5  1  0.06730800  0.20263400  0.78653500  1
  Nb  Nb6  1  0.18820200  0.08520000  0.99518800  1
  Nb  Nb7  1  0.81179800  0.91480000  0.00481200  1
  Ag  Ag8  1  0.58597900  0.52858100  0.90438700  1
  Ag  Ag9  1  0.47141900  0.41402100  0.59561300  1
  Ag  Ag10  1  0.41402100  0.47141900  0.09561300  1
  Ag  Ag11  1  0.52858100  0.58597900  0.40438700  1
  P  P12  1  0.53369600  0.27869400  0.86657700  1
  P  P13  1  0.27869400  0.53369600  0.36657700  1
  P  P14  1  0.72130600  0.46630400  0.63342300  1
  P  P15  1  0.46630400  0.72130600  0.13342300  1
  S  S16  1  0.20079100  0.92998700  0.14618100  1
  S  S17  1  0.14972000  0.26000600  0.63226400  1
  S  S18  1  0.51089600  0.78145600  0.00634400  1
  S  S19  1  0.74083400  0.52346300  0.76941000  1
  S  S20  1  0.94663500  0.18132900  0.93036100  1
  S  S21  1  0.73999400  0.85028000  0.86773600  1
  S  S22  1  0.78145600  0.51089600  0.50634400  1
  S  S23  1  0.59757700  0.48579000  0.11457400  1
  S  S24  1  0.93239200  0.65825000  0.09310300  1
  S  S25  1  0.51421000  0.40242300  0.38542600  1
  S  S26  1  0.85028000  0.73999400  0.36773600  1
  S  S27  1  0.34175000  0.06760800  0.40689700  1
  S  S28  1  0.40242300  0.51421000  0.88542600  1
  S  S29  1  0.88847100  0.69476000  0.64145000  1
  S  S30  1  0.05336500  0.81867100  0.06963900  1
  S  S31  1  0.48910400  0.21854400  0.99365600  1
  S  S32  1  0.18132900  0.94663500  0.43036100  1
  S  S33  1  0.98598500  0.70385600  0.85645600  1
  S  S34  1  0.29614400  0.01401500  0.64354400  1
  S  S35  1  0.17927200  0.95220400  0.87044900  1
  S  S36  1  0.04779600  0.82072800  0.62955100  1
  S  S37  1  0.69476000  0.88847100  0.14145000  1
  S  S38  1  0.79920900  0.07001300  0.85381900  1
  S  S39  1  0.82072800  0.04779600  0.12955100  1
  S  S40  1  0.26000600  0.14972000  0.13226400  1
  S  S41  1  0.48579000  0.59757700  0.61457400  1
  S  S42  1  0.30524000  0.11152900  0.85855000  1
  S  S43  1  0.52346300  0.74083400  0.26941000  1
  S  S44  1  0.11152900  0.30524000  0.35855000  1
  S  S45  1  0.47653700  0.25916600  0.73059000  1
  S  S46  1  0.81867100  0.05336500  0.56963900  1
  S  S47  1  0.25916600  0.47653700  0.23059000  1
  S  S48  1  0.70385600  0.98598500  0.35645600  1
  S  S49  1  0.95220400  0.17927200  0.37044900  1
  S  S50  1  0.07001300  0.79920900  0.35381900  1
  S  S51  1  0.92998700  0.20079100  0.64618100  1
  S  S52  1  0.06760800  0.34175000  0.90689700  1
  S  S53  1  0.21854400  0.48910400  0.49365600  1
  S  S54  1  0.65825000  0.93239200  0.59310300  1
  S  S55  1  0.01401500  0.29614400  0.14354400  1
