# generated using pymatgen
data_CaB2(H6O5)2
_symmetry_space_group_name_H-M   'P 1'
_cell_length_a   6.58790700
_cell_length_b   8.01053700
_cell_length_c   8.02557565
_cell_angle_alpha   75.70170379
_cell_angle_beta   90.00000000
_cell_angle_gamma   90.00000000
_symmetry_Int_Tables_number   1
_chemical_formula_structural   CaB2(H6O5)2
_chemical_formula_sum   'Ca2 B4 H24 O20'
_cell_volume   410.41138745
_cell_formula_units_Z   2
loop_
 _symmetry_equiv_pos_site_id
 _symmetry_equiv_pos_as_xyz
  1  'x, y, z'
loop_
 _atom_site_type_symbol
 _atom_site_label
 _atom_site_symmetry_multiplicity
 _atom_site_fract_x
 _atom_site_fract_y
 _atom_site_fract_z
 _atom_site_occupancy
  Ca  Ca0  1  0.96991100  0.00000000  0.25000000  1
  Ca  Ca1  1  0.03008900  0.00000000  0.75000000  1
  B  B2  1  0.27491000  0.81623400  0.06798000  1
  B  B3  1  0.72509000  0.18376600  0.93202000  1
  B  B4  1  0.27491000  0.18376600  0.43202000  1
  B  B5  1  0.72509000  0.81623400  0.56798000  1
  H  H6  1  0.66650800  0.36719800  0.42612200  1
  H  H7  1  0.90424000  0.37811100  0.40415800  1
  H  H8  1  0.90424000  0.62188900  0.09584200  1
  H  H9  1  0.09576000  0.62188900  0.59584200  1
  H  H10  1  0.33349200  0.63280200  0.57387800  1
  H  H11  1  0.23279100  0.35344100  0.58452500  1
  H  H12  1  0.16572100  0.33776700  0.19712400  1
  H  H13  1  0.66650800  0.63280200  0.07387800  1
  H  H14  1  0.09576000  0.37811100  0.90415800  1
  H  H15  1  0.47655800  0.78424700  0.74373000  1
  H  H16  1  0.23279100  0.64655900  0.91547500  1
  H  H17  1  0.83427900  0.66223300  0.80287600  1
  H  H18  1  0.83427900  0.33776700  0.69712400  1
  H  H19  1  0.34053800  0.08250900  0.98663200  1
  H  H20  1  0.76720900  0.64655900  0.41547500  1
  H  H21  1  0.47655800  0.21575300  0.75627000  1
  H  H22  1  0.16572100  0.66223300  0.30287600  1
  H  H23  1  0.52344200  0.21575300  0.25627000  1
  H  H24  1  0.65946200  0.91749100  0.01336800  1
  H  H25  1  0.76720900  0.35344100  0.08452500  1
  H  H26  1  0.65946200  0.08250900  0.48663200  1
  H  H27  1  0.52344200  0.78424700  0.24373000  1
  H  H28  1  0.33349200  0.36719800  0.92612200  1
  H  H29  1  0.34053800  0.91749100  0.51336800  1
  O  O30  1  0.74639400  0.77271400  0.40015200  1
  O  O31  1  0.77450800  0.99545200  0.96579000  1
  O  O32  1  0.21057200  0.42257700  0.96107200  1
  O  O33  1  0.25360600  0.77271400  0.90015200  1
  O  O34  1  0.77450800  0.00454800  0.53421000  1
  O  O35  1  0.74639400  0.22728600  0.09984800  1
  O  O36  1  0.48481700  0.77419000  0.12794700  1
  O  O37  1  0.22549200  0.99545200  0.46579000  1
  O  O38  1  0.11577500  0.73040400  0.19038300  1
  O  O39  1  0.51518300  0.22581000  0.87205300  1
  O  O40  1  0.21057200  0.57742300  0.53892800  1
  O  O41  1  0.78942800  0.57742300  0.03892800  1
  O  O42  1  0.11577500  0.26959600  0.30961700  1
  O  O43  1  0.88422500  0.73040400  0.69038300  1
  O  O44  1  0.48481700  0.22581000  0.37205300  1
  O  O45  1  0.51518300  0.77419000  0.62794700  1
  O  O46  1  0.78942800  0.42257700  0.46107200  1
  O  O47  1  0.25360600  0.22728600  0.59984800  1
  O  O48  1  0.88422500  0.26959600  0.80961700  1
  O  O49  1  0.22549200  0.00454800  0.03421000  1
