# generated using pymatgen
data_BaH2C4S4N2(O3F4)3
_symmetry_space_group_name_H-M   'P 1'
_cell_length_a   22.84570600
_cell_length_b   8.78234000
_cell_length_c   13.29950539
_cell_angle_alpha   48.70095044
_cell_angle_beta   90.00000000
_cell_angle_gamma   90.00000000
_symmetry_Int_Tables_number   1
_chemical_formula_structural   BaH2C4S4N2(O3F4)3
_chemical_formula_sum   'Ba4 H8 C16 S16 N8 O36 F48'
_cell_volume   2004.69960245
_cell_formula_units_Z   4
loop_
 _symmetry_equiv_pos_site_id
 _symmetry_equiv_pos_as_xyz
  1  'x, y, z'
loop_
 _atom_site_type_symbol
 _atom_site_label
 _atom_site_symmetry_multiplicity
 _atom_site_fract_x
 _atom_site_fract_y
 _atom_site_fract_z
 _atom_site_occupancy
  Ba  Ba0  1  0.74939200  0.29095900  0.84112100  1
  Ba  Ba1  1  0.25060800  0.70904100  0.15887900  1
  Ba  Ba2  1  0.75060800  0.29095900  0.34112100  1
  Ba  Ba3  1  0.24939200  0.70904100  0.65887900  1
  H  H4  1  0.77026600  0.70047000  0.50836300  1
  H  H5  1  0.27026600  0.29953000  0.99163700  1
  H  H6  1  0.25774300  0.45975900  0.49403000  1
  H  H7  1  0.75774300  0.54024100  0.00597000  1
  H  H8  1  0.24225700  0.45975900  0.99403000  1
  H  H9  1  0.22973400  0.29953000  0.49163700  1
  H  H10  1  0.74225700  0.54024100  0.50597000  1
  H  H11  1  0.72973400  0.70047000  0.00836300  1
  C  C12  1  0.07742600  0.71884500  0.92842500  1
  C  C13  1  0.42133700  0.16325200  0.92160300  1
  C  C14  1  0.57742600  0.28115500  0.57157500  1
  C  C15  1  0.59087700  0.14681700  0.21371400  1
  C  C16  1  0.58725500  0.69819200  0.70978400  1
  C  C17  1  0.90912300  0.14681700  0.71371400  1
  C  C18  1  0.41274500  0.30180800  0.29021600  1
  C  C19  1  0.07866300  0.16325200  0.42160300  1
  C  C20  1  0.92257400  0.28115500  0.07157500  1
  C  C21  1  0.92133700  0.83674800  0.57839700  1
  C  C22  1  0.42257400  0.71884500  0.42842500  1
  C  C23  1  0.09087700  0.85318300  0.28628600  1
  C  C24  1  0.91274500  0.69819200  0.20978400  1
  C  C25  1  0.08725500  0.30180800  0.79021600  1
  C  C26  1  0.40912300  0.85318300  0.78628600  1
  C  C27  1  0.57866300  0.83674800  0.07839700  1
  S  S28  1  0.83723600  0.08401000  0.67892800  1
  S  S29  1  0.15390100  0.20601700  0.34969800  1
  S  S30  1  0.34027800  0.17323500  0.32285900  1
  S  S31  1  0.66276400  0.08401000  0.17892800  1
  S  S32  1  0.84787800  0.17493800  0.14737500  1
  S  S33  1  0.15972200  0.17323500  0.82285900  1
  S  S34  1  0.16276400  0.91599000  0.32107200  1
  S  S35  1  0.65390100  0.79398300  0.15030200  1
  S  S36  1  0.84027800  0.82676500  0.17714100  1
  S  S37  1  0.33723600  0.91599000  0.82107200  1
  S  S38  1  0.34787800  0.82506200  0.35262500  1
  S  S39  1  0.65212200  0.17493800  0.64737500  1
  S  S40  1  0.34609900  0.20601700  0.84969800  1
  S  S41  1  0.15212200  0.82506200  0.85262500  1
  S  S42  1  0.65972200  0.82676500  0.67714100  1
  S  S43  1  0.84609900  0.79398300  0.65030200  1
  N  N44  1  0.65153300  0.86173900  0.23447000  1
  N  N45  1  0.84846700  0.86173900  0.73447000  1
  N  N46  1  0.34846700  0.13826100  0.76553000  1
  N  N47  1  0.35153600  0.06169400  0.26734200  1
  N  N48  1  0.14846400  0.06169400  0.76734200  1
  N  N49  1  0.15153300  0.13826100  0.26553000  1
  N  N50  1  0.85153600  0.93830600  0.23265800  1
  N  N51  1  0.64846400  0.93830600  0.73265800  1
  O  O52  1  0.24740100  0.43395600  0.43536600  1
  O  O53  1  0.80808000  0.28396700  0.03360400  1
  O  O54  1  0.69192000  0.28396700  0.53360400  1
  O  O55  1  0.80755800  0.91242400  0.53409200  1
  O  O56  1  0.67222000  0.23967000  0.03551100  1
  O  O57  1  0.30808000  0.71603300  0.46639600  1
  O  O58  1  0.67007500  0.95748400  0.53415700  1
  O  O59  1  0.69244200  0.91242400  0.03409200  1
  O  O60  1  0.25259900  0.43395600  0.93536600  1
  O  O61  1  0.30042700  0.34215200  0.23388800  1
  O  O62  1  0.19957300  0.34215200  0.73388800  1
  O  O63  1  0.82992500  0.95748400  0.03415700  1
  O  O64  1  0.17007500  0.04251600  0.96584300  1
  O  O65  1  0.34166800  0.78955700  0.26118800  1
  O  O66  1  0.17222000  0.76033000  0.46448900  1
  O  O67  1  0.83932500  0.57597900  0.74196400  1
  O  O68  1  0.84166800  0.21044300  0.23881200  1
  O  O69  1  0.29658900  0.92460100  0.73348900  1
  O  O70  1  0.32778000  0.76033000  0.96448900  1
  O  O71  1  0.69957300  0.65784800  0.76611200  1
  O  O72  1  0.19244200  0.08757600  0.46590800  1
  O  O73  1  0.74740100  0.56604400  0.06463400  1
  O  O74  1  0.80042700  0.65784800  0.26611200  1
  O  O75  1  0.70341100  0.07539900  0.26651100  1
  O  O76  1  0.19192000  0.71603300  0.96639600  1
  O  O77  1  0.65833200  0.21044300  0.73881200  1
  O  O78  1  0.75259900  0.56604400  0.56463400  1
  O  O79  1  0.15833200  0.78955700  0.76118800  1
  O  O80  1  0.82778000  0.23967000  0.53551100  1
  O  O81  1  0.16067500  0.42402100  0.25803600  1
  O  O82  1  0.20341100  0.92460100  0.23348900  1
  O  O83  1  0.32992500  0.04251600  0.46584300  1
  O  O84  1  0.33932500  0.42402100  0.75803600  1
  O  O85  1  0.66067500  0.57597900  0.24196400  1
  O  O86  1  0.30755800  0.08757600  0.96590800  1
  O  O87  1  0.79658900  0.07539900  0.76651100  1
  F  F88  1  0.53849300  0.73749600  0.17726300  1
  F  F89  1  0.59389800  0.57063100  0.68664600  1
  F  F90  1  0.92307400  0.48065000  0.00639200  1
  F  F91  1  0.56643600  0.03704300  0.99143200  1
  F  F92  1  0.95131300  0.17868500  0.63090200  1
  F  F93  1  0.92301600  0.76763800  0.51324600  1
  F  F94  1  0.42301600  0.23236200  0.98675400  1
  F  F95  1  0.93496100  0.25578000  0.98418700  1
  F  F96  1  0.40150400  0.68213300  0.80623900  1
  F  F97  1  0.07089600  0.40906400  0.66196800  1
  F  F98  1  0.54531500  0.83476100  0.62828700  1
  F  F99  1  0.93356400  0.03704300  0.49143200  1
  F  F100  1  0.96350300  0.18605100  0.16880200  1
  F  F101  1  0.06643600  0.96295700  0.50856800  1
  F  F102  1  0.07698400  0.23236200  0.48675400  1
  F  F103  1  0.53649700  0.18605100  0.66880200  1
  F  F104  1  0.42543000  0.00454100  0.65859700  1
  F  F105  1  0.42910400  0.40906400  0.16196800  1
  F  F106  1  0.42307400  0.51935000  0.49360800  1
  F  F107  1  0.96150700  0.73749600  0.67726300  1
  F  F108  1  0.57692600  0.48065000  0.50639200  1
  F  F109  1  0.90150400  0.31786700  0.69376100  1
  F  F110  1  0.57698400  0.76763800  0.01324600  1
  F  F111  1  0.92543000  0.99545900  0.84140300  1
  F  F112  1  0.09849600  0.68213300  0.30623900  1
  F  F113  1  0.40610200  0.42936900  0.31335400  1
  F  F114  1  0.54868700  0.17868500  0.13090200  1
  F  F115  1  0.03649700  0.81394900  0.83119800  1
  F  F116  1  0.45468500  0.16523900  0.37171300  1
  F  F117  1  0.43356400  0.96295700  0.00856800  1
  F  F118  1  0.43496100  0.74422000  0.51581300  1
  F  F119  1  0.57089600  0.59093600  0.83803200  1
  F  F120  1  0.90610200  0.57063100  0.18664600  1
  F  F121  1  0.07457000  0.00454100  0.15859700  1
  F  F122  1  0.04868700  0.82131500  0.36909800  1
  F  F123  1  0.45131300  0.82131500  0.86909800  1
  F  F124  1  0.56503900  0.25578000  0.48418700  1
  F  F125  1  0.92910400  0.59093600  0.33803200  1
  F  F126  1  0.04531500  0.16523900  0.87171300  1
  F  F127  1  0.06503900  0.74422000  0.01581300  1
  F  F128  1  0.46350300  0.81394900  0.33119800  1
  F  F129  1  0.57457000  0.99545900  0.34140300  1
  F  F130  1  0.95468500  0.83476100  0.12828700  1
  F  F131  1  0.09389800  0.42936900  0.81335400  1
  F  F132  1  0.59849600  0.31786700  0.19376100  1
  F  F133  1  0.07692600  0.51935000  0.99360800  1
  F  F134  1  0.46150700  0.26250400  0.82273700  1
  F  F135  1  0.03849300  0.26250400  0.32273700  1
