# generated using pymatgen
data_Cs5YO4
_symmetry_space_group_name_H-M   'P 1'
_cell_length_a   13.43543600
_cell_length_b   7.57457400
_cell_length_c   11.91726019
_cell_angle_alpha   81.59415083
_cell_angle_beta   90.00000000
_cell_angle_gamma   90.00000000
_symmetry_Int_Tables_number   1
_chemical_formula_structural   Cs5YO4
_chemical_formula_sum   'Cs20 Y4 O16'
_cell_volume   1199.76368558
_cell_formula_units_Z   4
loop_
 _symmetry_equiv_pos_site_id
 _symmetry_equiv_pos_as_xyz
  1  'x, y, z'
loop_
 _atom_site_type_symbol
 _atom_site_label
 _atom_site_symmetry_multiplicity
 _atom_site_fract_x
 _atom_site_fract_y
 _atom_site_fract_z
 _atom_site_occupancy
  Cs  Cs0  1  0.92443900  0.23745700  0.00872400  1
  Cs  Cs1  1  0.57556100  0.73745700  0.00872400  1
  Cs  Cs2  1  0.18143500  0.16752800  0.14806400  1
  Cs  Cs3  1  0.31856500  0.66752800  0.14806400  1
  Cs  Cs4  1  0.69690100  0.00122300  0.23110900  1
  Cs  Cs5  1  0.80309900  0.50122300  0.23110900  1
  Cs  Cs6  1  0.07239500  0.43851800  0.37121500  1
  Cs  Cs7  1  0.42760500  0.93851800  0.37121500  1
  Cs  Cs8  1  0.85618000  0.07874200  0.50077000  1
  Cs  Cs9  1  0.35618000  0.42125800  0.49923000  1
  Cs  Cs10  1  0.64382000  0.57874200  0.50077000  1
  Cs  Cs11  1  0.14382000  0.92125800  0.49923000  1
  Cs  Cs12  1  0.57239500  0.06148200  0.62878500  1
  Cs  Cs13  1  0.92760500  0.56148200  0.62878500  1
  Cs  Cs14  1  0.19690100  0.49877700  0.76889100  1
  Cs  Cs15  1  0.30309900  0.99877700  0.76889100  1
  Cs  Cs16  1  0.68143500  0.33247200  0.85193600  1
  Cs  Cs17  1  0.81856500  0.83247200  0.85193600  1
  Cs  Cs18  1  0.42443900  0.26254300  0.99127600  1
  Cs  Cs19  1  0.07556100  0.76254300  0.99127600  1
  Y  Y20  1  0.53310800  0.38782500  0.25487400  1
  Y  Y21  1  0.96689200  0.88782500  0.25487400  1
  Y  Y22  1  0.03310800  0.11217500  0.74512600  1
  Y  Y23  1  0.46689200  0.61217500  0.74512600  1
  O  O24  1  0.61142000  0.34992400  0.09951100  1
  O  O25  1  0.88858000  0.84992400  0.09951100  1
  O  O26  1  0.37727600  0.31279600  0.23901100  1
  O  O27  1  0.96113000  0.16734600  0.27378100  1
  O  O28  1  0.12272400  0.81279600  0.23901100  1
  O  O29  1  0.53887000  0.66734600  0.27378100  1
  O  O30  1  0.60647400  0.23486100  0.39892700  1
  O  O31  1  0.89352600  0.73486100  0.39892700  1
  O  O32  1  0.10647400  0.26513900  0.60107300  1
  O  O33  1  0.39352600  0.76513900  0.60107300  1
  O  O34  1  0.46113000  0.33265400  0.72621900  1
  O  O35  1  0.87727600  0.18720400  0.76098900  1
  O  O36  1  0.03887000  0.83265400  0.72621900  1
  O  O37  1  0.62272400  0.68720400  0.76098900  1
  O  O38  1  0.11142000  0.15007600  0.90048900  1
  O  O39  1  0.38858000  0.65007600  0.90048900  1
