# generated using pymatgen
data_Ni2P2O7
_symmetry_space_group_name_H-M   'P 1'
_cell_length_a   4.51391612
_cell_length_b   5.26670698
_cell_length_c   9.99343900
_cell_angle_alpha   90.00000000
_cell_angle_beta   90.00000000
_cell_angle_gamma   97.47334163
_symmetry_Int_Tables_number   1
_chemical_formula_structural   Ni2P2O7
_chemical_formula_sum   'Ni4 P4 O14'
_cell_volume   235.56064128
_cell_formula_units_Z   2
loop_
 _symmetry_equiv_pos_site_id
 _symmetry_equiv_pos_as_xyz
  1  'x, y, z'
loop_
 _atom_site_type_symbol
 _atom_site_label
 _atom_site_symmetry_multiplicity
 _atom_site_fract_x
 _atom_site_fract_y
 _atom_site_fract_z
 _atom_site_occupancy
  Ni  Ni0  1  0.09615500  0.41703400  0.65668900  1
  Ni  Ni1  1  0.09615500  0.91703400  0.84331100  1
  Ni  Ni2  1  0.90384500  0.58296600  0.34331100  1
  Ni  Ni3  1  0.90384500  0.08296600  0.15668900  1
  P  P4  1  0.35791000  0.15735200  0.38857200  1
  P  P5  1  0.64209000  0.34264800  0.88857200  1
  P  P6  1  0.35791000  0.65735200  0.11142800  1
  P  P7  1  0.64209000  0.84264800  0.61142800  1
  O  O8  1  0.50000000  0.50000000  0.00000000  1
  O  O9  1  0.50000000  0.00000000  0.50000000  1
  O  O10  1  0.12001700  0.96376400  0.32078500  1
  O  O11  1  0.87998300  0.03623600  0.67921500  1
  O  O12  1  0.12001700  0.46376400  0.17921500  1
  O  O13  1  0.87998300  0.53623600  0.82078500  1
  O  O14  1  0.38272800  0.73816000  0.70350500  1
  O  O15  1  0.38272800  0.23816000  0.79649500  1
  O  O16  1  0.61727200  0.76184000  0.20350500  1
  O  O17  1  0.61727200  0.26184000  0.29649500  1
  O  O18  1  0.78667700  0.62902800  0.54145600  1
  O  O19  1  0.78667700  0.12902800  0.95854400  1
  O  O20  1  0.21332300  0.37097200  0.45854400  1
  O  O21  1  0.21332300  0.87097200  0.04145600  1
