# generated using pymatgen
data_Rb2Mo2O7
_symmetry_space_group_name_H-M   'P 1'
_cell_length_a   8.41308241
_cell_length_b   8.41308241
_cell_length_c   12.18651800
_cell_angle_alpha   90.00000000
_cell_angle_beta   90.00000000
_cell_angle_gamma   102.79279255
_symmetry_Int_Tables_number   1
_chemical_formula_structural   Rb2Mo2O7
_chemical_formula_sum   'Rb8 Mo8 O28'
_cell_volume   841.15003384
_cell_formula_units_Z   4
loop_
 _symmetry_equiv_pos_site_id
 _symmetry_equiv_pos_as_xyz
  1  'x, y, z'
loop_
 _atom_site_type_symbol
 _atom_site_label
 _atom_site_symmetry_multiplicity
 _atom_site_fract_x
 _atom_site_fract_y
 _atom_site_fract_z
 _atom_site_occupancy
  Rb  Rb0  1  0.27956900  0.70685400  0.25000000  1
  Rb  Rb1  1  0.70685400  0.27956900  0.75000000  1
  Rb  Rb2  1  0.72612400  0.23437400  0.25000000  1
  Rb  Rb3  1  0.99550300  0.99550300  0.00000000  1
  Rb  Rb4  1  0.23437400  0.72612400  0.75000000  1
  Rb  Rb5  1  0.25256300  0.22301300  0.25000000  1
  Rb  Rb6  1  0.99550300  0.99550300  0.50000000  1
  Rb  Rb7  1  0.22301300  0.25256300  0.75000000  1
  Mo  Mo8  1  0.97520600  0.48137400  0.48839300  1
  Mo  Mo9  1  0.81589500  0.75754200  0.25000000  1
  Mo  Mo10  1  0.48137400  0.97520600  0.51160700  1
  Mo  Mo11  1  0.56378600  0.56378600  0.50000000  1
  Mo  Mo12  1  0.56378600  0.56378600  0.00000000  1
  Mo  Mo13  1  0.97520600  0.48137400  0.01160700  1
  Mo  Mo14  1  0.48137400  0.97520600  0.98839300  1
  Mo  Mo15  1  0.75754200  0.81589500  0.75000000  1
  O  O16  1  0.75638300  0.69855100  0.62393200  1
  O  O17  1  0.09204200  0.68100200  0.03453500  1
  O  O18  1  0.01472700  0.42630500  0.62440400  1
  O  O19  1  0.47752700  0.44142700  0.88975100  1
  O  O20  1  0.44142700  0.47752700  0.11024900  1
  O  O21  1  0.68100200  0.09204200  0.96546500  1
  O  O22  1  0.58518100  0.90357400  0.75000000  1
  O  O23  1  0.46371900  0.74759500  0.96843800  1
  O  O24  1  0.69855100  0.75638300  0.12393200  1
  O  O25  1  0.03483200  0.33741300  0.39970400  1
  O  O26  1  0.42630500  0.01472700  0.37559600  1
  O  O27  1  0.33741300  0.03483200  0.89970400  1
  O  O28  1  0.74759500  0.46371900  0.46843800  1
  O  O29  1  0.94032700  0.97302000  0.75000000  1
  O  O30  1  0.44142700  0.47752700  0.38975100  1
  O  O31  1  0.74759500  0.46371900  0.03156200  1
  O  O32  1  0.09204200  0.68100200  0.46546500  1
  O  O33  1  0.03483200  0.33741300  0.10029600  1
  O  O34  1  0.46371900  0.74759500  0.53156200  1
  O  O35  1  0.01472700  0.42630500  0.87559600  1
  O  O36  1  0.33741300  0.03483200  0.60029600  1
  O  O37  1  0.68100200  0.09204200  0.53453500  1
  O  O38  1  0.47752700  0.44142700  0.61024900  1
  O  O39  1  0.42630500  0.01472700  0.12440400  1
  O  O40  1  0.75638300  0.69855100  0.87606800  1
  O  O41  1  0.69855100  0.75638300  0.37606800  1
  O  O42  1  0.97302000  0.94032700  0.25000000  1
  O  O43  1  0.90357400  0.58518100  0.25000000  1
