# generated using pymatgen
data_SiO2
_symmetry_space_group_name_H-M   'P 1'
_cell_length_a   15.89122912
_cell_length_b   15.89122912
_cell_length_c   15.89122912
_cell_angle_alpha   129.41273520
_cell_angle_beta   100.89346805
_cell_angle_gamma   100.14350718
_symmetry_Int_Tables_number   1
_chemical_formula_structural   SiO2
_chemical_formula_sum   'Si48 O96'
_cell_volume   2803.11156893
_cell_formula_units_Z   48
loop_
 _symmetry_equiv_pos_site_id
 _symmetry_equiv_pos_as_xyz
  1  'x, y, z'
loop_
 _atom_site_type_symbol
 _atom_site_label
 _atom_site_symmetry_multiplicity
 _atom_site_fract_x
 _atom_site_fract_y
 _atom_site_fract_z
 _atom_site_occupancy
  Si  Si0  1  0.31162800  0.98011700  0.04967900  1
  Si  Si1  1  0.54563200  0.55996800  0.25774100  1
  Si  Si2  1  0.85285900  0.71900400  0.42016200  1
  Si  Si3  1  0.47424800  0.14290900  0.06239000  1
  Si  Si4  1  0.69675600  0.96898000  0.42574000  1
  Si  Si5  1  0.23614400  0.92227500  0.30849300  1
  Si  Si6  1  0.69070100  0.95432200  0.01692200  1
  Si  Si7  1  0.06956200  0.73805100  0.04967900  1
  Si  Si8  1  0.09285200  0.95522400  0.42475400  1
  Si  Si9  1  0.30222700  0.55996800  0.01433500  1
  Si  Si10  1  0.68837200  0.73805100  0.66848900  1
  Si  Si11  1  0.30929900  0.32622100  0.26362200  1
  Si  Si12  1  0.85306700  0.12595200  0.43079600  1
  Si  Si13  1  0.38621800  0.07234900  0.30849300  1
  Si  Si14  1  0.69777300  0.71210800  0.25774100  1
  Si  Si15  1  0.14693300  0.57773000  0.27288500  1
  Si  Si16  1  0.14714100  0.56730300  0.86614500  1
  Si  Si17  1  0.52575200  0.58814300  0.66866100  1
  Si  Si18  1  0.38035400  0.30980000  0.08044800  1
  Si  Si19  1  0.15496600  0.07445400  0.07588700  1
  Si  Si20  1  0.29884200  0.71900400  0.86614500  1
  Si  Si21  1  0.45436800  0.71210800  0.01433500  1
  Si  Si22  1  0.37304900  0.70295100  0.69359000  1
  Si  Si23  1  0.00143300  0.92092100  0.07588700  1
  Si  Si24  1  0.76385600  0.07234900  0.68613200  1
  Si  Si25  1  0.46953000  0.33190200  0.42475400  1
  Si  Si26  1  0.30324400  0.72898400  0.27222400  1
  Si  Si27  1  0.30484500  0.57773000  0.43079600  1
  Si  Si28  1  0.84503400  0.92092100  0.91948800  1
  Si  Si29  1  0.91948100  0.58814300  0.06239000  1
  Si  Si30  1  0.45676000  0.72898400  0.42574000  1
  Si  Si31  1  0.69515500  0.12595200  0.27288500  1
  Si  Si32  1  0.00936100  0.70295100  0.32990200  1
  Si  Si33  1  0.93043800  0.98011700  0.66848900  1
  Si  Si34  1  0.61964600  0.70009400  0.92944600  1
  Si  Si35  1  0.22935200  0.30980000  0.92944600  1
  Si  Si36  1  0.53047000  0.95522400  0.86237200  1
  Si  Si37  1  0.08051900  0.14290900  0.66866100  1
  Si  Si38  1  0.62695100  0.32054100  0.32990200  1
  Si  Si39  1  0.06259900  0.32622100  0.01692200  1
  Si  Si40  1  0.61378200  0.92227500  0.68613200  1
  Si  Si41  1  0.90714800  0.33190200  0.86237200  1
  Si  Si42  1  0.93740100  0.95432200  0.26362200  1
  Si  Si43  1  0.99063900  0.32054100  0.69359000  1
  Si  Si44  1  0.70115800  0.56730300  0.42016200  1
  Si  Si45  1  0.99856700  0.07445400  0.91948800  1
  Si  Si46  1  0.77064800  0.70009400  0.08044800  1
  Si  Si47  1  0.54324000  0.96898000  0.27222400  1
  O  O48  1  0.99139100  0.01418500  0.78764700  1
  O  O49  1  0.30965900  0.03676200  0.34642100  1
  O  O50  1  0.66510400  0.84125100  0.68359000  1
  O  O51  1  0.07916900  0.44345500  0.14985200  1
  O  O52  1  0.61307700  0.99568200  0.38260500  1
  O  O53  1  0.46314100  0.43204900  0.14247700  1
  O  O54  1  0.30268200  0.68336100  0.74665100  1
  O  O55  1  0.15766100  0.84125100  0.17614700  1
  O  O56  1  0.49728200  0.82736800  0.15640200  1
  O  O57  1  0.77346200  0.79625500  0.78764700  1
  O  O58  1  0.28957100  0.43204900  0.96890700  1
  O  O59  1  0.59657300  0.64839800  0.64296000  1
  O  O60  1  0.68978400  0.25349800  0.33702900  1
  O  O61  1  0.53685900  0.67933600  0.96890700  1
  O  O62  1  0.22653800  0.01418500  0.02279300  1
  O  O63  1  0.41994200  0.20703300  0.03729300  1
  O  O64  1  0.30130500  0.26542600  0.96412100  1
  O  O65  1  0.99456300  0.04638800  0.64296000  1
  O  O66  1  0.84233900  0.01848600  0.68359000  1
  O  O67  1  0.43384600  0.21571700  0.40432400  1
  O  O68  1  0.59946200  0.03551700  0.24125100  1
  O  O69  1  0.44339000  0.63741600  0.68452800  1
  O  O70  1  0.40053800  0.64178900  0.43605500  1
  O  O71  1  0.06328900  0.44396800  0.74665100  1
  O  O72  1  0.20396900  0.54793900  0.94543900  1
  O  O73  1  0.38583000  0.60068100  0.98651100  1
  O  O74  1  0.06429200  0.84419800  0.41362700  1
  O  O75  1  0.39554200  0.31470900  0.32373300  1
  O  O76  1  0.00860900  0.79625500  0.02279300  1
  O  O77  1  0.00902400  0.92819000  0.32373300  1
  O  O78  1  0.79603100  0.74146900  0.34397000  1
  O  O79  1  0.56943000  0.34933600  0.41362700  1
  O  O80  1  0.08415500  0.05919500  0.97503900  1
  O  O81  1  0.50271800  0.65912000  0.33008600  1
  O  O82  1  0.01815600  0.21386900  0.00033900  1
  O  O83  1  0.91646900  0.25349800  0.56371400  1
  O  O84  1  0.69731800  0.44396800  0.38067900  1
  O  O85  1  0.21496400  0.61026100  0.82522500  1
  O  O86  1  0.78407400  0.14559800  0.36152400  1
  O  O87  1  0.66695900  0.83940800  0.00017400  1
  O  O88  1  0.39750000  0.74146900  0.94543900  1
  O  O89  1  0.33304100  0.33321500  0.17244800  1
  O  O90  1  0.91584500  0.89088400  0.97503900  1
  O  O91  1  0.04711200  0.24113700  0.68452800  1
  O  O92  1  0.56615400  0.97047800  0.78187100  1
  O  O93  1  0.95288800  0.63741600  0.19402500  1
  O  O94  1  0.11082400  0.07601300  0.55653400  1
  O  O95  1  0.55661000  0.24113700  0.19402500  1
  O  O96  1  0.89369900  0.83828600  0.55998700  1
  O  O97  1  0.70806700  0.01824000  0.55471100  1
  O  O98  1  0.69869500  0.66281600  0.96412100  1
  O  O99  1  0.99097600  0.31470900  0.91916600  1
  O  O100  1  0.78647000  0.98218300  0.00033900  1
  O  O101  1  0.21592600  0.57745100  0.36152400  1
  O  O102  1  0.69034100  0.03676200  0.72710200  1
  O  O103  1  0.33489600  0.01848600  0.17614700  1
  O  O104  1  0.61417000  0.60068100  0.21485100  1
  O  O105  1  0.18860700  0.97047800  0.40432400  1
  O  O106  1  0.70639700  0.07068300  0.14985200  1
  O  O107  1  0.83025900  0.61735100  0.03729300  1
  O  O108  1  0.92083100  0.07068300  0.36428600  1
  O  O109  1  0.29360300  0.44345500  0.36428600  1
  O  O110  1  0.38692300  0.76952800  0.38260500  1
  O  O111  1  0.83923400  0.83940800  0.17244800  1
  O  O112  1  0.10630100  0.66628800  0.94458700  1
  O  O113  1  0.98184400  0.98218300  0.19571300  1
  O  O114  1  0.29193300  0.84664400  0.31017300  1
  O  O115  1  0.16974100  0.20703300  0.78709200  1
  O  O116  1  0.51947900  0.07601300  0.96518800  1
  O  O117  1  0.46352900  0.01824000  0.31017300  1
  O  O118  1  0.40342700  0.04638800  0.05182500  1
  O  O119  1  0.16076600  0.33321500  0.00017400  1
  O  O120  1  0.81139300  0.21571700  0.78187100  1
  O  O121  1  0.09790500  0.01152300  0.10942800  1
  O  O122  1  0.67096600  0.82736800  0.33008600  1
  O  O123  1  0.93570800  0.34933600  0.77990600  1
  O  O124  1  0.08353100  0.64724500  0.33702900  1
  O  O125  1  0.21353000  0.21386900  0.19571300  1
  O  O126  1  0.32903400  0.65912000  0.15640200  1
  O  O127  1  0.60250000  0.54793900  0.34397000  1
  O  O128  1  0.48052100  0.44570900  0.55653400  1
  O  O129  1  0.20573400  0.64178900  0.24125100  1
  O  O130  1  0.58005800  0.61735100  0.78709200  1
  O  O131  1  0.78503600  0.61026100  0.39529700  1
  O  O132  1  0.31021600  0.64724500  0.56371400  1
  O  O133  1  0.71042900  0.67933600  0.14247700  1
  O  O134  1  0.90209500  0.01152300  0.91361800  1
  O  O135  1  0.53647100  0.84664400  0.55471100  1
  O  O136  1  0.27829900  0.83828600  0.94458700  1
  O  O137  1  0.72170100  0.66628800  0.55998700  1
  O  O138  1  0.60445800  0.92819000  0.91916600  1
  O  O139  1  0.79426600  0.03551700  0.43605500  1
  O  O140  1  0.93671100  0.68336100  0.38067900  1
  O  O141  1  0.43057000  0.84419800  0.77990600  1
  O  O142  1  0.00543700  0.64839800  0.05182500  1
  O  O143  1  0.88917600  0.44570900  0.96518800  1
