# generated using pymatgen
data_Na5MoNO4
_symmetry_space_group_name_H-M   'P 1'
_cell_length_a   5.77273159
_cell_length_b   5.77273159
_cell_length_c   10.84058700
_cell_angle_alpha   90.00000000
_cell_angle_beta   90.00000000
_cell_angle_gamma   119.16121864
_symmetry_Int_Tables_number   1
_chemical_formula_structural   Na5MoNO4
_chemical_formula_sum   'Na10 Mo2 N2 O8'
_cell_volume   315.46789220
_cell_formula_units_Z   2
loop_
 _symmetry_equiv_pos_site_id
 _symmetry_equiv_pos_as_xyz
  1  'x, y, z'
loop_
 _atom_site_type_symbol
 _atom_site_label
 _atom_site_symmetry_multiplicity
 _atom_site_fract_x
 _atom_site_fract_y
 _atom_site_fract_z
 _atom_site_occupancy
  Na  Na0  1  0.19090900  0.80909100  0.50000000  1
  Na  Na1  1  0.19090900  0.80909100  0.00000000  1
  Na  Na2  1  0.54546200  0.16899200  0.75000000  1
  Na  Na3  1  0.16899200  0.54546200  0.75000000  1
  Na  Na4  1  0.50000000  0.50000000  0.00000000  1
  Na  Na5  1  0.80909100  0.19090900  0.50000000  1
  Na  Na6  1  0.80909100  0.19090900  0.00000000  1
  Na  Na7  1  0.50000000  0.50000000  0.50000000  1
  Na  Na8  1  0.45453800  0.83100800  0.25000000  1
  Na  Na9  1  0.83100800  0.45453800  0.25000000  1
  Mo  Mo10  1  0.20758900  0.20758900  0.25000000  1
  Mo  Mo11  1  0.79241100  0.79241100  0.75000000  1
  N  N12  1  0.90664200  0.90664200  0.25000000  1
  N  N13  1  0.09335800  0.09335800  0.75000000  1
  O  O14  1  0.83459800  0.55925200  0.62712500  1
  O  O15  1  0.55925200  0.83459800  0.62712500  1
  O  O16  1  0.16540200  0.44074800  0.37287500  1
  O  O17  1  0.44074800  0.16540200  0.37287500  1
  O  O18  1  0.44074800  0.16540200  0.12712500  1
  O  O19  1  0.16540200  0.44074800  0.12712500  1
  O  O20  1  0.55925200  0.83459800  0.87287500  1
  O  O21  1  0.83459800  0.55925200  0.87287500  1
