# generated using pymatgen
data_Rb6U2Mo4O21
_symmetry_space_group_name_H-M   'P 1'
_cell_length_a   10.35353500
_cell_length_b   10.36330020
_cell_length_c   13.63263292
_cell_angle_alpha   76.86496712
_cell_angle_beta   76.35909544
_cell_angle_gamma   64.84506463
_symmetry_Int_Tables_number   1
_chemical_formula_structural   Rb6U2Mo4O21
_chemical_formula_sum   'Rb12 U4 Mo8 O42'
_cell_volume   1273.18629758
_cell_formula_units_Z   2
loop_
 _symmetry_equiv_pos_site_id
 _symmetry_equiv_pos_as_xyz
  1  'x, y, z'
loop_
 _atom_site_type_symbol
 _atom_site_label
 _atom_site_symmetry_multiplicity
 _atom_site_fract_x
 _atom_site_fract_y
 _atom_site_fract_z
 _atom_site_occupancy
  Rb  Rb0  1  0.58982300  0.86741600  0.27683900  1
  Rb  Rb1  1  0.11938900  0.33529800  0.27690100  1
  Rb  Rb2  1  0.29996700  0.54711600  0.56175700  1
  Rb  Rb3  1  0.02881900  0.27769400  0.93532500  1
  Rb  Rb4  1  0.97118100  0.72230600  0.06467500  1
  Rb  Rb5  1  0.79870700  0.05352900  0.55806700  1
  Rb  Rb6  1  0.88061100  0.66470200  0.72309900  1
  Rb  Rb7  1  0.55462200  0.27350400  0.06749700  1
  Rb  Rb8  1  0.20129300  0.94647100  0.44193300  1
  Rb  Rb9  1  0.70003300  0.45288400  0.43824300  1
  Rb  Rb10  1  0.44537800  0.72649600  0.93250300  1
  Rb  Rb11  1  0.41017700  0.13258400  0.72316100  1
  U  U12  1  0.29738400  0.66473500  0.23189300  1
  U  U13  1  0.91514700  0.05526200  0.23220800  1
  U  U14  1  0.70261600  0.33526500  0.76810700  1
  U  U15  1  0.08485300  0.94473800  0.76779200  1
  Mo  Mo16  1  0.73962500  0.49829500  0.12786100  1
  Mo  Mo17  1  0.51694900  0.76213900  0.63957600  1
  Mo  Mo18  1  0.26037500  0.50170500  0.87213900  1
  Mo  Mo19  1  0.48305100  0.23786100  0.36042400  1
  Mo  Mo20  1  0.95175300  0.71210000  0.40450000  1
  Mo  Mo21  1  0.69387100  0.95640500  0.90282200  1
  Mo  Mo22  1  0.04824700  0.28790000  0.59550000  1
  Mo  Mo23  1  0.30612900  0.04359500  0.09717800  1
  O  O24  1  0.38701000  0.12285900  0.39455300  1
  O  O25  1  0.99067100  0.24567000  0.49747800  1
  O  O26  1  0.07736100  0.87605800  0.65558400  1
  O  O27  1  0.36559100  0.66981900  0.34513400  1
  O  O28  1  0.65511600  0.91384300  0.03710100  1
  O  O29  1  0.52188000  0.27358400  0.47015600  1
  O  O30  1  0.37769100  0.12007900  0.16472700  1
  O  O31  1  0.34848800  0.84855900  0.72187400  1
  O  O32  1  0.15653800  0.38579200  0.53773700  1
  O  O33  1  0.00932900  0.75433000  0.50252200  1
  O  O34  1  0.21252900  0.43807500  0.77974700  1
  O  O35  1  0.62230900  0.87992100  0.83527300  1
  O  O36  1  0.54473600  0.55574700  0.14088000  1
  O  O37  1  0.11050000  0.86432600  0.26117000  1
  O  O38  1  0.92263900  0.12394200  0.34441600  1
  O  O39  1  0.37271300  0.84921000  0.13597500  1
  O  O40  1  0.82049400  0.30274100  0.14473700  1
  O  O41  1  0.88882200  0.87901500  0.86491600  1
  O  O42  1  0.61929900  0.59602600  0.71573600  1
  O  O43  1  0.88950000  0.13567400  0.73883000  1
  O  O44  1  0.47812000  0.72641600  0.52984400  1
  O  O45  1  0.10709300  0.99796300  0.88050000  1
  O  O46  1  0.18986100  0.43726600  0.99564400  1
  O  O47  1  0.17950600  0.69725900  0.85526300  1
  O  O48  1  0.62728700  0.15079000  0.86402500  1
  O  O49  1  0.81013900  0.56273400  0.00435600  1
  O  O50  1  0.34488400  0.08615700  0.96289900  1
  O  O51  1  0.84346200  0.61420800  0.46226300  1
  O  O52  1  0.10208500  0.59865400  0.31949100  1
  O  O53  1  0.38070100  0.40397400  0.28426400  1
  O  O54  1  0.24879600  0.64967700  0.11414400  1
  O  O55  1  0.45526400  0.44425300  0.85912000  1
  O  O56  1  0.83385900  0.87704600  0.33452800  1
  O  O57  1  0.89290700  0.00203700  0.11950000  1
  O  O58  1  0.16614100  0.12295400  0.66547200  1
  O  O59  1  0.63440900  0.33018100  0.65486600  1
  O  O60  1  0.61299000  0.87714100  0.60544700  1
  O  O61  1  0.11117800  0.12098500  0.13508400  1
  O  O62  1  0.78747100  0.56192500  0.22025300  1
  O  O63  1  0.75120400  0.35032300  0.88585600  1
  O  O64  1  0.65151200  0.15144100  0.27812600  1
  O  O65  1  0.89791500  0.40134600  0.68050900  1
