# generated using pymatgen
data_Cd(CoO2)2
_symmetry_space_group_name_H-M   'P 1'
_cell_length_a   10.99651200
_cell_length_b   5.11535600
_cell_length_c   5.95511159
_cell_angle_alpha   89.92885064
_cell_angle_beta   90.00000000
_cell_angle_gamma   90.00000000
_symmetry_Int_Tables_number   1
_chemical_formula_structural   Cd(CoO2)2
_chemical_formula_sum   'Cd4 Co8 O16'
_cell_volume   334.98116238
_cell_formula_units_Z   4
loop_
 _symmetry_equiv_pos_site_id
 _symmetry_equiv_pos_as_xyz
  1  'x, y, z'
loop_
 _atom_site_type_symbol
 _atom_site_label
 _atom_site_symmetry_multiplicity
 _atom_site_fract_x
 _atom_site_fract_y
 _atom_site_fract_z
 _atom_site_occupancy
  Cd  Cd0  1  0.25000000  0.47535700  0.74362600  1
  Cd  Cd1  1  0.75000000  0.14673800  0.75416200  1
  Cd  Cd2  1  0.25000000  0.85326200  0.24583800  1
  Cd  Cd3  1  0.75000000  0.52464300  0.25637400  1
  Co  Co4  1  0.01479000  0.48890100  0.24970000  1
  Co  Co5  1  0.98521000  0.51109900  0.75030000  1
  Co  Co6  1  0.48521000  0.48890100  0.24970000  1
  Co  Co7  1  0.51479000  0.51109900  0.75030000  1
  Co  Co8  1  0.00000000  0.00000000  0.00000000  1
  Co  Co9  1  0.50000000  0.00000000  0.00000000  1
  Co  Co10  1  0.00000000  0.00000000  0.50000000  1
  Co  Co11  1  0.50000000  0.00000000  0.50000000  1
  O  O12  1  0.89579100  0.33415900  0.00484800  1
  O  O13  1  0.60420900  0.33415900  0.00484800  1
  O  O14  1  0.60426200  0.33464200  0.49918200  1
  O  O15  1  0.89573800  0.33464200  0.49918200  1
  O  O16  1  0.09852300  0.16289300  0.24984000  1
  O  O17  1  0.40147700  0.16289300  0.24984000  1
  O  O18  1  0.08811000  0.17692300  0.74916100  1
  O  O19  1  0.41189000  0.17692300  0.74916100  1
  O  O20  1  0.58811000  0.82307700  0.25083900  1
  O  O21  1  0.91189000  0.82307700  0.25083900  1
  O  O22  1  0.59852300  0.83710700  0.75016000  1
  O  O23  1  0.90147700  0.83710700  0.75016000  1
  O  O24  1  0.10420900  0.66584100  0.99515200  1
  O  O25  1  0.39579100  0.66584100  0.99515200  1
  O  O26  1  0.10426200  0.66535800  0.50081800  1
  O  O27  1  0.39573800  0.66535800  0.50081800  1
