# generated using pymatgen
data_GdWClO4
_symmetry_space_group_name_H-M   'P 1'
_cell_length_a   6.41922305
_cell_length_b   6.41922305
_cell_length_c   7.04012774
_cell_angle_alpha   75.83784619
_cell_angle_beta   75.83784619
_cell_angle_gamma   70.93800608
_symmetry_Int_Tables_number   1
_chemical_formula_structural   GdWClO4
_chemical_formula_sum   'Gd2 W2 Cl2 O8'
_cell_volume   261.52587343
_cell_formula_units_Z   2
loop_
 _symmetry_equiv_pos_site_id
 _symmetry_equiv_pos_as_xyz
  1  'x, y, z'
loop_
 _atom_site_type_symbol
 _atom_site_label
 _atom_site_symmetry_multiplicity
 _atom_site_fract_x
 _atom_site_fract_y
 _atom_site_fract_z
 _atom_site_occupancy
  Gd  Gd0  1  0.22169600  0.22169600  0.88218500  1
  Gd  Gd1  1  0.77830400  0.77830400  0.11781500  1
  W  W2  1  0.36267000  0.36267000  0.26735200  1
  W  W3  1  0.63733000  0.63733000  0.73264800  1
  Cl  Cl4  1  0.98804400  0.98804400  0.76902600  1
  Cl  Cl5  1  0.01195600  0.01195600  0.23097400  1
  O  O6  1  0.54349800  0.54349800  0.19933100  1
  O  O7  1  0.45650200  0.45650200  0.80066900  1
  O  O8  1  0.11106900  0.49140800  0.15475900  1
  O  O9  1  0.88893100  0.50859200  0.84524100  1
  O  O10  1  0.49140800  0.11106900  0.15475900  1
  O  O11  1  0.50859200  0.88893100  0.84524100  1
  O  O12  1  0.70657700  0.70657700  0.46619400  1
  O  O13  1  0.29342300  0.29342300  0.53380600  1
