# generated using pymatgen
data_SrC4S4N2(O2F3)4
_symmetry_space_group_name_H-M   'P 1'
_cell_length_a   6.66735700
_cell_length_b   11.47634400
_cell_length_c   12.73186123
_cell_angle_alpha   76.27722538
_cell_angle_beta   90.00000000
_cell_angle_gamma   90.00000000
_symmetry_Int_Tables_number   1
_chemical_formula_structural   SrC4S4N2(O2F3)4
_chemical_formula_sum   'Sr2 C8 S8 N4 O16 F24'
_cell_volume   946.39362854
_cell_formula_units_Z   2
loop_
 _symmetry_equiv_pos_site_id
 _symmetry_equiv_pos_as_xyz
  1  'x, y, z'
loop_
 _atom_site_type_symbol
 _atom_site_label
 _atom_site_symmetry_multiplicity
 _atom_site_fract_x
 _atom_site_fract_y
 _atom_site_fract_z
 _atom_site_occupancy
  Sr  Sr0  1  0.40354000  0.50000000  0.25000000  1
  Sr  Sr1  1  0.59646000  0.50000000  0.75000000  1
  C  C2  1  0.49536000  0.17089900  0.06331500  1
  C  C3  1  0.05514000  0.15661200  0.83574900  1
  C  C4  1  0.50464000  0.82910100  0.93668500  1
  C  C5  1  0.94486000  0.15661200  0.33574900  1
  C  C6  1  0.05514000  0.84338800  0.66425100  1
  C  C7  1  0.49536000  0.82910100  0.43668500  1
  C  C8  1  0.94486000  0.84338800  0.16425100  1
  C  C9  1  0.50464000  0.17089900  0.56331500  1
  S  S10  1  0.36653800  0.32035600  0.02294600  1
  S  S11  1  0.89564300  0.68586800  0.14979200  1
  S  S12  1  0.63346200  0.67964400  0.97705400  1
  S  S13  1  0.10435700  0.68586800  0.64979200  1
  S  S14  1  0.89564300  0.31413200  0.35020800  1
  S  S15  1  0.10435700  0.31413200  0.85020800  1
  S  S16  1  0.63346200  0.32035600  0.52294600  1
  S  S17  1  0.36653800  0.67964400  0.47705400  1
  N  N18  1  0.15716300  0.70454900  0.52537900  1
  N  N19  1  0.84283700  0.29545100  0.47462100  1
  N  N20  1  0.84283700  0.70454900  0.02537900  1
  N  N21  1  0.15716300  0.29545100  0.97462100  1
  O  O22  1  0.33322500  0.64674600  0.37537300  1
  O  O23  1  0.09032300  0.62881000  0.16986500  1
  O  O24  1  0.33322500  0.35325400  0.12462700  1
  O  O25  1  0.50542400  0.39331600  0.94692300  1
  O  O26  1  0.66677500  0.35325400  0.62462700  1
  O  O27  1  0.73555700  0.36017800  0.27398600  1
  O  O28  1  0.49457600  0.39331600  0.44692300  1
  O  O29  1  0.26444300  0.63982200  0.72601400  1
  O  O30  1  0.90967700  0.62881000  0.66986500  1
  O  O31  1  0.90967700  0.37119000  0.83013500  1
  O  O32  1  0.73555700  0.63982200  0.22601400  1
  O  O33  1  0.26444300  0.36017800  0.77398600  1
  O  O34  1  0.50542400  0.60668400  0.55307700  1
  O  O35  1  0.49457600  0.60668400  0.05307700  1
  O  O36  1  0.09032300  0.37119000  0.33013500  1
  O  O37  1  0.66677500  0.64674600  0.87537300  1
  F  F38  1  0.07694300  0.89843800  0.08871200  1
  F  F39  1  0.53138600  0.86967200  0.52600600  1
  F  F40  1  0.32870300  0.18516600  0.61072500  1
  F  F41  1  0.67129700  0.18516600  0.11072500  1
  F  F42  1  0.22664800  0.90739100  0.65304800  1
  F  F43  1  0.02183500  0.16248100  0.23685400  1
  F  F44  1  0.02183500  0.83751900  0.26314600  1
  F  F45  1  0.77335200  0.90739100  0.15304800  1
  F  F46  1  0.38201300  0.90950700  0.36739300  1
  F  F47  1  0.38201300  0.09049300  0.13260700  1
  F  F48  1  0.53138600  0.13032800  0.97399400  1
  F  F49  1  0.97816500  0.16248100  0.73685400  1
  F  F50  1  0.61798700  0.90950700  0.86739300  1
  F  F51  1  0.61798700  0.09049300  0.63260700  1
  F  F52  1  0.92305700  0.89843800  0.58871200  1
  F  F53  1  0.46861400  0.13032800  0.47399400  1
  F  F54  1  0.92305700  0.10156200  0.91128800  1
  F  F55  1  0.46861400  0.86967200  0.02600600  1
  F  F56  1  0.32870300  0.81483400  0.88927500  1
  F  F57  1  0.67129700  0.81483400  0.38927500  1
  F  F58  1  0.22664800  0.09260900  0.84695200  1
  F  F59  1  0.77335200  0.09260900  0.34695200  1
  F  F60  1  0.07694300  0.10156200  0.41128800  1
  F  F61  1  0.97816500  0.83751900  0.76314600  1
