# generated using pymatgen
data_RbNaMo3O10
_symmetry_space_group_name_H-M   'P 1'
_cell_length_a   7.72239500
_cell_length_b   7.82897500
_cell_length_c   15.83312000
_cell_angle_alpha   90.00000000
_cell_angle_beta   90.00000000
_cell_angle_gamma   90.00000000
_symmetry_Int_Tables_number   1
_chemical_formula_structural   RbNaMo3O10
_chemical_formula_sum   'Rb4 Na4 Mo12 O40'
_cell_volume   957.24569429
_cell_formula_units_Z   4
loop_
 _symmetry_equiv_pos_site_id
 _symmetry_equiv_pos_as_xyz
  1  'x, y, z'
loop_
 _atom_site_type_symbol
 _atom_site_label
 _atom_site_symmetry_multiplicity
 _atom_site_fract_x
 _atom_site_fract_y
 _atom_site_fract_z
 _atom_site_occupancy
  Rb  Rb0  1  0.75000000  0.14099400  0.14576300  1
  Rb  Rb1  1  0.25000000  0.85900600  0.85423700  1
  Rb  Rb2  1  0.75000000  0.64099400  0.35423700  1
  Rb  Rb3  1  0.25000000  0.35900600  0.64576300  1
  Na  Na4  1  0.75000000  0.06232500  0.77658200  1
  Na  Na5  1  0.25000000  0.43767500  0.27658200  1
  Na  Na6  1  0.75000000  0.56232500  0.72341800  1
  Na  Na7  1  0.25000000  0.93767500  0.22341800  1
  Mo  Mo8  1  0.00067600  0.11032900  0.39853700  1
  Mo  Mo9  1  0.75000000  0.73750700  0.94401400  1
  Mo  Mo10  1  0.50067600  0.88967100  0.60146300  1
  Mo  Mo11  1  0.25000000  0.76249300  0.44401400  1
  Mo  Mo12  1  0.49932400  0.11032900  0.39853700  1
  Mo  Mo13  1  0.25000000  0.26249300  0.05598600  1
  Mo  Mo14  1  0.99932400  0.88967100  0.60146300  1
  Mo  Mo15  1  0.75000000  0.23750700  0.55598600  1
  Mo  Mo16  1  0.99932400  0.38967100  0.89853700  1
  Mo  Mo17  1  0.00067600  0.61032900  0.10146300  1
  Mo  Mo18  1  0.49932400  0.61032900  0.10146300  1
  Mo  Mo19  1  0.50067600  0.38967100  0.89853700  1
  O  O20  1  0.98615600  0.65572500  0.96401000  1
  O  O21  1  0.51384400  0.65572500  0.96401000  1
  O  O22  1  0.46697600  0.49603900  0.80235300  1
  O  O23  1  0.47101200  0.82274800  0.13113000  1
  O  O24  1  0.75000000  0.44127000  0.91151200  1
  O  O25  1  0.03302400  0.99603900  0.69764700  1
  O  O26  1  0.48615600  0.84427500  0.46401000  1
  O  O27  1  0.75000000  0.27898700  0.66622700  1
  O  O28  1  0.75000000  0.43732800  0.50945700  1
  O  O29  1  0.03302400  0.49603900  0.80235300  1
  O  O30  1  0.75000000  0.61427500  0.07321700  1
  O  O31  1  0.75000000  0.94127000  0.58848800  1
  O  O32  1  0.53302400  0.00396100  0.30235300  1
  O  O33  1  0.02898800  0.32274800  0.36887000  1
  O  O34  1  0.97101200  0.17725200  0.86887000  1
  O  O35  1  0.75000000  0.93732800  0.99054300  1
  O  O36  1  0.53302400  0.50396100  0.19764700  1
  O  O37  1  0.51384400  0.15572500  0.53599000  1
  O  O38  1  0.02898800  0.82274800  0.13113000  1
  O  O39  1  0.96697600  0.00396100  0.30235300  1
  O  O40  1  0.52898800  0.17725200  0.86887000  1
  O  O41  1  0.25000000  0.55873000  0.08848800  1
  O  O42  1  0.48615600  0.34427500  0.03599000  1
  O  O43  1  0.01384400  0.34427500  0.03599000  1
  O  O44  1  0.25000000  0.06267200  0.00945700  1
  O  O45  1  0.25000000  0.72101300  0.33377300  1
  O  O46  1  0.25000000  0.22101300  0.16622700  1
  O  O47  1  0.96697600  0.50396100  0.19764700  1
  O  O48  1  0.75000000  0.77898700  0.83377300  1
  O  O49  1  0.98615600  0.15572500  0.53599000  1
  O  O50  1  0.25000000  0.05873000  0.41151200  1
  O  O51  1  0.47101200  0.32274800  0.36887000  1
  O  O52  1  0.01384400  0.84427500  0.46401000  1
  O  O53  1  0.75000000  0.11427500  0.42678300  1
  O  O54  1  0.25000000  0.88572500  0.57321700  1
  O  O55  1  0.25000000  0.38572500  0.92678300  1
  O  O56  1  0.25000000  0.56267200  0.49054300  1
  O  O57  1  0.52898800  0.67725200  0.63113000  1
  O  O58  1  0.97101200  0.67725200  0.63113000  1
  O  O59  1  0.46697600  0.99603900  0.69764700  1
