# generated using pymatgen
data_AgH9C7S2(OF)4
_symmetry_space_group_name_H-M   'P 1'
_cell_length_a   6.89607000
_cell_length_b   8.51390236
_cell_length_c   11.14922871
_cell_angle_alpha   87.45032063
_cell_angle_beta   84.33560110
_cell_angle_gamma   83.78697556
_symmetry_Int_Tables_number   1
_chemical_formula_structural   AgH9C7S2(OF)4
_chemical_formula_sum   'Ag2 H18 C14 S4 O8 F8'
_cell_volume   647.19812180
_cell_formula_units_Z   2
loop_
 _symmetry_equiv_pos_site_id
 _symmetry_equiv_pos_as_xyz
  1  'x, y, z'
loop_
 _atom_site_type_symbol
 _atom_site_label
 _atom_site_symmetry_multiplicity
 _atom_site_fract_x
 _atom_site_fract_y
 _atom_site_fract_z
 _atom_site_occupancy
  Ag  Ag0  1  0.17470100  0.98168400  0.07227400  1
  Ag  Ag1  1  0.82529900  0.01831600  0.92772600  1
  H  H2  1  0.71621500  0.69369700  0.24978400  1
  H  H3  1  0.64300300  0.62976000  0.91144300  1
  H  H4  1  0.11328100  0.38597900  0.04247300  1
  H  H5  1  0.97949800  0.35907700  0.62094500  1
  H  H6  1  0.90853700  0.77736100  0.68753700  1
  H  H7  1  0.30809100  0.46773300  0.94768100  1
  H  H8  1  0.69190900  0.53226700  0.05231900  1
  H  H9  1  0.25298900  0.70905400  0.33125200  1
  H  H10  1  0.26140200  0.09874100  0.75641900  1
  H  H11  1  0.73859800  0.90125900  0.24358100  1
  H  H12  1  0.35699700  0.37024000  0.08855700  1
  H  H13  1  0.09146300  0.22263900  0.31246300  1
  H  H14  1  0.74701100  0.29094600  0.66874800  1
  H  H15  1  0.04767600  0.84985500  0.37228900  1
  H  H16  1  0.28378500  0.30630300  0.75021600  1
  H  H17  1  0.88671900  0.61402100  0.95752700  1
  H  H18  1  0.95232400  0.15014500  0.62771100  1
  H  H19  1  0.02050200  0.64092300  0.37905500  1
  C  C20  1  0.46297500  0.78829200  0.59481500  1
  C  C21  1  0.26952400  0.37174000  0.01153900  1
  C  C22  1  0.90584500  0.26388900  0.66938600  1
  C  C23  1  0.78036200  0.24041000  0.21264200  1
  C  C24  1  0.63543800  0.84297800  0.65745000  1
  C  C25  1  0.66287500  0.32405200  0.32401300  1
  C  C26  1  0.73047600  0.62826000  0.98846100  1
  C  C27  1  0.77767600  0.79083800  0.19574300  1
  C  C28  1  0.53702500  0.21170800  0.40518500  1
  C  C29  1  0.09415500  0.73611100  0.33061400  1
  C  C30  1  0.33712500  0.67594800  0.67598700  1
  C  C31  1  0.36456200  0.15702200  0.34255000  1
  C  C32  1  0.22232400  0.20916200  0.80425700  1
  C  C33  1  0.21963800  0.75959000  0.78735800  1
  S  S34  1  0.66047800  0.81663800  0.05780600  1
  S  S35  1  0.95750600  0.25587900  0.82576300  1
  S  S36  1  0.04249400  0.74412100  0.17423700  1
  S  S37  1  0.33952200  0.18336200  0.94219400  1
  O  O38  1  0.68788200  0.23383200  0.12298900  1
  O  O39  1  0.95633000  0.18439600  0.22649300  1
  O  O40  1  0.60854800  0.96107800  0.71848200  1
  O  O41  1  0.31211800  0.76616800  0.87701100  1
  O  O42  1  0.39145200  0.03892200  0.28151800  1
  O  O43  1  0.04367000  0.81560400  0.77350700  1
  O  O44  1  0.79677100  0.74755300  0.63709600  1
  O  O45  1  0.20322900  0.25244700  0.36290400  1
  F  F46  1  0.53055300  0.71453000  0.48955100  1
  F  F47  1  0.46197600  0.54945800  0.71453200  1
  F  F48  1  0.53802400  0.45054200  0.28546800  1
  F  F49  1  0.66218600  0.08094200  0.43450400  1
  F  F50  1  0.78676900  0.38508700  0.39526700  1
  F  F51  1  0.46944700  0.28547000  0.51044900  1
  F  F52  1  0.21323100  0.61491300  0.60473300  1
  F  F53  1  0.33781400  0.91905800  0.56549600  1
