# generated using pymatgen
data_TlHgAsS3
_symmetry_space_group_name_H-M   'P 1'
_cell_length_a   6.28970701
_cell_length_b   6.28970701
_cell_length_c   16.68005100
_cell_angle_alpha   90.00000000
_cell_angle_beta   90.00000000
_cell_angle_gamma   96.11283292
_symmetry_Int_Tables_number   1
_chemical_formula_structural   TlHgAsS3
_chemical_formula_sum   'Tl4 Hg4 As4 S12'
_cell_volume   656.11778740
_cell_formula_units_Z   4
loop_
 _symmetry_equiv_pos_site_id
 _symmetry_equiv_pos_as_xyz
  1  'x, y, z'
loop_
 _atom_site_type_symbol
 _atom_site_label
 _atom_site_symmetry_multiplicity
 _atom_site_fract_x
 _atom_site_fract_y
 _atom_site_fract_z
 _atom_site_occupancy
  Tl  Tl0  1  0.83357600  0.16642400  0.94936600  1
  Tl  Tl1  1  0.16642400  0.83357600  0.05063400  1
  Tl  Tl2  1  0.33357600  0.66642400  0.55063400  1
  Tl  Tl3  1  0.66642400  0.33357600  0.44936600  1
  Hg  Hg4  1  0.57786000  0.92214000  0.25000000  1
  Hg  Hg5  1  0.42214000  0.07786000  0.75000000  1
  Hg  Hg6  1  0.92214000  0.57786000  0.75000000  1
  Hg  Hg7  1  0.07786000  0.42214000  0.25000000  1
  As  As8  1  0.07327200  0.92672800  0.39037100  1
  As  As9  1  0.42672800  0.57327200  0.89037100  1
  As  As10  1  0.92672800  0.07327200  0.60962900  1
  As  As11  1  0.57327200  0.42672800  0.10962900  1
  S  S12  1  0.36281100  0.20810600  0.89118700  1
  S  S13  1  0.20810600  0.36281100  0.10881300  1
  S  S14  1  0.86281100  0.70810600  0.60881300  1
  S  S15  1  0.79189400  0.63718900  0.89118700  1
  S  S16  1  0.63718900  0.79189400  0.10881300  1
  S  S17  1  0.64520200  0.35479800  0.23860200  1
  S  S18  1  0.14520200  0.85479800  0.26139800  1
  S  S19  1  0.85479800  0.14520200  0.73860200  1
  S  S20  1  0.35479800  0.64520200  0.76139800  1
  S  S21  1  0.29189400  0.13718900  0.60881300  1
  S  S22  1  0.70810600  0.86281100  0.39118700  1
  S  S23  1  0.13718900  0.29189400  0.39118700  1
