# generated using pymatgen
data_Bi5O7F
_symmetry_space_group_name_H-M   'P 1'
_cell_length_a   9.72370988
_cell_length_b   9.72370988
_cell_length_c   13.47213349
_cell_angle_alpha   70.90566001
_cell_angle_beta   70.90566001
_cell_angle_gamma   24.91694675
_symmetry_Int_Tables_number   1
_chemical_formula_structural   Bi5O7F
_chemical_formula_sum   'Bi10 O14 F2'
_cell_volume   505.64452785
_cell_formula_units_Z   2
loop_
 _symmetry_equiv_pos_site_id
 _symmetry_equiv_pos_as_xyz
  1  'x, y, z'
loop_
 _atom_site_type_symbol
 _atom_site_label
 _atom_site_symmetry_multiplicity
 _atom_site_fract_x
 _atom_site_fract_y
 _atom_site_fract_z
 _atom_site_occupancy
  Bi  Bi0  1  0.47157100  0.47157100  0.35155400  1
  Bi  Bi1  1  0.87853300  0.87853300  0.58361100  1
  Bi  Bi2  1  0.25292200  0.25292200  0.87077500  1
  Bi  Bi3  1  0.40262200  0.40262200  0.10653300  1
  Bi  Bi4  1  0.79569800  0.79569800  0.36220000  1
  Bi  Bi5  1  0.20430200  0.20430200  0.63780000  1
  Bi  Bi6  1  0.59737800  0.59737800  0.89346700  1
  Bi  Bi7  1  0.74707800  0.74707800  0.12922500  1
  Bi  Bi8  1  0.12146700  0.12146700  0.41638900  1
  Bi  Bi9  1  0.52842900  0.52842900  0.64844600  1
  O  O10  1  0.93524300  0.93524300  0.40209600  1
  O  O11  1  0.41234700  0.41234700  0.51670200  1
  O  O12  1  0.30238300  0.30238300  0.70484800  1
  O  O13  1  0.38196000  0.38196000  0.28579300  1
  O  O14  1  0.70755700  0.70755700  0.90305800  1
  O  O15  1  0.77202900  0.77202900  0.56480700  1
  O  O16  1  0.84856100  0.84856100  0.17349600  1
  O  O17  1  0.15143900  0.15143900  0.82650500  1
  O  O18  1  0.22797100  0.22797100  0.43519300  1
  O  O19  1  0.29244300  0.29244300  0.09694200  1
  O  O20  1  0.61804000  0.61804000  0.71420700  1
  O  O21  1  0.69761700  0.69761700  0.29515200  1
  O  O22  1  0.58765300  0.58765300  0.48329800  1
  O  O23  1  0.06475700  0.06475700  0.59790400  1
  F  F24  1  0.91959400  0.91959400  0.97186700  1
  F  F25  1  0.08040600  0.08040600  0.02813300  1
