# generated using pymatgen
data_TaS2
_symmetry_space_group_name_H-M   'P 1'
_cell_length_a   7.04439788
_cell_length_b   7.04439788
_cell_length_c   7.04439722
_cell_angle_alpha   27.71476928
_cell_angle_beta   27.71476928
_cell_angle_gamma   27.71476250
_symmetry_Int_Tables_number   1
_chemical_formula_structural   TaS2
_chemical_formula_sum   'Ta1 S2'
_cell_volume   66.75396112
_cell_formula_units_Z   1
loop_
 _symmetry_equiv_pos_site_id
 _symmetry_equiv_pos_as_xyz
  1  'x, y, z'
loop_
 _atom_site_type_symbol
 _atom_site_label
 _atom_site_symmetry_multiplicity
 _atom_site_fract_x
 _atom_site_fract_y
 _atom_site_fract_z
 _atom_site_occupancy
  Ta  Ta0  1  0.00000000  0.00000000  0.00000000  1
  S  S1  1  0.25757600  0.25757600  0.25757600  1
  S  S2  1  0.74242400  0.74242400  0.74242400  1
