# generated using pymatgen
data_Sm2US5
_symmetry_space_group_name_H-M   'P 1'
_cell_length_a   7.46109200
_cell_length_b   7.99821000
_cell_length_c   11.87576300
_cell_angle_alpha   90.00000000
_cell_angle_beta   90.00000000
_cell_angle_gamma   90.00000000
_symmetry_Int_Tables_number   1
_chemical_formula_structural   Sm2US5
_chemical_formula_sum   'Sm8 U4 S20'
_cell_volume   708.69067748
_cell_formula_units_Z   4
loop_
 _symmetry_equiv_pos_site_id
 _symmetry_equiv_pos_as_xyz
  1  'x, y, z'
loop_
 _atom_site_type_symbol
 _atom_site_label
 _atom_site_symmetry_multiplicity
 _atom_site_fract_x
 _atom_site_fract_y
 _atom_site_fract_z
 _atom_site_occupancy
  Sm  Sm0  1  0.47881400  0.99889300  0.32208100  1
  Sm  Sm1  1  0.97881400  0.49889300  0.17791900  1
  Sm  Sm2  1  0.02118600  0.99889300  0.82208100  1
  Sm  Sm3  1  0.52118600  0.49889300  0.67791900  1
  Sm  Sm4  1  0.52118600  0.00110700  0.67791900  1
  Sm  Sm5  1  0.02118600  0.50110700  0.82208100  1
  Sm  Sm6  1  0.47881400  0.50110700  0.32208100  1
  Sm  Sm7  1  0.97881400  0.00110700  0.17791900  1
  U  U8  1  0.42765400  0.75000000  0.00914600  1
  U  U9  1  0.07234600  0.75000000  0.50914600  1
  U  U10  1  0.92765400  0.25000000  0.49085400  1
  U  U11  1  0.57234600  0.25000000  0.99085400  1
  S  S12  1  0.66084800  0.54311000  0.90278800  1
  S  S13  1  0.16084800  0.04311100  0.59721200  1
  S  S14  1  0.95563100  0.25000000  0.99994800  1
  S  S15  1  0.30167900  0.75000000  0.78527400  1
  S  S16  1  0.54436900  0.25000000  0.49994800  1
  S  S17  1  0.16084800  0.45689000  0.59721200  1
  S  S18  1  0.33915200  0.45689000  0.09721200  1
  S  S19  1  0.32833400  0.25000000  0.81399500  1
  S  S20  1  0.04436900  0.75000000  0.00005200  1
  S  S21  1  0.80167900  0.25000000  0.71472600  1
  S  S22  1  0.66084800  0.95689000  0.90278800  1
  S  S23  1  0.19832100  0.75000000  0.28527400  1
  S  S24  1  0.33915200  0.04311100  0.09721200  1
  S  S25  1  0.17166600  0.25000000  0.31399500  1
  S  S26  1  0.69832100  0.25000000  0.21472600  1
  S  S27  1  0.83915200  0.54311000  0.40278800  1
  S  S28  1  0.83915200  0.95689000  0.40278800  1
  S  S29  1  0.67166600  0.75000000  0.18600500  1
  S  S30  1  0.45563100  0.75000000  0.50005200  1
  S  S31  1  0.82833400  0.75000000  0.68600500  1
