# generated using pymatgen
data_Fe3SiP5O19
_symmetry_space_group_name_H-M   'P 1'
_cell_length_a   14.58153101
_cell_length_b   14.58153101
_cell_length_c   7.64100700
_cell_angle_alpha   90.00000000
_cell_angle_beta   90.00000000
_cell_angle_gamma   119.99999553
_symmetry_Int_Tables_number   1
_chemical_formula_structural   Fe3SiP5O19
_chemical_formula_sum   'Fe12 Si4 P20 O76'
_cell_volume   1406.97862829
_cell_formula_units_Z   4
loop_
 _symmetry_equiv_pos_site_id
 _symmetry_equiv_pos_as_xyz
  1  'x, y, z'
loop_
 _atom_site_type_symbol
 _atom_site_label
 _atom_site_symmetry_multiplicity
 _atom_site_fract_x
 _atom_site_fract_y
 _atom_site_fract_z
 _atom_site_occupancy
  Fe  Fe0  1  0.65730700  0.97659500  0.28846600  1
  Fe  Fe1  1  0.68071200  0.65730700  0.78846600  1
  Fe  Fe2  1  0.32548900  0.33720100  0.69164800  1
  Fe  Fe3  1  0.02340500  0.68071200  0.28846600  1
  Fe  Fe4  1  0.33720100  0.01171200  0.19164800  1
  Fe  Fe5  1  0.67451100  0.66279900  0.19164800  1
  Fe  Fe6  1  0.97659500  0.31928800  0.78846600  1
  Fe  Fe7  1  0.66279900  0.98828800  0.69164800  1
  Fe  Fe8  1  0.31928800  0.34269300  0.28846600  1
  Fe  Fe9  1  0.98828800  0.32548900  0.19164800  1
  Fe  Fe10  1  0.01171200  0.67451100  0.69164800  1
  Fe  Fe11  1  0.34269300  0.02340500  0.78846600  1
  Si  Si12  1  0.66666700  0.33333300  0.95243200  1
  Si  Si13  1  0.66666700  0.33333300  0.53517400  1
  Si  Si14  1  0.33333300  0.66666700  0.03517400  1
  Si  Si15  1  0.33333300  0.66666700  0.45243200  1
  P  P16  1  0.57734400  0.09452500  0.99683900  1
  P  P17  1  0.77892200  0.56800700  0.48489200  1
  P  P18  1  0.21091500  0.77892200  0.98489200  1
  P  P19  1  0.09452500  0.51718100  0.49683900  1
  P  P20  1  0.08567700  0.23200600  0.48962600  1
  P  P21  1  0.51718100  0.42265600  0.99683900  1
  P  P22  1  0.85367200  0.08567700  0.98962600  1
  P  P23  1  0.90547500  0.48281900  0.99683900  1
  P  P24  1  0.00000000  0.00000000  0.93209800  1
  P  P25  1  0.22107800  0.43199300  0.98489200  1
  P  P26  1  0.76799400  0.85367200  0.48962600  1
  P  P27  1  0.91432300  0.76799400  0.98962600  1
  P  P28  1  0.42265600  0.90547500  0.49683900  1
  P  P29  1  0.78908500  0.22107800  0.48489200  1
  P  P30  1  0.00000000  0.00000000  0.43209800  1
  P  P31  1  0.43199300  0.21091500  0.48489200  1
  P  P32  1  0.23200600  0.14632800  0.98962600  1
  P  P33  1  0.56800700  0.78908500  0.98489200  1
  P  P34  1  0.14632800  0.91432300  0.48962600  1
  P  P35  1  0.48281900  0.57734400  0.49683900  1
  O  O36  1  0.45699900  0.38470400  0.82409000  1
  O  O37  1  0.36255100  0.26402700  0.48545900  1
  O  O38  1  0.60130300  0.54230800  0.99051500  1
  O  O39  1  0.42182100  0.64056400  0.52800600  1
  O  O40  1  0.55060800  0.30596100  0.46240600  1
  O  O41  1  0.94976100  0.55109600  0.15896000  1
  O  O42  1  0.78869600  0.03339100  0.15295300  1
  O  O43  1  0.55109600  0.60133400  0.65896000  1
  O  O44  1  0.33333300  0.66666700  0.24390200  1
  O  O45  1  0.14115300  0.72966000  0.82519600  1
  O  O46  1  0.00000000  0.00000000  0.24302300  1
  O  O47  1  0.66666700  0.33333300  0.74390200  1
  O  O48  1  0.54230800  0.94100500  0.49051500  1
  O  O49  1  0.73309400  0.57564800  0.66052100  1
  O  O50  1  0.58850700  0.85884700  0.82519600  1
  O  O51  1  0.69403900  0.24464800  0.46240600  1
  O  O52  1  0.27034000  0.41149300  0.82519600  1
  O  O53  1  0.84255400  0.26690600  0.66052100  1
  O  O54  1  0.03339100  0.24469500  0.65295300  1
  O  O55  1  0.44890400  0.39866600  0.15896000  1
  O  O56  1  0.95666300  0.07381300  0.00050500  1
  O  O57  1  0.24172500  0.20307000  0.81744400  1
  O  O58  1  0.72966000  0.58850700  0.32519600  1
  O  O59  1  0.24469500  0.21130400  0.15295300  1
  O  O60  1  0.45769200  0.05899500  0.99051500  1
  O  O61  1  0.30596100  0.75535200  0.96240600  1
  O  O62  1  0.96660900  0.75530500  0.15295300  1
  O  O63  1  0.09852400  0.36255100  0.98545900  1
  O  O64  1  0.69533200  0.90328200  0.49189700  1
  O  O65  1  0.21874200  0.57817900  0.52800600  1
  O  O66  1  0.79205000  0.69533200  0.99189700  1
  O  O67  1  0.63744900  0.73597300  0.98545900  1
  O  O68  1  0.78125800  0.42182100  0.02800600  1
  O  O69  1  0.26402700  0.90147600  0.98545900  1
  O  O70  1  0.92770600  0.54300100  0.82409000  1
  O  O71  1  0.73597300  0.09852400  0.48545900  1
  O  O72  1  0.61529600  0.07229400  0.82409000  1
  O  O73  1  0.00000000  0.00000000  0.74302300  1
  O  O74  1  0.20795000  0.30466800  0.49189700  1
  O  O75  1  0.75535200  0.44939200  0.46240600  1
  O  O76  1  0.35943600  0.78125800  0.52800600  1
  O  O77  1  0.03865600  0.24172500  0.31744400  1
  O  O78  1  0.42435200  0.15744600  0.66052100  1
  O  O79  1  0.38470400  0.92770600  0.32409000  1
  O  O80  1  0.26690600  0.42435200  0.16052100  1
  O  O81  1  0.54300100  0.61529600  0.32409000  1
  O  O82  1  0.90328200  0.20795000  0.99189700  1
  O  O83  1  0.39866600  0.94976100  0.65896000  1
  O  O84  1  0.07229400  0.45699900  0.32409000  1
  O  O85  1  0.60133400  0.05023900  0.15896000  1
  O  O86  1  0.92618700  0.88284900  0.00050500  1
  O  O87  1  0.90147600  0.63744900  0.48545900  1
  O  O88  1  0.96134400  0.75827500  0.81744400  1
  O  O89  1  0.30466800  0.09671800  0.99189700  1
  O  O90  1  0.64056400  0.21874200  0.02800600  1
  O  O91  1  0.15744600  0.73309400  0.16052100  1
  O  O92  1  0.44939200  0.69403900  0.96240600  1
  O  O93  1  0.20307000  0.96134400  0.31744400  1
  O  O94  1  0.79693000  0.03865600  0.81744400  1
  O  O95  1  0.57817900  0.35943600  0.02800600  1
  O  O96  1  0.39869700  0.45769200  0.49051500  1
  O  O97  1  0.21130400  0.96660900  0.65295300  1
  O  O98  1  0.75827500  0.79693000  0.31744400  1
  O  O99  1  0.09671800  0.79205000  0.49189700  1
  O  O100  1  0.41149300  0.14115300  0.32519600  1
  O  O101  1  0.07381300  0.11715100  0.50050500  1
  O  O102  1  0.75530500  0.78869600  0.65295300  1
  O  O103  1  0.85884700  0.27034000  0.32519600  1
  O  O104  1  0.05023900  0.44890400  0.65896000  1
  O  O105  1  0.57564800  0.84255400  0.16052100  1
  O  O106  1  0.94100500  0.39869700  0.99051500  1
  O  O107  1  0.11715100  0.04333700  0.00050500  1
  O  O108  1  0.88284900  0.95666300  0.50050500  1
  O  O109  1  0.05899500  0.60130300  0.49051500  1
  O  O110  1  0.04333700  0.92618700  0.50050500  1
  O  O111  1  0.24464800  0.55060800  0.96240600  1
