# generated using pymatgen
data_BaSr2I6
_symmetry_space_group_name_H-M   'P 1'
_cell_length_a   13.73000292
_cell_length_b   13.73000292
_cell_length_c   8.97478986
_cell_angle_alpha   84.79977005
_cell_angle_beta   84.79977005
_cell_angle_gamma   33.46869732
_symmetry_Int_Tables_number   1
_chemical_formula_structural   BaSr2I6
_chemical_formula_sum   'Ba2 Sr4 I12'
_cell_volume   928.84332959
_cell_formula_units_Z   2
loop_
 _symmetry_equiv_pos_site_id
 _symmetry_equiv_pos_as_xyz
  1  'x, y, z'
loop_
 _atom_site_type_symbol
 _atom_site_label
 _atom_site_symmetry_multiplicity
 _atom_site_fract_x
 _atom_site_fract_y
 _atom_site_fract_z
 _atom_site_occupancy
  Ba  Ba0  1  0.73377900  0.26622100  0.25000000  1
  Ba  Ba1  1  0.26622100  0.73377900  0.75000000  1
  Sr  Sr2  1  0.05385400  0.60302900  0.13460100  1
  Sr  Sr3  1  0.60302900  0.05385400  0.63460100  1
  Sr  Sr4  1  0.39697100  0.94614600  0.36539900  1
  Sr  Sr5  1  0.94614600  0.39697100  0.86539900  1
  I  I6  1  0.36774600  0.49721300  0.07693500  1
  I  I7  1  0.49721300  0.36774600  0.57693500  1
  I  I8  1  0.90827300  0.88040600  0.37630500  1
  I  I9  1  0.88040600  0.90827300  0.87630500  1
  I  I10  1  0.32743000  0.23990600  0.35912000  1
  I  I11  1  0.23990600  0.32743000  0.85912000  1
  I  I12  1  0.76009400  0.67257000  0.14088000  1
  I  I13  1  0.67257000  0.76009400  0.64088000  1
  I  I14  1  0.11959400  0.09172700  0.12369500  1
  I  I15  1  0.09172700  0.11959400  0.62369500  1
  I  I16  1  0.50278700  0.63225400  0.42306500  1
  I  I17  1  0.63225400  0.50278700  0.92306500  1
