# generated using pymatgen
data_CSe2S2N2(OF)3
_symmetry_space_group_name_H-M   'P 1'
_cell_length_a   11.05781200
_cell_length_b   8.96555700
_cell_length_c   12.70633084
_cell_angle_alpha   45.47917134
_cell_angle_beta   90.00000000
_cell_angle_gamma   90.00000000
_symmetry_Int_Tables_number   1
_chemical_formula_structural   CSe2S2N2(OF)3
_chemical_formula_sum   'C4 Se8 S8 N8 O12 F12'
_cell_volume   898.15954102
_cell_formula_units_Z   4
loop_
 _symmetry_equiv_pos_site_id
 _symmetry_equiv_pos_as_xyz
  1  'x, y, z'
loop_
 _atom_site_type_symbol
 _atom_site_label
 _atom_site_symmetry_multiplicity
 _atom_site_fract_x
 _atom_site_fract_y
 _atom_site_fract_z
 _atom_site_occupancy
  C  C0  1  0.01228600  0.66500200  0.77286100  1
  C  C1  1  0.48771400  0.66500200  0.27286100  1
  C  C2  1  0.98771400  0.33499800  0.22713900  1
  C  C3  1  0.51228600  0.33499800  0.72713900  1
  Se  Se4  1  0.41149800  0.23861000  0.16032000  1
  Se  Se5  1  0.91149800  0.76139000  0.33968000  1
  Se  Se6  1  0.89902900  0.28163500  0.54471500  1
  Se  Se7  1  0.39902900  0.71836500  0.95528500  1
  Se  Se8  1  0.58850200  0.76139000  0.83968000  1
  Se  Se9  1  0.60097100  0.28163500  0.04471500  1
  Se  Se10  1  0.08850200  0.23861000  0.66032000  1
  Se  Se11  1  0.10097100  0.71836500  0.45528500  1
  S  S12  1  0.87558800  0.09144600  0.84738900  1
  S  S13  1  0.86604400  0.60863800  0.73158500  1
  S  S14  1  0.62441200  0.09144600  0.34738900  1
  S  S15  1  0.36604400  0.39136200  0.76841500  1
  S  S16  1  0.37558800  0.90855400  0.65261100  1
  S  S17  1  0.13395600  0.39136200  0.26841500  1
  S  S18  1  0.12441200  0.90855400  0.15261100  1
  S  S19  1  0.63395600  0.60863800  0.23158500  1
  N  N20  1  0.18791400  0.83523100  0.29298300  1
  N  N21  1  0.01661300  0.11766300  0.83137900  1
  N  N22  1  0.48338700  0.11766300  0.33137900  1
  N  N23  1  0.98338700  0.88233700  0.16862100  1
  N  N24  1  0.81208600  0.16476900  0.70701700  1
  N  N25  1  0.68791400  0.16476900  0.20701700  1
  N  N26  1  0.51661300  0.88233700  0.66862100  1
  N  N27  1  0.31208600  0.83523100  0.79298300  1
  O  O28  1  0.79130600  0.79003200  0.66599300  1
  O  O29  1  0.82591600  0.40997300  0.87427300  1
  O  O30  1  0.32591600  0.59002700  0.62572700  1
  O  O31  1  0.29130600  0.20996800  0.83400700  1
  O  O32  1  0.20869400  0.20996800  0.33400700  1
  O  O33  1  0.67408400  0.40997300  0.37427300  1
  O  O34  1  0.17408400  0.59002700  0.12572700  1
  O  O35  1  0.09536200  0.40696000  0.37194000  1
  O  O36  1  0.90463800  0.59304000  0.62806000  1
  O  O37  1  0.40463800  0.40696000  0.87194000  1
  O  O38  1  0.70869400  0.79003200  0.16599300  1
  O  O39  1  0.59536200  0.59304000  0.12806000  1
  F  F40  1  0.00764500  0.29127300  0.14584600  1
  F  F41  1  0.58900000  0.49978600  0.65227600  1
  F  F42  1  0.56781700  0.16593200  0.85461500  1
  F  F43  1  0.91100000  0.49978600  0.15227600  1
  F  F44  1  0.50764500  0.70872700  0.35415400  1
  F  F45  1  0.06781700  0.83406800  0.64538500  1
  F  F46  1  0.43218300  0.83406800  0.14538500  1
  F  F47  1  0.93218300  0.16593200  0.35461500  1
  F  F48  1  0.99235500  0.70872700  0.85415400  1
  F  F49  1  0.49235500  0.29127300  0.64584600  1
  F  F50  1  0.41100000  0.50021400  0.34772400  1
  F  F51  1  0.08900000  0.50021400  0.84772400  1
