# generated using pymatgen
data_Cs3KRe6C6(S4N3)2
_symmetry_space_group_name_H-M   'P 1'
_cell_length_a   15.65419899
_cell_length_b   15.65419899
_cell_length_c   15.65419899
_cell_angle_alpha   109.47122063
_cell_angle_beta   109.47122063
_cell_angle_gamma   109.47122063
_symmetry_Int_Tables_number   1
_chemical_formula_structural   Cs3KRe6C6(S4N3)2
_chemical_formula_sum   'Cs12 K4 Re24 C24 S32 N24'
_cell_volume   2953.04904178
_cell_formula_units_Z   4
loop_
 _symmetry_equiv_pos_site_id
 _symmetry_equiv_pos_as_xyz
  1  'x, y, z'
loop_
 _atom_site_type_symbol
 _atom_site_label
 _atom_site_symmetry_multiplicity
 _atom_site_fract_x
 _atom_site_fract_y
 _atom_site_fract_z
 _atom_site_occupancy
  Cs  Cs0  1  0.44853300  0.25000000  0.69853300  1
  Cs  Cs1  1  0.75000000  0.30146700  0.55146700  1
  Cs  Cs2  1  0.75000000  0.80146700  0.05146700  1
  Cs  Cs3  1  0.25000000  0.69853300  0.44853300  1
  Cs  Cs4  1  0.94853300  0.25000000  0.19853300  1
  Cs  Cs5  1  0.55146700  0.75000000  0.30146700  1
  Cs  Cs6  1  0.25000000  0.19853300  0.94853300  1
  Cs  Cs7  1  0.19853300  0.94853300  0.25000000  1
  Cs  Cs8  1  0.05146700  0.75000000  0.80146700  1
  Cs  Cs9  1  0.30146700  0.55146700  0.75000000  1
  Cs  Cs10  1  0.69853300  0.44853300  0.25000000  1
  Cs  Cs11  1  0.80146700  0.05146700  0.75000000  1
  K  K12  1  0.50000000  0.00000000  0.50000000  1
  K  K13  1  0.00000000  0.50000000  0.50000000  1
  K  K14  1  0.00000000  0.00000000  0.00000000  1
  K  K15  1  0.50000000  0.50000000  0.00000000  1
  Re  Re16  1  0.89332000  0.86255900  0.40040600  1
  Re  Re17  1  0.50708600  0.90040600  0.03784700  1
  Re  Re18  1  0.99291400  0.03076100  0.39332000  1
  Re  Re19  1  0.96215300  0.49291400  0.09959400  1
  Re  Re20  1  0.10668000  0.13744100  0.59959400  1
  Re  Re21  1  0.53784700  0.63744100  0.53076100  1
  Re  Re22  1  0.00708600  0.96923900  0.60668000  1
  Re  Re23  1  0.49291400  0.09959400  0.96215300  1
  Re  Re24  1  0.63744100  0.53076100  0.53784700  1
  Re  Re25  1  0.59959400  0.10668000  0.13744100  1
  Re  Re26  1  0.13744100  0.59959400  0.10668000  1
  Re  Re27  1  0.09959400  0.96215300  0.49291400  1
  Re  Re28  1  0.39332000  0.99291400  0.03076100  1
  Re  Re29  1  0.53076100  0.53784700  0.63744100  1
  Re  Re30  1  0.46923900  0.46215300  0.36255900  1
  Re  Re31  1  0.03784700  0.50708600  0.90040600  1
  Re  Re32  1  0.03076100  0.39332000  0.99291400  1
  Re  Re33  1  0.60668000  0.00708600  0.96923900  1
  Re  Re34  1  0.36255900  0.46923900  0.46215300  1
  Re  Re35  1  0.46215300  0.36255900  0.46923900  1
  Re  Re36  1  0.40040600  0.89332000  0.86255900  1
  Re  Re37  1  0.86255900  0.40040600  0.89332000  1
  Re  Re38  1  0.90040600  0.03784700  0.50708600  1
  Re  Re39  1  0.96923900  0.60668000  0.00708600  1
  C  C40  1  0.49010300  0.22044400  0.93256700  1
  C  C41  1  0.28787700  0.72044400  0.23034000  1
  C  C42  1  0.76966000  0.71212300  0.27955600  1
  C  C43  1  0.55753700  0.56743300  0.78787700  1
  C  C44  1  0.77955600  0.06743300  0.50989700  1
  C  C45  1  0.78787700  0.55753700  0.56743300  1
  C  C46  1  0.44246300  0.43256700  0.21212300  1
  C  C47  1  0.26966000  0.99010300  0.05753700  1
  C  C48  1  0.22044400  0.93256700  0.49010300  1
  C  C49  1  0.05753700  0.26966000  0.99010300  1
  C  C50  1  0.21212300  0.44246300  0.43256700  1
  C  C51  1  0.73034000  0.00989700  0.94246300  1
  C  C52  1  0.71212300  0.27955600  0.76966000  1
  C  C53  1  0.56743300  0.78787700  0.55753700  1
  C  C54  1  0.23034000  0.28787700  0.72044400  1
  C  C55  1  0.06743300  0.50989700  0.77955600  1
  C  C56  1  0.27955600  0.76966000  0.71212300  1
  C  C57  1  0.99010300  0.05753700  0.26966000  1
  C  C58  1  0.43256700  0.21212300  0.44246300  1
  C  C59  1  0.00989700  0.94246300  0.73034000  1
  C  C60  1  0.94246300  0.73034000  0.00989700  1
  C  C61  1  0.93256700  0.49010300  0.22044400  1
  C  C62  1  0.72044400  0.23034000  0.28787700  1
  C  C63  1  0.50989700  0.77955600  0.06743300  1
  S  S64  1  0.31020400  0.31020400  0.31020400  1
  S  S65  1  0.43812600  0.63371600  0.61990400  1
  S  S66  1  0.86628400  0.30441000  0.98618800  1
  S  S67  1  0.88009600  0.51381200  0.81822300  1
  S  S68  1  0.68177700  0.19559000  0.06187400  1
  S  S69  1  0.69559000  0.01381200  0.13371600  1
  S  S70  1  0.06187400  0.68177700  0.19559000  1
  S  S71  1  0.93812600  0.31822300  0.80441000  1
  S  S72  1  0.11990400  0.48618800  0.18177700  1
  S  S73  1  0.98618800  0.86628400  0.30441000  1
  S  S74  1  0.68979600  0.68979600  0.68979600  1
  S  S75  1  0.81020400  0.50000000  0.00000000  1
  S  S76  1  0.50000000  0.00000000  0.18979600  1
  S  S77  1  0.63371600  0.61990400  0.43812600  1
  S  S78  1  0.81822300  0.88009600  0.51381200  1
  S  S79  1  0.19559000  0.06187400  0.68177700  1
  S  S80  1  0.51381200  0.81822300  0.88009600  1
  S  S81  1  0.18177700  0.11990400  0.48618800  1
  S  S82  1  0.30441000  0.98618800  0.86628400  1
  S  S83  1  0.18979600  0.50000000  0.00000000  1
  S  S84  1  0.01381200  0.13371600  0.69559000  1
  S  S85  1  0.48618800  0.18177700  0.11990400  1
  S  S86  1  0.00000000  0.18979600  0.50000000  1
  S  S87  1  0.36628400  0.38009600  0.56187400  1
  S  S88  1  0.13371600  0.69559000  0.01381200  1
  S  S89  1  0.00000000  0.81020400  0.50000000  1
  S  S90  1  0.38009600  0.56187400  0.36628400  1
  S  S91  1  0.31822300  0.80441000  0.93812600  1
  S  S92  1  0.80441000  0.93812600  0.31822300  1
  S  S93  1  0.61990400  0.43812600  0.63371600  1
  S  S94  1  0.50000000  0.00000000  0.81020400  1
  S  S95  1  0.56187400  0.36628400  0.38009600  1
  N  N96  1  0.49045100  0.29283900  0.92471100  1
  N  N97  1  0.79283900  0.30238700  0.36812800  1
  N  N98  1  0.69761300  0.63187200  0.20716100  1
  N  N99  1  0.06574100  0.19761300  0.99045100  1
  N  N100  1  0.30238700  0.36812800  0.79283900  1
  N  N101  1  0.20716100  0.69761300  0.63187200  1
  N  N102  1  0.99045100  0.06574100  0.19761300  1
  N  N103  1  0.36812800  0.79283900  0.30238700  1
  N  N104  1  0.29283900  0.92471100  0.49045100  1
  N  N105  1  0.50954900  0.70716100  0.07528900  1
  N  N106  1  0.00954900  0.93425900  0.80238700  1
  N  N107  1  0.56574100  0.57528900  0.86812800  1
  N  N108  1  0.63187200  0.20716100  0.69761300  1
  N  N109  1  0.80238700  0.00954900  0.93425900  1
  N  N110  1  0.92471100  0.49045100  0.29283900  1
  N  N111  1  0.57528900  0.86812800  0.56574100  1
  N  N112  1  0.70716100  0.07528900  0.50954900  1
  N  N113  1  0.93425900  0.80238700  0.00954900  1
  N  N114  1  0.19761300  0.99045100  0.06574100  1
  N  N115  1  0.13187200  0.43425900  0.42471100  1
  N  N116  1  0.43425900  0.42471100  0.13187200  1
  N  N117  1  0.07528900  0.50954900  0.70716100  1
  N  N118  1  0.42471100  0.13187200  0.43425900  1
  N  N119  1  0.86812800  0.56574100  0.57528900  1
