# generated using pymatgen
data_KC(NO2)2
_symmetry_space_group_name_H-M   'P 1'
_cell_length_a   7.67341916
_cell_length_b   7.67341916
_cell_length_c   9.15047742
_cell_angle_alpha   75.97483683
_cell_angle_beta   75.97483683
_cell_angle_gamma   61.05566727
_symmetry_Int_Tables_number   1
_chemical_formula_structural   KC(NO2)2
_chemical_formula_sum   'K4 C4 N8 O16'
_cell_volume   452.44665699
_cell_formula_units_Z   4
loop_
 _symmetry_equiv_pos_site_id
 _symmetry_equiv_pos_as_xyz
  1  'x, y, z'
loop_
 _atom_site_type_symbol
 _atom_site_label
 _atom_site_symmetry_multiplicity
 _atom_site_fract_x
 _atom_site_fract_y
 _atom_site_fract_z
 _atom_site_occupancy
  K  K0  1  0.97627700  0.66665200  0.29460200  1
  K  K1  1  0.33334800  0.02372300  0.20539800  1
  K  K2  1  0.02372300  0.33334800  0.70539800  1
  K  K3  1  0.66665200  0.97627700  0.79460200  1
  C  C4  1  0.31751300  0.72433100  0.66772000  1
  C  C5  1  0.27566900  0.68248700  0.83228000  1
  C  C6  1  0.68248700  0.27566900  0.33228000  1
  C  C7  1  0.72433100  0.31751300  0.16772000  1
  N  N8  1  0.25878100  0.81513400  0.92091700  1
  N  N9  1  0.50076600  0.26768900  0.40120900  1
  N  N10  1  0.18486600  0.74121900  0.57908300  1
  N  N11  1  0.74121900  0.18486600  0.07908300  1
  N  N12  1  0.81513400  0.25878100  0.42091700  1
  N  N13  1  0.73231100  0.49923400  0.09879100  1
  N  N14  1  0.49923400  0.73231100  0.59879100  1
  N  N15  1  0.26768900  0.50076600  0.90120900  1
  O  O16  1  0.78503700  0.23236000  0.56457800  1
  O  O17  1  0.62938600  0.67094600  0.68574100  1
  O  O18  1  0.53086400  0.79968300  0.46116200  1
  O  O19  1  0.46913600  0.20031700  0.53883800  1
  O  O20  1  0.67094600  0.62938600  0.18574100  1
  O  O21  1  0.03014800  0.71893400  0.65053200  1
  O  O22  1  0.96985200  0.28106600  0.34946800  1
  O  O23  1  0.71893400  0.03014800  0.15053200  1
  O  O24  1  0.23236000  0.78503700  0.06457800  1
  O  O25  1  0.79968300  0.53086400  0.96116200  1
  O  O26  1  0.76764000  0.21496300  0.93542200  1
  O  O27  1  0.32905400  0.37061400  0.81425900  1
  O  O28  1  0.37061400  0.32905400  0.31425900  1
  O  O29  1  0.21496300  0.76764000  0.43542200  1
  O  O30  1  0.28106600  0.96985200  0.84946800  1
  O  O31  1  0.20031700  0.46913600  0.03883800  1
