# generated using pymatgen
data_S4N2O3F
_symmetry_space_group_name_H-M   'P 1'
_cell_length_a   11.71737400
_cell_length_b   6.34124000
_cell_length_c   10.69859563
_cell_angle_alpha   66.93601849
_cell_angle_beta   90.00000000
_cell_angle_gamma   90.00000000
_symmetry_Int_Tables_number   1
_chemical_formula_structural   S4N2O3F
_chemical_formula_sum   'S16 N8 O12 F4'
_cell_volume   731.39360783
_cell_formula_units_Z   4
loop_
 _symmetry_equiv_pos_site_id
 _symmetry_equiv_pos_as_xyz
  1  'x, y, z'
loop_
 _atom_site_type_symbol
 _atom_site_label
 _atom_site_symmetry_multiplicity
 _atom_site_fract_x
 _atom_site_fract_y
 _atom_site_fract_z
 _atom_site_occupancy
  S  S0  1  0.12920100  0.16595400  0.49915000  1
  S  S1  1  0.37079900  0.16595400  0.99915000  1
  S  S2  1  0.87079900  0.83404600  0.50085000  1
  S  S3  1  0.23085800  0.80663200  0.01292700  1
  S  S4  1  0.58381800  0.98404400  0.14933800  1
  S  S5  1  0.57295600  0.59521400  0.72614400  1
  S  S6  1  0.73085800  0.19336800  0.48707300  1
  S  S7  1  0.62920100  0.83404600  0.00085000  1
  S  S8  1  0.41618200  0.01595600  0.85066200  1
  S  S9  1  0.07295600  0.40478600  0.77385600  1
  S  S10  1  0.42704400  0.40478600  0.27385600  1
  S  S11  1  0.76914200  0.19336800  0.98707300  1
  S  S12  1  0.91618200  0.98404400  0.64933800  1
  S  S13  1  0.26914200  0.80663200  0.51292700  1
  S  S14  1  0.08381800  0.01595600  0.35066200  1
  S  S15  1  0.92704400  0.59521400  0.22614400  1
  N  N16  1  0.68342500  0.17178900  0.10542600  1
  N  N17  1  0.31657500  0.82821100  0.89457400  1
  N  N18  1  0.18342500  0.82821100  0.39457400  1
  N  N19  1  0.26424100  0.00135700  0.06389400  1
  N  N20  1  0.23575900  0.00135700  0.56389400  1
  N  N21  1  0.81657500  0.17178900  0.60542600  1
  N  N22  1  0.73575900  0.99864300  0.93610600  1
  N  N23  1  0.76424100  0.99864300  0.43610600  1
  O  O24  1  0.81920300  0.68658200  0.24928600  1
  O  O25  1  0.31920300  0.31341800  0.25071400  1
  O  O26  1  0.18079700  0.31341800  0.75071400  1
  O  O27  1  0.48009400  0.75730700  0.67618900  1
  O  O28  1  0.01990600  0.75730700  0.17618900  1
  O  O29  1  0.54250400  0.37398400  0.83384700  1
  O  O30  1  0.95749600  0.37398400  0.33384700  1
  O  O31  1  0.04250400  0.62601600  0.66615300  1
  O  O32  1  0.68079700  0.68658200  0.74928600  1
  O  O33  1  0.51990600  0.24269300  0.32381100  1
  O  O34  1  0.98009400  0.24269300  0.82381100  1
  O  O35  1  0.45749600  0.62601600  0.16615300  1
  F  F36  1  0.89961200  0.52205400  0.09859500  1
  F  F37  1  0.60038800  0.52205400  0.59859500  1
  F  F38  1  0.39961200  0.47794600  0.40140500  1
  F  F39  1  0.10038800  0.47794600  0.90140500  1
