# generated using pymatgen
data_YCrO4
_symmetry_space_group_name_H-M   'P 1'
_cell_length_a   5.06808490
_cell_length_b   6.73780912
_cell_length_c   5.06809644
_cell_angle_alpha   67.90867756
_cell_angle_beta   89.99951608
_cell_angle_gamma   112.09130214
_symmetry_Int_Tables_number   1
_chemical_formula_structural   YCrO4
_chemical_formula_sum   'Y2 Cr2 O8'
_cell_volume   146.55588214
_cell_formula_units_Z   2
loop_
 _symmetry_equiv_pos_site_id
 _symmetry_equiv_pos_as_xyz
  1  'x, y, z'
loop_
 _atom_site_type_symbol
 _atom_site_label
 _atom_site_symmetry_multiplicity
 _atom_site_fract_x
 _atom_site_fract_y
 _atom_site_fract_z
 _atom_site_occupancy
  Y  Y0  1  0.12499900  0.75000100  0.62499800  1
  Y  Y1  1  0.87499900  0.25000000  0.37500000  1
  Cr  Cr2  1  0.37499800  0.24999000  0.87500500  1
  Cr  Cr3  1  0.62500900  0.75000500  0.12500800  1
  O  O4  1  0.19485800  0.40500300  0.65314000  1
  O  O5  1  0.84721700  0.90530500  0.78943500  1
  O  O6  1  0.71014600  0.40501000  0.94184700  1
  O  O7  1  0.55808700  0.90530700  0.30525500  1
  O  O8  1  0.44185200  0.09499100  0.69486000  1
  O  O9  1  0.15313800  0.09499300  0.21014700  1
  O  O10  1  0.80525500  0.59470100  0.34721900  1
  O  O11  1  0.28944200  0.59469300  0.05808600  1
