# generated using pymatgen
data_H6C3SN3O2F3
_symmetry_space_group_name_H-M   'P 1'
_cell_length_a   8.02926900
_cell_length_b   8.99585800
_cell_length_c   12.23740200
_cell_angle_alpha   90.00000000
_cell_angle_beta   90.00000000
_cell_angle_gamma   90.00000000
_symmetry_Int_Tables_number   1
_chemical_formula_structural   H6C3SN3O2F3
_chemical_formula_sum   'H24 C12 S4 N12 O8 F12'
_cell_volume   883.90955055
_cell_formula_units_Z   4
loop_
 _symmetry_equiv_pos_site_id
 _symmetry_equiv_pos_as_xyz
  1  'x, y, z'
loop_
 _atom_site_type_symbol
 _atom_site_label
 _atom_site_symmetry_multiplicity
 _atom_site_fract_x
 _atom_site_fract_y
 _atom_site_fract_z
 _atom_site_occupancy
  H  H0  1  0.73426600  0.88309000  0.76407900  1
  H  H1  1  0.48279200  0.09523000  0.26450700  1
  H  H2  1  0.23426600  0.11691000  0.73592100  1
  H  H3  1  0.01720800  0.09523000  0.76450700  1
  H  H4  1  0.76573400  0.61691000  0.26407900  1
  H  H5  1  0.26573400  0.38309000  0.23592100  1
  H  H6  1  0.16932100  0.01635600  0.85440500  1
  H  H7  1  0.51720800  0.90477000  0.73549300  1
  H  H8  1  0.16932100  0.48364400  0.85440500  1
  H  H9  1  0.83067900  0.51635600  0.14559500  1
  H  H10  1  0.33067900  0.48364400  0.35440500  1
  H  H11  1  0.83067900  0.98364400  0.14559500  1
  H  H12  1  0.98279200  0.59523000  0.23549300  1
  H  H13  1  0.66932100  0.98364400  0.64559500  1
  H  H14  1  0.33067900  0.01635600  0.35440500  1
  H  H15  1  0.51720800  0.59523000  0.73549300  1
  H  H16  1  0.23426600  0.38309000  0.73592100  1
  H  H17  1  0.76573400  0.88309000  0.26407900  1
  H  H18  1  0.26573400  0.11691000  0.23592100  1
  H  H19  1  0.98279200  0.90477000  0.23549300  1
  H  H20  1  0.73426600  0.61691000  0.76407900  1
  H  H21  1  0.66932100  0.51635600  0.64559500  1
  H  H22  1  0.01720800  0.40477000  0.76450700  1
  H  H23  1  0.48279200  0.40477000  0.26450700  1
  C  C24  1  0.64091000  0.88921000  0.69874700  1
  C  C25  1  0.64091000  0.61079000  0.69874700  1
  C  C26  1  0.62000100  0.25000000  0.94529100  1
  C  C27  1  0.35909000  0.11079000  0.30125300  1
  C  C28  1  0.35909000  0.38921000  0.30125300  1
  C  C29  1  0.85909000  0.61079000  0.19874700  1
  C  C30  1  0.85909000  0.88921000  0.19874700  1
  C  C31  1  0.14091000  0.38921000  0.80125300  1
  C  C32  1  0.37999900  0.75000000  0.05470900  1
  C  C33  1  0.87999900  0.25000000  0.44529100  1
  C  C34  1  0.14091000  0.11079000  0.80125300  1
  C  C35  1  0.12000100  0.75000000  0.55470900  1
  S  S36  1  0.60469900  0.75000000  0.50733800  1
  S  S37  1  0.39530100  0.25000000  0.49266200  1
  S  S38  1  0.89530100  0.75000000  0.00733800  1
  S  S39  1  0.10469900  0.25000000  0.99266200  1
  N  N40  1  0.61790700  0.25000000  0.51503300  1
  N  N41  1  0.30295800  0.75000000  0.57154200  1
  N  N42  1  0.69704200  0.25000000  0.42845800  1
  N  N43  1  0.38209300  0.75000000  0.48496700  1
  N  N44  1  0.19704200  0.75000000  0.07154200  1
  N  N45  1  0.85044500  0.75000000  0.13600000  1
  N  N46  1  0.64955500  0.75000000  0.63600000  1
  N  N47  1  0.80295800  0.25000000  0.92845800  1
  N  N48  1  0.35044500  0.25000000  0.36400000  1
  N  N49  1  0.14955500  0.25000000  0.86400000  1
  N  N50  1  0.11790700  0.75000000  0.98496700  1
  N  N51  1  0.88209300  0.25000000  0.01503300  1
  O  O52  1  0.65226100  0.61047200  0.45883400  1
  O  O53  1  0.34773900  0.11047200  0.54116600  1
  O  O54  1  0.34773900  0.38952800  0.54116600  1
  O  O55  1  0.15226100  0.11047200  0.04116600  1
  O  O56  1  0.84773900  0.61047200  0.95883400  1
  O  O57  1  0.65226100  0.88952800  0.45883400  1
  O  O58  1  0.84773900  0.88952800  0.95883400  1
  O  O59  1  0.15226100  0.38952800  0.04116600  1
  F  F60  1  0.05865900  0.87228900  0.60472300  1
  F  F61  1  0.55865900  0.12771100  0.89527700  1
  F  F62  1  0.44134100  0.62771100  0.10472300  1
  F  F63  1  0.05865900  0.62771100  0.60472300  1
  F  F64  1  0.93085500  0.25000000  0.55036500  1
  F  F65  1  0.94134100  0.12771100  0.39527700  1
  F  F66  1  0.94134100  0.37228900  0.39527700  1
  F  F67  1  0.56914500  0.25000000  0.05036500  1
  F  F68  1  0.44134100  0.87228900  0.10472300  1
  F  F69  1  0.06914500  0.75000000  0.44963500  1
  F  F70  1  0.43085500  0.75000000  0.94963500  1
  F  F71  1  0.55865900  0.37228900  0.89527700  1
