# generated using pymatgen
data_BeClO
_symmetry_space_group_name_H-M   'P 1'
_cell_length_a   15.13353841
_cell_length_b   15.13353841
_cell_length_c   15.13353927
_cell_angle_alpha   10.22107736
_cell_angle_beta   10.22107736
_cell_angle_gamma   10.22107892
_symmetry_Int_Tables_number   1
_chemical_formula_structural   BeClO
_chemical_formula_sum   'Be2 Cl2 O2'
_cell_volume   94.76295599
_cell_formula_units_Z   2
loop_
 _symmetry_equiv_pos_site_id
 _symmetry_equiv_pos_as_xyz
  1  'x, y, z'
loop_
 _atom_site_type_symbol
 _atom_site_label
 _atom_site_symmetry_multiplicity
 _atom_site_fract_x
 _atom_site_fract_y
 _atom_site_fract_z
 _atom_site_occupancy
  Be  Be0  1  0.04002800  0.04002800  0.04002800  1
  Be  Be1  1  0.95997200  0.95997200  0.95997200  1
  Cl  Cl2  1  0.21064300  0.21064300  0.21064300  1
  Cl  Cl3  1  0.78935700  0.78935700  0.78935700  1
  O  O4  1  0.37335300  0.37335300  0.37335300  1
  O  O5  1  0.62664700  0.62664700  0.62664700  1
