# generated using pymatgen
data_Sr(ClO2)2
_symmetry_space_group_name_H-M   'P 1'
_cell_length_a   7.30758511
_cell_length_b   7.30758511
_cell_length_c   6.03147900
_cell_angle_alpha   90.00000000
_cell_angle_beta   90.00000000
_cell_angle_gamma   131.02793565
_symmetry_Int_Tables_number   1
_chemical_formula_structural   Sr(ClO2)2
_chemical_formula_sum   'Sr2 Cl4 O8'
_cell_volume   242.97818646
_cell_formula_units_Z   2
loop_
 _symmetry_equiv_pos_site_id
 _symmetry_equiv_pos_as_xyz
  1  'x, y, z'
loop_
 _atom_site_type_symbol
 _atom_site_label
 _atom_site_symmetry_multiplicity
 _atom_site_fract_x
 _atom_site_fract_y
 _atom_site_fract_z
 _atom_site_occupancy
  Sr  Sr0  1  0.50000000  0.50000000  0.50000000  1
  Sr  Sr1  1  0.00000000  0.00000000  0.00000000  1
  Cl  Cl2  1  0.66672400  0.33327600  0.00000000  1
  Cl  Cl3  1  0.33327600  0.66672400  0.00000000  1
  Cl  Cl4  1  0.16672400  0.83327600  0.50000000  1
  Cl  Cl5  1  0.83327600  0.16672400  0.50000000  1
  O  O6  1  0.94555000  0.74558000  0.34682400  1
  O  O7  1  0.75442000  0.55445000  0.84682400  1
  O  O8  1  0.74558000  0.94555000  0.65317600  1
  O  O9  1  0.55445000  0.75442000  0.15317600  1
  O  O10  1  0.25442000  0.05445000  0.65317600  1
  O  O11  1  0.05445000  0.25442000  0.34682400  1
  O  O12  1  0.44555000  0.24558000  0.15317600  1
  O  O13  1  0.24558000  0.44555000  0.84682400  1
