# generated using pymatgen
data_FeB2C6(O3F4)2
_symmetry_space_group_name_H-M   'P 1'
_cell_length_a   7.77275464
_cell_length_b   7.77275464
_cell_length_c   7.77275464
_cell_angle_alpha   121.27708953
_cell_angle_beta   121.27708953
_cell_angle_gamma   87.80189224
_symmetry_Int_Tables_number   1
_chemical_formula_structural   FeB2C6(O3F4)2
_chemical_formula_sum   'Fe1 B2 C6 O6 F8'
_cell_volume   325.38507810
_cell_formula_units_Z   1
loop_
 _symmetry_equiv_pos_site_id
 _symmetry_equiv_pos_as_xyz
  1  'x, y, z'
loop_
 _atom_site_type_symbol
 _atom_site_label
 _atom_site_symmetry_multiplicity
 _atom_site_fract_x
 _atom_site_fract_y
 _atom_site_fract_z
 _atom_site_occupancy
  Fe  Fe0  1  0.50000000  0.50000000  0.00000000  1
  B  B1  1  0.75000000  0.25000000  0.50000000  1
  B  B2  1  0.25000000  0.75000000  0.50000000  1
  C  C3  1  0.67155100  0.67155100  0.00000000  1
  C  C4  1  0.64241600  0.70757000  0.34998600  1
  C  C5  1  0.70757000  0.35758400  0.06515400  1
  C  C6  1  0.32844900  0.32844900  0.00000000  1
  C  C7  1  0.35758400  0.29243000  0.65001400  1
  C  C8  1  0.29243000  0.64241600  0.93484600  1
  O  O9  1  0.22713800  0.22713800  0.00000000  1
  O  O10  1  0.17068400  0.72815900  0.89884200  1
  O  O11  1  0.27184100  0.17068400  0.44252500  1
  O  O12  1  0.72815900  0.82931600  0.55747500  1
  O  O13  1  0.82931600  0.27184100  0.10115800  1
  O  O14  1  0.77286200  0.77286200  0.00000000  1
  F  F15  1  0.04493700  0.75259400  0.44387100  1
  F  F16  1  0.95506300  0.24740600  0.55612900  1
  F  F17  1  0.39893400  0.95506300  0.70765600  1
  F  F18  1  0.69127800  0.39893400  0.44387100  1
  F  F19  1  0.75259400  0.30872200  0.70765600  1
  F  F20  1  0.60106600  0.04493700  0.29234400  1
  F  F21  1  0.30872200  0.60106600  0.55612900  1
  F  F22  1  0.24740600  0.69127800  0.29234400  1
