# generated using pymatgen
data_K2Th(CuS2)2
_symmetry_space_group_name_H-M   'P 1'
_cell_length_a   7.54229380
_cell_length_b   7.54229380
_cell_length_c   7.62235470
_cell_angle_alpha   70.81615430
_cell_angle_beta   70.81615430
_cell_angle_gamma   30.92760054
_symmetry_Int_Tables_number   1
_chemical_formula_structural   K2Th(CuS2)2
_chemical_formula_sum   'K2 Th1 Cu2 S4'
_cell_volume   209.50164239
_cell_formula_units_Z   1
loop_
 _symmetry_equiv_pos_site_id
 _symmetry_equiv_pos_as_xyz
  1  'x, y, z'
loop_
 _atom_site_type_symbol
 _atom_site_label
 _atom_site_symmetry_multiplicity
 _atom_site_fract_x
 _atom_site_fract_y
 _atom_site_fract_z
 _atom_site_occupancy
  K  K0  1  0.13816200  0.13816200  0.43431500  1
  K  K1  1  0.86183800  0.86183800  0.56568500  1
  Th  Th2  1  0.00000000  0.00000000  0.00000000  1
  Cu  Cu3  1  0.68085600  0.68085600  0.01164400  1
  Cu  Cu4  1  0.31914400  0.31914400  0.98835600  1
  S  S5  1  0.52241500  0.52241500  0.23771400  1
  S  S6  1  0.47758500  0.47758500  0.76228600  1
  S  S7  1  0.20236300  0.20236300  0.82588800  1
  S  S8  1  0.79763700  0.79763700  0.17411200  1
