# generated using pymatgen
data_BaO
_symmetry_space_group_name_H-M   'P 1'
_cell_length_a   3.92531500
_cell_length_b   6.83559700
_cell_length_c   52.66088300
_cell_angle_alpha   90.00000000
_cell_angle_beta   90.00000000
_cell_angle_gamma   90.00000000
_symmetry_Int_Tables_number   1
_chemical_formula_structural   BaO
_chemical_formula_sum   'Ba32 O32'
_cell_volume   1412.99004247
_cell_formula_units_Z   32
loop_
 _symmetry_equiv_pos_site_id
 _symmetry_equiv_pos_as_xyz
  1  'x, y, z'
loop_
 _atom_site_type_symbol
 _atom_site_label
 _atom_site_symmetry_multiplicity
 _atom_site_fract_x
 _atom_site_fract_y
 _atom_site_fract_z
 _atom_site_occupancy
  Ba  Ba0  1  0.74817800  0.03075200  0.25000000  1
  Ba  Ba1  1  0.24972500  0.03449200  0.56273900  1
  Ba  Ba2  1  0.24972500  0.03449200  0.93726100  1
  Ba  Ba3  1  0.74835400  0.16938300  0.62521300  1
  Ba  Ba4  1  0.74835400  0.16938300  0.87478700  1
  Ba  Ba5  1  0.25064200  0.19026300  0.18750500  1
  Ba  Ba6  1  0.25064200  0.19026300  0.31249500  1
  Ba  Ba7  1  0.75133600  0.25000000  0.00000000  1
  Ba  Ba8  1  0.75133600  0.25000000  0.50000000  1
  Ba  Ba9  1  0.25064200  0.30973700  0.68750500  1
  Ba  Ba10  1  0.25064200  0.30973700  0.81249500  1
  Ba  Ba11  1  0.74835400  0.33061700  0.12521300  1
  Ba  Ba12  1  0.74835400  0.33061700  0.37478700  1
  Ba  Ba13  1  0.24972500  0.46550800  0.06273900  1
  Ba  Ba14  1  0.24972500  0.46550800  0.43726100  1
  Ba  Ba15  1  0.74817800  0.46924800  0.75000000  1
  Ba  Ba16  1  0.25182200  0.53075200  0.25000000  1
  Ba  Ba17  1  0.75027500  0.53449200  0.93726100  1
  Ba  Ba18  1  0.75027500  0.53449200  0.56273900  1
  Ba  Ba19  1  0.25164600  0.66938300  0.62521300  1
  Ba  Ba20  1  0.25164600  0.66938300  0.87478700  1
  Ba  Ba21  1  0.74935800  0.69026300  0.18750500  1
  Ba  Ba22  1  0.74935800  0.69026300  0.31249500  1
  Ba  Ba23  1  0.24866400  0.75000000  0.00000000  1
  Ba  Ba24  1  0.24866400  0.75000000  0.50000000  1
  Ba  Ba25  1  0.74935800  0.80973700  0.68750500  1
  Ba  Ba26  1  0.74935800  0.80973700  0.81249500  1
  Ba  Ba27  1  0.25164600  0.83061700  0.12521300  1
  Ba  Ba28  1  0.25164600  0.83061700  0.37478700  1
  Ba  Ba29  1  0.75027500  0.96550800  0.43726100  1
  Ba  Ba30  1  0.75027500  0.96550800  0.06273900  1
  Ba  Ba31  1  0.25182200  0.96924800  0.75000000  1
  O  O32  1  0.25033100  0.08914800  0.03074600  1
  O  O33  1  0.24363300  0.15844300  0.09438600  1
  O  O34  1  0.76745100  0.01095200  0.15632100  1
  O  O35  1  0.24363300  0.15844300  0.40561400  1
  O  O36  1  0.76745100  0.01095200  0.34367900  1
  O  O37  1  0.25033100  0.08914800  0.46925400  1
  O  O38  1  0.75831300  0.13983000  0.71832800  1
  O  O39  1  0.75831300  0.13983000  0.78167200  1
  O  O40  1  0.75831300  0.36017000  0.21832800  1
  O  O41  1  0.25033100  0.41085200  0.53074600  1
  O  O42  1  0.25033100  0.41085200  0.96925400  1
  O  O43  1  0.76745100  0.48904800  0.65632100  1
  O  O44  1  0.75831300  0.36017000  0.28167200  1
  O  O45  1  0.24363300  0.34155700  0.59438600  1
  O  O46  1  0.24363300  0.34155700  0.90561400  1
  O  O47  1  0.76745100  0.48904800  0.84367900  1
  O  O48  1  0.23254900  0.51095200  0.15632100  1
  O  O49  1  0.23254900  0.51095200  0.34367900  1
  O  O50  1  0.24168700  0.63983000  0.71832800  1
  O  O51  1  0.74966900  0.58914800  0.03074600  1
  O  O52  1  0.24168700  0.63983000  0.78167200  1
  O  O53  1  0.75636700  0.65844300  0.40561400  1
  O  O54  1  0.74966900  0.58914800  0.46925400  1
  O  O55  1  0.75636700  0.65844300  0.09438600  1
  O  O56  1  0.24168700  0.86017000  0.21832800  1
  O  O57  1  0.24168700  0.86017000  0.28167200  1
  O  O58  1  0.75636700  0.84155700  0.59438600  1
  O  O59  1  0.23254900  0.98904800  0.65632100  1
  O  O60  1  0.23254900  0.98904800  0.84367900  1
  O  O61  1  0.75636700  0.84155700  0.90561400  1
  O  O62  1  0.74966900  0.91085200  0.96925400  1
  O  O63  1  0.74966900  0.91085200  0.53074600  1
