# generated using pymatgen
data_Zr3(AsO5)4
_symmetry_space_group_name_H-M   'P 1'
_cell_length_a   5.67269100
_cell_length_b   9.04000416
_cell_length_c   9.55818112
_cell_angle_alpha   110.72393246
_cell_angle_beta   91.46555642
_cell_angle_gamma   91.12487536
_symmetry_Int_Tables_number   1
_chemical_formula_structural   Zr3(AsO5)4
_chemical_formula_sum   'Zr3 As4 O20'
_cell_volume   458.07406449
_cell_formula_units_Z   1
loop_
 _symmetry_equiv_pos_site_id
 _symmetry_equiv_pos_as_xyz
  1  'x, y, z'
loop_
 _atom_site_type_symbol
 _atom_site_label
 _atom_site_symmetry_multiplicity
 _atom_site_fract_x
 _atom_site_fract_y
 _atom_site_fract_z
 _atom_site_occupancy
  Zr  Zr0  1  0.00000000  0.00000000  0.00000000  1
  Zr  Zr1  1  0.72883400  0.27297700  0.57628200  1
  Zr  Zr2  1  0.27116600  0.72702300  0.42371800  1
  As  As3  1  0.24420200  0.12937600  0.70672400  1
  As  As4  1  0.75579800  0.87062400  0.29327600  1
  As  As5  1  0.79496600  0.68543100  0.65520000  1
  As  As6  1  0.20503400  0.31456900  0.34480000  1
  O  O7  1  0.19342000  0.07240400  0.85899400  1
  O  O8  1  0.80658000  0.92759600  0.14100600  1
  O  O9  1  0.51474700  0.22293300  0.73487400  1
  O  O10  1  0.48525300  0.77706700  0.26512600  1
  O  O11  1  0.23993700  0.96584800  0.54926800  1
  O  O12  1  0.76006300  0.03415200  0.45073200  1
  O  O13  1  0.02663600  0.25651200  0.70486000  1
  O  O14  1  0.97336400  0.74348800  0.29514000  1
  O  O15  1  0.41690500  0.27501800  0.45395900  1
  O  O16  1  0.58309500  0.72498200  0.54604100  1
  O  O17  1  0.72383300  0.51988900  0.69369200  1
  O  O18  1  0.27616700  0.48011100  0.30630800  1
  O  O19  1  0.81175200  0.84005100  0.82687700  1
  O  O20  1  0.18824800  0.15994900  0.17312300  1
  O  O21  1  0.06831900  0.67534500  0.58375200  1
  O  O22  1  0.93168100  0.32465500  0.41624800  1
  O  O23  1  0.26926500  0.79395700  0.98519300  1
  O  O24  1  0.73073500  0.20604300  0.01480700  1
  O  O25  1  0.76588300  0.34984400  0.05358900  1
  O  O26  1  0.23411700  0.65015600  0.94641100  1
