# generated using pymatgen
data_ZrC8(NCl3)2
_symmetry_space_group_name_H-M   'P 1'
_cell_length_a   8.04776500
_cell_length_b   8.04776500
_cell_length_c   8.04776571
_cell_angle_alpha   55.34078922
_cell_angle_beta   55.34078922
_cell_angle_gamma   55.34078519
_symmetry_Int_Tables_number   1
_chemical_formula_structural   ZrC8(NCl3)2
_chemical_formula_sum   'Zr1 C8 N2 Cl6'
_cell_volume   328.66464767
_cell_formula_units_Z   1
loop_
 _symmetry_equiv_pos_site_id
 _symmetry_equiv_pos_as_xyz
  1  'x, y, z'
loop_
 _atom_site_type_symbol
 _atom_site_label
 _atom_site_symmetry_multiplicity
 _atom_site_fract_x
 _atom_site_fract_y
 _atom_site_fract_z
 _atom_site_occupancy
  Zr  Zr0  1  0.00218500  0.00218500  0.00218500  1
  C  C1  1  0.06380200  0.34767100  0.34767100  1
  C  C2  1  0.34767100  0.34767100  0.06380200  1
  C  C3  1  0.34767100  0.06380200  0.34767100  1
  C  C4  1  0.29530900  0.29530900  0.29530900  1
  C  C5  1  0.90730200  0.66554200  0.66554200  1
  C  C6  1  0.66554200  0.66554200  0.90730200  1
  C  C7  1  0.66554200  0.90730200  0.66554200  1
  C  C8  1  0.69346600  0.69346600  0.69346600  1
  N  N9  1  0.20892500  0.20892500  0.20892500  1
  N  N10  1  0.79766600  0.79766600  0.79766600  1
  Cl  Cl11  1  0.75918700  0.22883500  0.22883500  1
  Cl  Cl12  1  0.77257100  0.77257100  0.24053900  1
  Cl  Cl13  1  0.77257100  0.24053900  0.77257100  1
  Cl  Cl14  1  0.24053900  0.77257100  0.77257100  1
  Cl  Cl15  1  0.22883500  0.22883500  0.75918700  1
  Cl  Cl16  1  0.22883500  0.75918700  0.22883500  1
