# generated using pymatgen
data_BaYF5
_symmetry_space_group_name_H-M   'P 1'
_cell_length_a   7.69686300
_cell_length_b   11.04588900
_cell_length_c   15.40212404
_cell_angle_alpha   47.01896105
_cell_angle_beta   90.00000000
_cell_angle_gamma   90.00000000
_symmetry_Int_Tables_number   1
_chemical_formula_structural   BaYF5
_chemical_formula_sum   'Ba8 Y8 F40'
_cell_volume   957.98010557
_cell_formula_units_Z   8
loop_
 _symmetry_equiv_pos_site_id
 _symmetry_equiv_pos_as_xyz
  1  'x, y, z'
loop_
 _atom_site_type_symbol
 _atom_site_label
 _atom_site_symmetry_multiplicity
 _atom_site_fract_x
 _atom_site_fract_y
 _atom_site_fract_z
 _atom_site_occupancy
  Ba  Ba0  1  0.75090600  0.96507600  0.19660100  1
  Ba  Ba1  1  0.74936500  0.23544900  0.29724300  1
  Ba  Ba2  1  0.25090600  0.03492400  0.30339900  1
  Ba  Ba3  1  0.24936500  0.76455100  0.20275700  1
  Ba  Ba4  1  0.75063500  0.23544900  0.79724300  1
  Ba  Ba5  1  0.74909400  0.96507600  0.69660100  1
  Ba  Ba6  1  0.25063500  0.76455100  0.70275700  1
  Ba  Ba7  1  0.24909400  0.03492400  0.80339900  1
  Y  Y8  1  0.25486300  0.24118500  0.97511100  1
  Y  Y9  1  0.24665200  0.51853100  0.10016700  1
  Y  Y10  1  0.74665200  0.48146900  0.39983300  1
  Y  Y11  1  0.75486300  0.75881500  0.52488900  1
  Y  Y12  1  0.24513700  0.24118500  0.47511100  1
  Y  Y13  1  0.25334800  0.51853100  0.60016700  1
  Y  Y14  1  0.75334800  0.48146900  0.89983300  1
  Y  Y15  1  0.74513700  0.75881500  0.02488900  1
  F  F16  1  0.25519500  0.37335500  0.03562200  1
  F  F17  1  0.74957900  0.95147100  0.03122400  1
  F  F18  1  0.75136700  0.28371400  0.09554200  1
  F  F19  1  0.41698100  0.04176200  0.14110400  1
  F  F20  1  0.44549300  0.69526200  0.07411600  1
  F  F21  1  0.03648400  0.68444000  0.07651200  1
  F  F22  1  0.08542900  0.04259500  0.13915700  1
  F  F23  1  0.43842500  0.31954800  0.21143800  1
  F  F24  1  0.06029400  0.31389700  0.21107700  1
  F  F25  1  0.74042000  0.53801700  0.22004400  1
  F  F26  1  0.58542900  0.95740500  0.36084300  1
  F  F27  1  0.24042000  0.46198300  0.27995600  1
  F  F28  1  0.56029400  0.68610300  0.28892300  1
  F  F29  1  0.93842500  0.68045200  0.28856200  1
  F  F30  1  0.91698100  0.95823800  0.35889600  1
  F  F31  1  0.25136700  0.71628600  0.40445800  1
  F  F32  1  0.53648400  0.31556000  0.42348800  1
  F  F33  1  0.94549300  0.30473800  0.42588400  1
  F  F34  1  0.75519500  0.62664500  0.46437800  1
  F  F35  1  0.24957900  0.04852900  0.46877600  1
  F  F36  1  0.75042100  0.95147100  0.53122400  1
  F  F37  1  0.24480500  0.37335500  0.53562200  1
  F  F38  1  0.05450700  0.69526200  0.57411600  1
  F  F39  1  0.46351600  0.68444000  0.57651200  1
  F  F40  1  0.74863300  0.28371400  0.59554200  1
  F  F41  1  0.08301900  0.04176200  0.64110400  1
  F  F42  1  0.06157500  0.31954800  0.71143800  1
  F  F43  1  0.43970600  0.31389700  0.71107700  1
  F  F44  1  0.75958000  0.53801700  0.72004400  1
  F  F45  1  0.41457100  0.04259500  0.63915700  1
  F  F46  1  0.25958000  0.46198300  0.77995600  1
  F  F47  1  0.93970600  0.68610300  0.78892300  1
  F  F48  1  0.56157500  0.68045200  0.78856200  1
  F  F49  1  0.91457100  0.95740500  0.86084300  1
  F  F50  1  0.96351600  0.31556000  0.92348800  1
  F  F51  1  0.55450700  0.30473800  0.92588400  1
  F  F52  1  0.58301900  0.95823800  0.85889600  1
  F  F53  1  0.24863300  0.71628600  0.90445800  1
  F  F54  1  0.25042100  0.04852900  0.96877600  1
  F  F55  1  0.74480500  0.62664500  0.96437800  1
