# generated using pymatgen
data_ZnS
_symmetry_space_group_name_H-M   'P 1'
_cell_length_a   31.57174406
_cell_length_b   31.57174406
_cell_length_c   31.57174423
_cell_angle_alpha   7.01534624
_cell_angle_beta   7.01534624
_cell_angle_gamma   7.01534592
_symmetry_Int_Tables_number   1
_chemical_formula_structural   ZnS
_chemical_formula_sum   'Zn10 S10'
_cell_volume   407.05225053
_cell_formula_units_Z   10
loop_
 _symmetry_equiv_pos_site_id
 _symmetry_equiv_pos_as_xyz
  1  'x, y, z'
loop_
 _atom_site_type_symbol
 _atom_site_label
 _atom_site_symmetry_multiplicity
 _atom_site_fract_x
 _atom_site_fract_y
 _atom_site_fract_z
 _atom_site_occupancy
  Zn  Zn0  1  0.89998000  0.89998000  0.89998000  1
  Zn  Zn1  1  0.19999400  0.19999400  0.19999400  1
  Zn  Zn2  1  0.10000400  0.10000400  0.10000400  1
  Zn  Zn3  1  0.63330100  0.63330100  0.63330100  1
  Zn  Zn4  1  0.70000800  0.70000800  0.70000800  1
  Zn  Zn5  1  0.79998900  0.79998900  0.79998900  1
  Zn  Zn6  1  0.50001000  0.50001000  0.50001000  1
  Zn  Zn7  1  0.99999300  0.99999300  0.99999300  1
  Zn  Zn8  1  0.40000700  0.40000700  0.40000700  1
  Zn  Zn9  1  0.26665100  0.26665100  0.26665100  1
  S  S10  1  0.22496400  0.22496400  0.22496400  1
  S  S11  1  0.72499400  0.72499400  0.72499400  1
  S  S12  1  0.52500200  0.52500200  0.52500200  1
  S  S13  1  0.42500400  0.42500400  0.42500400  1
  S  S14  1  0.82499000  0.82499000  0.82499000  1
  S  S15  1  0.92499200  0.92499200  0.92499200  1
  S  S16  1  0.65828600  0.65828600  0.65828600  1
  S  S17  1  0.29162800  0.29162800  0.29162800  1
  S  S18  1  0.12499200  0.12499200  0.12499200  1
  S  S19  1  0.02501100  0.02501100  0.02501100  1
