# generated using pymatgen
data_S
_symmetry_space_group_name_H-M   'P 1'
_cell_length_a   8.44086790
_cell_length_b   8.44086790
_cell_length_c   4.40337800
_cell_angle_alpha   90.00000000
_cell_angle_beta   90.00000000
_cell_angle_gamma   119.99999920
_symmetry_Int_Tables_number   1
_chemical_formula_structural   S
_chemical_formula_sum   S9
_cell_volume   271.70073323
_cell_formula_units_Z   9
loop_
 _symmetry_equiv_pos_site_id
 _symmetry_equiv_pos_as_xyz
  1  'x, y, z'
loop_
 _atom_site_type_symbol
 _atom_site_label
 _atom_site_symmetry_multiplicity
 _atom_site_fract_x
 _atom_site_fract_y
 _atom_site_fract_z
 _atom_site_occupancy
  S  S0  1  0.10011000  0.10011000  0.50000000  1
  S  S1  1  0.44225200  0.68882100  0.72599500  1
  S  S2  1  0.68882100  0.44225200  0.27400500  1
  S  S3  1  0.89989000  0.00000000  0.16666700  1
  S  S4  1  0.24656900  0.55774800  0.05932900  1
  S  S5  1  0.31117900  0.75343100  0.39266200  1
  S  S6  1  0.55774800  0.24656900  0.94067100  1
  S  S7  1  0.75343100  0.31117900  0.60733800  1
  S  S8  1  0.00000000  0.89989000  0.83333300  1
