# generated using pymatgen
data_ZrN2
_symmetry_space_group_name_H-M   'P 1'
_cell_length_a   3.79265900
_cell_length_b   4.17106200
_cell_length_c   4.37008300
_cell_angle_alpha   90.00000000
_cell_angle_beta   90.00000000
_cell_angle_gamma   90.00000000
_symmetry_Int_Tables_number   1
_chemical_formula_structural   ZrN2
_chemical_formula_sum   'Zr2 N4'
_cell_volume   69.13216021
_cell_formula_units_Z   2
loop_
 _symmetry_equiv_pos_site_id
 _symmetry_equiv_pos_as_xyz
  1  'x, y, z'
loop_
 _atom_site_type_symbol
 _atom_site_label
 _atom_site_symmetry_multiplicity
 _atom_site_fract_x
 _atom_site_fract_y
 _atom_site_fract_z
 _atom_site_occupancy
  Zr  Zr0  1  0.50000000  0.24963600  0.00000000  1
  Zr  Zr1  1  0.00000000  0.75036400  0.50000000  1
  N  N2  1  0.50000000  0.49971600  0.50000000  1
  N  N3  1  0.00000000  0.50028400  0.00000000  1
  N  N4  1  0.50000000  0.14675900  0.50000000  1
  N  N5  1  0.00000000  0.85324100  0.00000000  1
