# generated using pymatgen
data_PrCu(MoO4)2
_symmetry_space_group_name_H-M   'P 1'
_cell_length_a   10.09320100
_cell_length_b   10.53351700
_cell_length_c   15.02929500
_cell_angle_alpha   90.00000000
_cell_angle_beta   90.00000000
_cell_angle_gamma   90.00000000
_symmetry_Int_Tables_number   1
_chemical_formula_structural   PrCu(MoO4)2
_chemical_formula_sum   'Pr8 Cu8 Mo16 O64'
_cell_volume   1597.86811848
_cell_formula_units_Z   8
loop_
 _symmetry_equiv_pos_site_id
 _symmetry_equiv_pos_as_xyz
  1  'x, y, z'
loop_
 _atom_site_type_symbol
 _atom_site_label
 _atom_site_symmetry_multiplicity
 _atom_site_fract_x
 _atom_site_fract_y
 _atom_site_fract_z
 _atom_site_occupancy
  Pr  Pr0  1  0.77714300  0.03490000  0.89638100  1
  Pr  Pr1  1  0.27714300  0.46510000  0.89638100  1
  Pr  Pr2  1  0.22285700  0.46510000  0.39638100  1
  Pr  Pr3  1  0.72285700  0.53490000  0.10361900  1
  Pr  Pr4  1  0.77714300  0.53490000  0.60361900  1
  Pr  Pr5  1  0.27714300  0.96510000  0.60361900  1
  Pr  Pr6  1  0.72285700  0.03490000  0.39638100  1
  Pr  Pr7  1  0.22285700  0.96510000  0.10361900  1
  Cu  Cu8  1  0.19440400  0.81899800  0.30608500  1
  Cu  Cu9  1  0.30559600  0.81899800  0.80608500  1
  Cu  Cu10  1  0.80559600  0.18100200  0.69391500  1
  Cu  Cu11  1  0.69440400  0.68100200  0.30608500  1
  Cu  Cu12  1  0.80559600  0.68100200  0.80608500  1
  Cu  Cu13  1  0.69440400  0.18100200  0.19391500  1
  Cu  Cu14  1  0.19440400  0.31899800  0.19391500  1
  Cu  Cu15  1  0.30559600  0.31899800  0.69391500  1
  Mo  Mo16  1  0.49770100  0.27867700  0.55831800  1
  Mo  Mo17  1  0.17133300  0.10287000  0.84657500  1
  Mo  Mo18  1  0.67133300  0.89713000  0.65342500  1
  Mo  Mo19  1  0.17133300  0.60287000  0.65342500  1
  Mo  Mo20  1  0.99770100  0.22132300  0.55831800  1
  Mo  Mo21  1  0.99770100  0.72132300  0.94168200  1
  Mo  Mo22  1  0.00229900  0.77867700  0.44168200  1
  Mo  Mo23  1  0.32866700  0.10287000  0.34657500  1
  Mo  Mo24  1  0.32866700  0.60287000  0.15342500  1
  Mo  Mo25  1  0.82866700  0.39713000  0.34657500  1
  Mo  Mo26  1  0.82866700  0.89713000  0.15342500  1
  Mo  Mo27  1  0.50229900  0.72132300  0.44168200  1
  Mo  Mo28  1  0.00229900  0.27867700  0.05831800  1
  Mo  Mo29  1  0.49770100  0.77867700  0.94168200  1
  Mo  Mo30  1  0.50229900  0.22132300  0.05831800  1
  Mo  Mo31  1  0.67133300  0.39713000  0.84657500  1
  O  O32  1  0.11474100  0.68460300  0.36855000  1
  O  O33  1  0.24470500  0.98712700  0.27412100  1
  O  O34  1  0.39518100  0.33321000  0.00549700  1
  O  O35  1  0.00352400  0.41225400  0.33481600  1
  O  O36  1  0.60481900  0.16679000  0.50549700  1
  O  O37  1  0.25529500  0.48712700  0.72587900  1
  O  O38  1  0.59208300  0.13542600  0.97574900  1
  O  O39  1  0.24470500  0.48712700  0.22587900  1
  O  O40  1  0.89518100  0.16679000  0.00549700  1
  O  O41  1  0.40791700  0.36457400  0.47574900  1
  O  O42  1  0.90271000  0.38436900  0.12400300  1
  O  O43  1  0.59729000  0.38436900  0.62400300  1
  O  O44  1  0.78579000  0.92170000  0.04006700  1
  O  O45  1  0.72568700  0.73885600  0.68424200  1
  O  O46  1  0.27431300  0.26114400  0.31575800  1
  O  O47  1  0.28579000  0.57830000  0.04006700  1
  O  O48  1  0.39518100  0.83321000  0.49450300  1
  O  O49  1  0.40271000  0.61563100  0.37599700  1
  O  O50  1  0.09729000  0.61563100  0.87599700  1
  O  O51  1  0.88525900  0.31539700  0.63145000  1
  O  O52  1  0.38525900  0.68460300  0.86855000  1
  O  O53  1  0.21421000  0.57830000  0.54006700  1
  O  O54  1  0.71421000  0.42170000  0.95993300  1
  O  O55  1  0.99647600  0.08774600  0.83481600  1
  O  O56  1  0.59208300  0.63542600  0.52425100  1
  O  O57  1  0.27431300  0.76114400  0.18424200  1
  O  O58  1  0.90271000  0.88436900  0.37599700  1
  O  O59  1  0.77431300  0.23885600  0.31575800  1
  O  O60  1  0.49647600  0.91225400  0.66518400  1
  O  O61  1  0.72568700  0.23885600  0.81575800  1
  O  O62  1  0.59729000  0.88436900  0.87599700  1
  O  O63  1  0.22568700  0.26114400  0.81575800  1
  O  O64  1  0.71421000  0.92170000  0.54006700  1
  O  O65  1  0.90791700  0.13542600  0.47574900  1
  O  O66  1  0.90791700  0.63542600  0.02425100  1
  O  O67  1  0.11474100  0.18460300  0.13145000  1
  O  O68  1  0.40271000  0.11563100  0.12400300  1
  O  O69  1  0.25529500  0.98712700  0.77412100  1
  O  O70  1  0.61474100  0.81539700  0.36855000  1
  O  O71  1  0.38525900  0.18460300  0.63145000  1
  O  O72  1  0.50352400  0.08774600  0.33481600  1
  O  O73  1  0.88525900  0.81539700  0.86855000  1
  O  O74  1  0.09208300  0.86457400  0.52425100  1
  O  O75  1  0.10481900  0.33321000  0.50549700  1
  O  O76  1  0.09208300  0.36457400  0.97574900  1
  O  O77  1  0.74470500  0.51287300  0.27412100  1
  O  O78  1  0.75529500  0.01287300  0.72587900  1
  O  O79  1  0.40791700  0.86457400  0.02425100  1
  O  O80  1  0.22568700  0.76114400  0.68424200  1
  O  O81  1  0.60481900  0.66679000  0.99450300  1
  O  O82  1  0.89518100  0.66679000  0.49450300  1
  O  O83  1  0.09729000  0.11563100  0.62400300  1
  O  O84  1  0.74470500  0.01287300  0.22587900  1
  O  O85  1  0.00352400  0.91225400  0.16518400  1
  O  O86  1  0.21421000  0.07830000  0.95993300  1
  O  O87  1  0.77431300  0.73885600  0.18424200  1
  O  O88  1  0.78579000  0.42170000  0.45993300  1
  O  O89  1  0.99647600  0.58774600  0.66518400  1
  O  O90  1  0.75529500  0.51287300  0.77412100  1
  O  O91  1  0.28579000  0.07830000  0.45993300  1
  O  O92  1  0.61474100  0.31539700  0.13145000  1
  O  O93  1  0.50352400  0.58774600  0.16518400  1
  O  O94  1  0.49647600  0.41225400  0.83481600  1
  O  O95  1  0.10481900  0.83321000  0.99450300  1
