# generated using pymatgen
data_PH9AuC3ClO3
_symmetry_space_group_name_H-M   'P 1'
_cell_length_a   6.54865000
_cell_length_b   14.91569100
_cell_length_c   17.85706100
_cell_angle_alpha   90.00000000
_cell_angle_beta   90.00000000
_cell_angle_gamma   90.00000000
_symmetry_Int_Tables_number   1
_chemical_formula_structural   PH9AuC3ClO3
_chemical_formula_sum   'P8 H72 Au8 C24 Cl8 O24'
_cell_volume   1744.23557344
_cell_formula_units_Z   8
loop_
 _symmetry_equiv_pos_site_id
 _symmetry_equiv_pos_as_xyz
  1  'x, y, z'
loop_
 _atom_site_type_symbol
 _atom_site_label
 _atom_site_symmetry_multiplicity
 _atom_site_fract_x
 _atom_site_fract_y
 _atom_site_fract_z
 _atom_site_occupancy
  P  P0  1  0.69177100  0.12727500  0.36379100  1
  P  P1  1  0.19177100  0.12727500  0.13620900  1
  P  P2  1  0.80822900  0.62727500  0.36379100  1
  P  P3  1  0.30822900  0.62727500  0.13620900  1
  P  P4  1  0.19177100  0.37272500  0.63620900  1
  P  P5  1  0.69177100  0.37272500  0.86379100  1
  P  P6  1  0.30822900  0.87272500  0.63620900  1
  P  P7  1  0.80822900  0.87272500  0.86379100  1
  H  H8  1  0.24275500  0.47886800  0.98541700  1
  H  H9  1  0.44387500  0.17312400  0.68520800  1
  H  H10  1  0.31793500  0.25097400  0.74647100  1
  H  H11  1  0.74275500  0.47886800  0.51458300  1
  H  H12  1  0.46341900  0.21575900  0.93408000  1
  H  H13  1  0.36884800  0.95235800  0.07503300  1
  H  H14  1  0.55404400  0.81419200  0.50810100  1
  H  H15  1  0.67011000  0.18150700  0.81549600  1
  H  H16  1  0.44387500  0.32687600  0.18520800  1
  H  H17  1  0.59564400  0.96363800  0.43386700  1
  H  H18  1  0.25724500  0.97886800  0.98541700  1
  H  H19  1  0.81793500  0.25097400  0.75352900  1
  H  H20  1  0.03658100  0.71575900  0.93408000  1
  H  H21  1  0.76777400  0.72015000  0.06450900  1
  H  H22  1  0.25724500  0.52113200  0.48541700  1
  H  H23  1  0.17011000  0.18150700  0.68450400  1
  H  H24  1  0.09564400  0.96363800  0.06613300  1
  H  H25  1  0.36884800  0.54764200  0.57503300  1
  H  H26  1  0.05612500  0.82687600  0.18520800  1
  H  H27  1  0.75724500  0.52113200  0.01458300  1
  H  H28  1  0.90435600  0.03636200  0.93386700  1
  H  H29  1  0.82989000  0.81849300  0.31549600  1
  H  H30  1  0.94595600  0.18580800  0.00810100  1
  H  H31  1  0.73222600  0.27985000  0.56450900  1
  H  H32  1  0.74275500  0.02113200  0.01458300  1
  H  H33  1  0.82989000  0.68150700  0.81549600  1
  H  H34  1  0.73222600  0.22015000  0.06450900  1
  H  H35  1  0.13115200  0.04764200  0.57503300  1
  H  H36  1  0.75724500  0.97886800  0.51458300  1
  H  H37  1  0.96341900  0.21575900  0.56592000  1
  H  H38  1  0.90435600  0.46363800  0.43386700  1
  H  H39  1  0.67011000  0.31849300  0.31549600  1
  H  H40  1  0.86884800  0.54764200  0.92496700  1
  H  H41  1  0.96341900  0.28424100  0.06592000  1
  H  H42  1  0.18206500  0.74902600  0.24647100  1
  H  H43  1  0.32989000  0.81849300  0.18450400  1
  H  H44  1  0.53658100  0.71575900  0.56592000  1
  H  H45  1  0.31793500  0.24902600  0.24647100  1
  H  H46  1  0.05404400  0.68580800  0.49189900  1
  H  H47  1  0.13115200  0.45235800  0.07503300  1
  H  H48  1  0.55612500  0.67312400  0.81479200  1
  H  H49  1  0.26777400  0.72015000  0.43549100  1
  H  H50  1  0.26777400  0.77985000  0.93549100  1
  H  H51  1  0.68206500  0.74902600  0.25352900  1
  H  H52  1  0.94387500  0.32687600  0.31479200  1
  H  H53  1  0.44595600  0.18580800  0.49189900  1
  H  H54  1  0.55612500  0.82687600  0.31479200  1
  H  H55  1  0.81793500  0.24902600  0.25352900  1
  H  H56  1  0.63115200  0.04764200  0.92496700  1
  H  H57  1  0.17011000  0.31849300  0.18450400  1
  H  H58  1  0.03658100  0.78424100  0.43408000  1
  H  H59  1  0.32989000  0.68150700  0.68450400  1
  H  H60  1  0.18206500  0.75097400  0.74647100  1
  H  H61  1  0.76777400  0.77985000  0.56450900  1
  H  H62  1  0.55404400  0.68580800  0.00810100  1
  H  H63  1  0.05404400  0.81419200  0.99189900  1
  H  H64  1  0.40435600  0.03636200  0.56613300  1
  H  H65  1  0.23222600  0.27985000  0.93549100  1
  H  H66  1  0.86884800  0.95235800  0.42496700  1
  H  H67  1  0.24275500  0.02113200  0.48541700  1
  H  H68  1  0.05612500  0.67312400  0.68520800  1
  H  H69  1  0.53658100  0.78424100  0.06592000  1
  H  H70  1  0.23222600  0.22015000  0.43549100  1
  H  H71  1  0.09564400  0.53636200  0.56613300  1
  H  H72  1  0.94387500  0.17312400  0.81479200  1
  H  H73  1  0.63115200  0.45235800  0.42496700  1
  H  H74  1  0.44595600  0.31419200  0.99189900  1
  H  H75  1  0.46341900  0.28424100  0.43408000  1
  H  H76  1  0.59564400  0.53636200  0.93386700  1
  H  H77  1  0.68206500  0.75097400  0.75352900  1
  H  H78  1  0.94595600  0.31419200  0.50810100  1
  H  H79  1  0.40435600  0.46363800  0.06613300  1
  Au  Au80  1  0.20411800  0.04007700  0.23834000  1
  Au  Au81  1  0.20411800  0.45992300  0.73834000  1
  Au  Au82  1  0.29588200  0.54007700  0.23834000  1
  Au  Au83  1  0.70411800  0.04007700  0.26166000  1
  Au  Au84  1  0.79588200  0.95992300  0.76166000  1
  Au  Au85  1  0.29588200  0.95992300  0.73834000  1
  Au  Au86  1  0.79588200  0.54007700  0.26166000  1
  Au  Au87  1  0.70411800  0.45992300  0.76166000  1
  C  C88  1  0.10100700  0.78340100  0.93882200  1
  C  C89  1  0.24460300  0.51231000  0.54616600  1
  C  C90  1  0.60100700  0.71659900  0.06117800  1
  C  C91  1  0.89899300  0.28340100  0.56117800  1
  C  C92  1  0.25539700  0.48769000  0.04616600  1
  C  C93  1  0.60100700  0.78340100  0.56117800  1
  C  C94  1  0.25539700  0.01231000  0.54616600  1
  C  C95  1  0.18622600  0.71867000  0.69118100  1
  C  C96  1  0.10100700  0.71659900  0.43882200  1
  C  C97  1  0.31377400  0.21867000  0.69118100  1
  C  C98  1  0.18622600  0.78133000  0.19118100  1
  C  C99  1  0.81377400  0.21867000  0.80881900  1
  C  C100  1  0.68622600  0.71867000  0.80881900  1
  C  C101  1  0.81377400  0.28133000  0.30881900  1
  C  C102  1  0.39899300  0.28340100  0.93882200  1
  C  C103  1  0.74460300  0.98769000  0.45383400  1
  C  C104  1  0.75539700  0.01231000  0.95383400  1
  C  C105  1  0.31377400  0.28133000  0.19118100  1
  C  C106  1  0.75539700  0.48769000  0.45383400  1
  C  C107  1  0.39899300  0.21659900  0.43882200  1
  C  C108  1  0.74460300  0.51231000  0.95383400  1
  C  C109  1  0.24460300  0.98769000  0.04616600  1
  C  C110  1  0.68622600  0.78133000  0.30881900  1
  C  C111  1  0.89899300  0.21659900  0.06117800  1
  Cl  Cl112  1  0.78310400  0.05931100  0.66036100  1
  Cl  Cl113  1  0.78310400  0.44068900  0.16036100  1
  Cl  Cl114  1  0.28310400  0.44068900  0.33963900  1
  Cl  Cl115  1  0.21689600  0.94068900  0.33963900  1
  Cl  Cl116  1  0.28310400  0.05931100  0.83963900  1
  Cl  Cl117  1  0.71689600  0.55931100  0.66036100  1
  Cl  Cl118  1  0.21689600  0.55931100  0.83963900  1
  Cl  Cl119  1  0.71689600  0.94068900  0.16036100  1
  O  O120  1  0.96198200  0.33857700  0.62433300  1
  O  O121  1  0.83503400  0.28551300  0.86800100  1
  O  O122  1  0.26630700  0.08373100  0.05900000  1
  O  O123  1  0.16496600  0.78551300  0.63199900  1
  O  O124  1  0.66496600  0.71448700  0.36800100  1
  O  O125  1  0.23369300  0.58373100  0.05900000  1
  O  O126  1  0.76630700  0.41626900  0.94100000  1
  O  O127  1  0.73369300  0.91626900  0.94100000  1
  O  O128  1  0.33503400  0.21448700  0.13199900  1
  O  O129  1  0.33503400  0.28551300  0.63199900  1
  O  O130  1  0.53801800  0.83857700  0.62433300  1
  O  O131  1  0.66496600  0.78551300  0.86800100  1
  O  O132  1  0.23369300  0.91626900  0.55900000  1
  O  O133  1  0.16496600  0.71448700  0.13199900  1
  O  O134  1  0.53801800  0.66142300  0.12433300  1
  O  O135  1  0.46198200  0.16142300  0.37566700  1
  O  O136  1  0.76630700  0.08373100  0.44100000  1
  O  O137  1  0.46198200  0.33857700  0.87566700  1
  O  O138  1  0.03801800  0.66142300  0.37566700  1
  O  O139  1  0.83503400  0.21448700  0.36800100  1
  O  O140  1  0.73369300  0.58373100  0.44100000  1
  O  O141  1  0.03801800  0.83857700  0.87566700  1
  O  O142  1  0.26630700  0.41626900  0.55900000  1
  O  O143  1  0.96198200  0.16142300  0.12433300  1
