# generated using pymatgen
data_Ag2CO3
_symmetry_space_group_name_H-M   'P 1'
_cell_length_a   9.78689473
_cell_length_b   9.78689473
_cell_length_c   9.78689473
_cell_angle_alpha   139.37377858
_cell_angle_beta   124.07844728
_cell_angle_gamma   71.37935040
_symmetry_Int_Tables_number   1
_chemical_formula_structural   Ag2CO3
_chemical_formula_sum   'Ag12 C6 O18'
_cell_volume   495.69989460
_cell_formula_units_Z   6
loop_
 _symmetry_equiv_pos_site_id
 _symmetry_equiv_pos_as_xyz
  1  'x, y, z'
loop_
 _atom_site_type_symbol
 _atom_site_label
 _atom_site_symmetry_multiplicity
 _atom_site_fract_x
 _atom_site_fract_y
 _atom_site_fract_z
 _atom_site_occupancy
  Ag  Ag0  1  0.57632800  0.66347500  0.91335200  1
  Ag  Ag1  1  0.57632800  0.16297500  0.41285300  1
  Ag  Ag2  1  0.87837300  0.56770800  0.81066500  1
  Ag  Ag3  1  0.88521900  0.06414500  0.32107400  1
  Ag  Ag4  1  0.62165700  0.25345500  0.86820200  1
  Ag  Ag5  1  0.61474800  0.74654500  0.36820200  1
  Ag  Ag6  1  0.24987800  0.83702500  0.41335200  1
  Ag  Ag7  1  0.24987800  0.33652500  0.91285300  1
  Ag  Ag8  1  0.92368200  0.00000000  0.92368200  1
  Ag  Ag9  1  0.92368200  0.50000000  0.42368200  1
  Ag  Ag10  1  0.24295700  0.43229200  0.31066500  1
  Ag  Ag11  1  0.25692900  0.93585500  0.82107400  1
  C  C12  1  0.58335300  0.33298000  0.24950900  1
  C  C13  1  0.58335300  0.83384400  0.75037200  1
  C  C14  1  0.91652900  0.16615600  0.74950900  1
  C  C15  1  0.91652900  0.66702000  0.25037200  1
  C  C16  1  0.25008500  0.25003200  0.50005300  1
  C  C17  1  0.25002100  0.74996800  0.00005300  1
  O  O18  1  0.32230900  0.20423900  0.61807000  1
  O  O19  1  0.52926800  0.38481800  0.14078900  1
  O  O20  1  0.52926800  0.88847900  0.64445000  1
  O  O21  1  0.47685800  0.75128400  0.72189500  1
  O  O22  1  0.47685800  0.25496300  0.22557400  1
  O  O23  1  0.34170700  0.33193500  0.50977200  1
  O  O24  1  0.41383200  0.79576100  0.11807000  1
  O  O25  1  0.74390600  0.35894500  0.38199600  1
  O  O26  1  0.74390600  0.86191100  0.88496200  1
  O  O27  1  0.08628700  0.21393700  0.37235100  1
  O  O28  1  0.75597100  0.61518200  0.14445000  1
  O  O29  1  0.75597100  0.11152100  0.64078900  1
  O  O30  1  0.97061100  0.74503700  0.22189500  1
  O  O31  1  0.97061100  0.24871600  0.72557400  1
  O  O32  1  0.17783700  0.66806500  0.00977200  1
  O  O33  1  0.02305100  0.64105500  0.38496200  1
  O  O34  1  0.02305100  0.13808900  0.88199600  1
  O  O35  1  0.15841400  0.78606300  0.87235100  1
