# generated using pymatgen
data_OsC4(ClO2)2
_symmetry_space_group_name_H-M   'P 1'
_cell_length_a   6.08941700
_cell_length_b   6.08941700
_cell_length_c   12.07405300
_cell_angle_alpha   90.00000000
_cell_angle_beta   90.00000000
_cell_angle_gamma   90.00000000
_symmetry_Int_Tables_number   1
_chemical_formula_structural   OsC4(ClO2)2
_chemical_formula_sum   'Os2 C8 Cl4 O8'
_cell_volume   447.71795205
_cell_formula_units_Z   2
loop_
 _symmetry_equiv_pos_site_id
 _symmetry_equiv_pos_as_xyz
  1  'x, y, z'
loop_
 _atom_site_type_symbol
 _atom_site_label
 _atom_site_symmetry_multiplicity
 _atom_site_fract_x
 _atom_site_fract_y
 _atom_site_fract_z
 _atom_site_occupancy
  Os  Os0  1  0.00000000  0.00000000  0.00000000  1
  Os  Os1  1  0.50000000  0.50000000  0.50000000  1
  C  C2  1  0.66057000  0.66057000  0.38380200  1
  C  C3  1  0.33943000  0.33943000  0.38380200  1
  C  C4  1  0.33943000  0.33943000  0.61619800  1
  C  C5  1  0.16057000  0.83943000  0.11619800  1
  C  C6  1  0.83943000  0.16057000  0.11619800  1
  C  C7  1  0.83943000  0.16057000  0.88380200  1
  C  C8  1  0.66057000  0.66057000  0.61619800  1
  C  C9  1  0.16057000  0.83943000  0.88380200  1
  Cl  Cl10  1  0.28339300  0.28339300  0.00000000  1
  Cl  Cl11  1  0.71660700  0.71660700  0.00000000  1
  Cl  Cl12  1  0.78339300  0.21660700  0.50000000  1
  Cl  Cl13  1  0.21660700  0.78339300  0.50000000  1
  O  O14  1  0.25104900  0.74895100  0.18610500  1
  O  O15  1  0.75104900  0.75104900  0.31389500  1
  O  O16  1  0.74895100  0.25104900  0.18610500  1
  O  O17  1  0.74895100  0.25104900  0.81389500  1
  O  O18  1  0.24895100  0.24895100  0.68610500  1
  O  O19  1  0.24895100  0.24895100  0.31389500  1
  O  O20  1  0.75104900  0.75104900  0.68610500  1
  O  O21  1  0.25104900  0.74895100  0.81389500  1
