# generated using pymatgen
data_Tl2C3O4
_symmetry_space_group_name_H-M   'P 1'
_cell_length_a   7.44280039
_cell_length_b   7.44280039
_cell_length_c   7.51917002
_cell_angle_alpha   74.90286261
_cell_angle_beta   74.90286261
_cell_angle_gamma   54.96072765
_symmetry_Int_Tables_number   1
_chemical_formula_structural   Tl2C3O4
_chemical_formula_sum   'Tl4 C6 O8'
_cell_volume   326.00670399
_cell_formula_units_Z   2
loop_
 _symmetry_equiv_pos_site_id
 _symmetry_equiv_pos_as_xyz
  1  'x, y, z'
loop_
 _atom_site_type_symbol
 _atom_site_label
 _atom_site_symmetry_multiplicity
 _atom_site_fract_x
 _atom_site_fract_y
 _atom_site_fract_z
 _atom_site_occupancy
  Tl  Tl0  1  0.86438500  0.60529700  0.65752200  1
  Tl  Tl1  1  0.39470300  0.13561500  0.34247800  1
  Tl  Tl2  1  0.75287200  0.42894600  0.20453900  1
  Tl  Tl3  1  0.57105400  0.24712800  0.79546100  1
  C  C4  1  0.17531400  0.92130700  0.96917800  1
  C  C5  1  0.03462900  0.96537100  0.50000000  1
  C  C6  1  0.07869300  0.82468600  0.03082200  1
  C  C7  1  0.26357200  0.73642800  0.50000000  1
  C  C8  1  0.27416200  0.05233700  0.90002100  1
  C  C9  1  0.94766300  0.72583800  0.09997900  1
  O  O10  1  0.41844300  0.00594100  0.75513000  1
  O  O11  1  0.03528000  0.14152700  0.46481600  1
  O  O12  1  0.20499700  0.20846200  0.99097000  1
  O  O13  1  0.43657700  0.74047600  0.43360200  1
  O  O14  1  0.99405900  0.58155700  0.24487000  1
  O  O15  1  0.25952400  0.56342300  0.56639800  1
  O  O16  1  0.85847300  0.96472000  0.53518400  1
  O  O17  1  0.79153800  0.79500300  0.00903000  1
