# generated using pymatgen
data_Gd2Mo4O15
_symmetry_space_group_name_H-M   'P 1'
_cell_length_a   9.47338400
_cell_length_b   11.07848418
_cell_length_c   11.63770371
_cell_angle_alpha   104.49261331
_cell_angle_beta   109.07548326
_cell_angle_gamma   108.99989800
_symmetry_Int_Tables_number   1
_chemical_formula_structural   Gd2Mo4O15
_chemical_formula_sum   'Gd6 Mo12 O45'
_cell_volume   1000.72976502
_cell_formula_units_Z   3
loop_
 _symmetry_equiv_pos_site_id
 _symmetry_equiv_pos_as_xyz
  1  'x, y, z'
loop_
 _atom_site_type_symbol
 _atom_site_label
 _atom_site_symmetry_multiplicity
 _atom_site_fract_x
 _atom_site_fract_y
 _atom_site_fract_z
 _atom_site_occupancy
  Gd  Gd0  1  0.76493300  0.77503600  0.82490500  1
  Gd  Gd1  1  0.78593100  0.94500800  0.41104400  1
  Gd  Gd2  1  0.21406900  0.05499200  0.58895600  1
  Gd  Gd3  1  0.23506700  0.22496400  0.17509500  1
  Gd  Gd4  1  0.33501500  0.65859700  0.79724200  1
  Gd  Gd5  1  0.66498500  0.34140300  0.20275800  1
  Mo  Mo6  1  0.58370400  0.22173900  0.48018600  1
  Mo  Mo7  1  0.08592000  0.31108700  0.44842900  1
  Mo  Mo8  1  0.09081700  0.53358100  0.18219100  1
  Mo  Mo9  1  0.06690500  0.86960100  0.20212400  1
  Mo  Mo10  1  0.90918300  0.46641900  0.81780900  1
  Mo  Mo11  1  0.52259200  0.43520400  0.86666100  1
  Mo  Mo12  1  0.26569900  0.98210900  0.91845400  1
  Mo  Mo13  1  0.73430100  0.01789100  0.08154600  1
  Mo  Mo14  1  0.91408000  0.68891300  0.55157100  1
  Mo  Mo15  1  0.47740800  0.56479600  0.13333900  1
  Mo  Mo16  1  0.41629600  0.77826100  0.51981400  1
  Mo  Mo17  1  0.93309500  0.13039900  0.79787600  1
  O  O18  1  0.14887700  0.74505600  0.22338600  1
  O  O19  1  0.54712800  0.57426300  0.80201200  1
  O  O20  1  0.33413200  0.28406400  0.75145800  1
  O  O21  1  0.75465500  0.38059900  0.61894500  1
  O  O22  1  0.24534500  0.61940100  0.38105500  1
  O  O23  1  0.10295500  0.69628700  0.66126300  1
  O  O24  1  0.78017400  0.98717000  0.80077200  1
  O  O25  1  0.85112300  0.25494400  0.77661400  1
  O  O26  1  0.65786000  0.09466100  0.44985200  1
  O  O27  1  0.47403300  0.73441500  0.66212000  1
  O  O28  1  0.41465900  0.55830600  0.95821500  1
  O  O29  1  0.77546000  0.69329200  0.62496900  1
  O  O30  1  0.32531200  0.60989000  0.16413600  1
  O  O31  1  0.66586800  0.71593600  0.24854200  1
  O  O32  1  0.41482100  0.16300200  0.52088900  1
  O  O33  1  0.38335900  0.14472000  0.06626200  1
  O  O34  1  0.88081900  0.78953700  0.05067900  1
  O  O35  1  0.05206900  0.91791400  0.88723400  1
  O  O36  1  0.33340700  0.85271900  0.94072300  1
  O  O37  1  0.11918100  0.21046300  0.94932100  1
  O  O38  1  0.61664100  0.85528000  0.93373800  1
  O  O39  1  0.21982600  0.01283000  0.19922800  1
  O  O40  1  0.28583800  0.01715700  0.78090400  1
  O  O41  1  0.11172100  0.37921700  0.16732500  1
  O  O42  1  0.94793100  0.08208600  0.11276600  1
  O  O43  1  0.00000000  0.50000000  0.00000000  1
  O  O44  1  0.22454000  0.30670800  0.37503100  1
  O  O45  1  0.19325400  0.46457600  0.59702500  1
  O  O46  1  0.96921600  0.06599800  0.65724300  1
  O  O47  1  0.09534000  0.50752600  0.80154000  1
  O  O48  1  0.67468800  0.39011000  0.83586400  1
  O  O49  1  0.58517900  0.83699800  0.47911100  1
  O  O50  1  0.45287200  0.42573700  0.19798800  1
  O  O51  1  0.71416200  0.98284300  0.21909600  1
  O  O52  1  0.80674600  0.53542400  0.40297500  1
  O  O53  1  0.90466000  0.49247400  0.19846000  1
  O  O54  1  0.88827900  0.62078300  0.83267500  1
  O  O55  1  0.03372100  0.15705400  0.48774100  1
  O  O56  1  0.58534100  0.44169400  0.04178500  1
  O  O57  1  0.89704500  0.30371300  0.33873700  1
  O  O58  1  0.66659300  0.14728100  0.05927700  1
  O  O59  1  0.52596700  0.26558500  0.33788000  1
  O  O60  1  0.03078400  0.93400200  0.34275700  1
  O  O61  1  0.34214000  0.90533900  0.55014800  1
  O  O62  1  0.96627900  0.84294600  0.51225900  1
