# generated using pymatgen
data_ZrNO6
_symmetry_space_group_name_H-M   'P 1'
_cell_length_a   6.08479484
_cell_length_b   6.08479484
_cell_length_c   8.67570476
_cell_angle_alpha   77.53368746
_cell_angle_beta   77.53368746
_cell_angle_gamma   73.44861903
_symmetry_Int_Tables_number   1
_chemical_formula_structural   ZrNO6
_chemical_formula_sum   'Zr2 N2 O12'
_cell_volume   296.52907448
_cell_formula_units_Z   2
loop_
 _symmetry_equiv_pos_site_id
 _symmetry_equiv_pos_as_xyz
  1  'x, y, z'
loop_
 _atom_site_type_symbol
 _atom_site_label
 _atom_site_symmetry_multiplicity
 _atom_site_fract_x
 _atom_site_fract_y
 _atom_site_fract_z
 _atom_site_occupancy
  Zr  Zr0  1  0.15447400  0.15447400  0.50380300  1
  Zr  Zr1  1  0.84552600  0.84552600  0.49619700  1
  N  N2  1  0.24654000  0.24654000  0.79947400  1
  N  N3  1  0.75346000  0.75346000  0.20052600  1
  O  O4  1  0.95196600  0.95196600  0.65516200  1
  O  O5  1  0.04803400  0.04803400  0.34483800  1
  O  O6  1  0.08881800  0.53253300  0.42837100  1
  O  O7  1  0.53253300  0.08881800  0.42837100  1
  O  O8  1  0.91118200  0.46746700  0.57162900  1
  O  O9  1  0.46746700  0.91118200  0.57162900  1
  O  O10  1  0.44971500  0.44971500  0.71870800  1
  O  O11  1  0.55028500  0.55028500  0.28129200  1
  O  O12  1  0.22976500  0.22976500  0.93609100  1
  O  O13  1  0.77023500  0.77023500  0.06390900  1
  O  O14  1  0.50754800  0.50754800  0.15665600  1
  O  O15  1  0.49245200  0.49245200  0.84334400  1
