# generated using pymatgen
data_Ba8Co7O19
_symmetry_space_group_name_H-M   'P 1'
_cell_length_a   13.83841700
_cell_length_b   11.87223709
_cell_length_c   10.83800730
_cell_angle_alpha   74.92959043
_cell_angle_beta   55.93599296
_cell_angle_gamma   49.13441661
_symmetry_Int_Tables_number   1
_chemical_formula_structural   Ba8Co7O19
_chemical_formula_sum   'Ba16 Co14 O38'
_cell_volume   1099.29447333
_cell_formula_units_Z   2
loop_
 _symmetry_equiv_pos_site_id
 _symmetry_equiv_pos_as_xyz
  1  'x, y, z'
loop_
 _atom_site_type_symbol
 _atom_site_label
 _atom_site_symmetry_multiplicity
 _atom_site_fract_x
 _atom_site_fract_y
 _atom_site_fract_z
 _atom_site_occupancy
  Ba  Ba0  1  0.06855700  0.06855700  0.93144300  1
  Ba  Ba1  1  0.33241000  0.85308700  0.17501900  1
  Ba  Ba2  1  0.08356700  0.75194500  0.21015800  1
  Ba  Ba3  1  0.29021100  0.53817400  0.46744300  1
  Ba  Ba4  1  0.31855700  0.31855700  0.18144300  1
  Ba  Ba5  1  0.03984200  0.29567000  0.16643300  1
  Ba  Ba6  1  0.61051600  0.07498100  0.39691300  1
  Ba  Ba7  1  0.54582800  0.78255700  0.71182600  1
  Ba  Ba8  1  0.29567000  0.03984200  0.49805500  1
  Ba  Ba9  1  0.83189000  0.83189000  0.66811000  1
  Ba  Ba10  1  0.07498100  0.61051600  0.91759000  1
  Ba  Ba11  1  0.78255700  0.54582800  0.95978900  1
  Ba  Ba12  1  0.85308700  0.33241000  0.63948400  1
  Ba  Ba13  1  0.53817400  0.29021100  0.70417200  1
  Ba  Ba14  1  0.75194500  0.08356700  0.95433000  1
  Ba  Ba15  1  0.58189000  0.58189000  0.41811000  1
  Co  Co16  1  0.48716100  0.48716100  0.01283900  1
  Co  Co17  1  0.42197400  0.09460400  0.87213000  1
  Co  Co18  1  0.09460400  0.42197400  0.61129200  1
  Co  Co19  1  0.23716100  0.23716100  0.76283900  1
  Co  Co20  1  0.63870800  0.37787000  0.15539600  1
  Co  Co21  1  0.79210800  0.19974000  0.28351200  1
  Co  Co22  1  0.95500300  0.03513000  0.42047400  1
  Co  Co23  1  0.37787000  0.63870800  0.82802600  1
  Co  Co24  1  0.03513000  0.95500300  0.58939300  1
  Co  Co25  1  0.19974000  0.79210800  0.72464000  1
  Co  Co26  1  0.52536000  0.96648800  0.05026000  1
  Co  Co27  1  0.66060700  0.82952600  0.21487000  1
  Co  Co28  1  0.82952600  0.66060700  0.29499700  1
  Co  Co29  1  0.96648800  0.52536000  0.45789200  1
  O  O30  1  0.31279400  0.26778600  0.55640700  1
  O  O31  1  0.38698700  0.69359300  0.98221400  1
  O  O32  1  0.07550900  0.27876200  0.77163000  1
  O  O33  1  0.27876200  0.07550900  0.87409900  1
  O  O34  1  0.09665600  0.56051800  0.43598700  1
  O  O35  1  0.26778600  0.31279400  0.86301300  1
  O  O36  1  0.31705100  0.11147900  0.09979900  1
  O  O37  1  0.00426900  0.08136700  0.22880200  1
  O  O38  1  0.32610700  0.59171200  0.66252800  1
  O  O39  1  0.77832900  0.15020100  0.13852100  1
  O  O40  1  0.09905900  0.82994500  0.42838900  1
  O  O41  1  0.01030900  0.56621600  0.74900100  1
  O  O42  1  0.69359300  0.38698700  0.93720600  1
  O  O43  1  0.83034700  0.58747200  0.65828800  1
  O  O44  1  0.47837000  0.37590100  0.17449100  1
  O  O45  1  0.82610800  0.02812700  0.41975900  1
  O  O46  1  0.37590100  0.47837000  0.97123800  1
  O  O47  1  0.81401300  0.34316100  0.15334400  1
  O  O48  1  0.06816600  0.06816600  0.43183400  1
  O  O49  1  0.34316100  0.81401300  0.68948200  1
  O  O50  1  0.02812700  0.82610800  0.72600600  1
  O  O51  1  0.11147900  0.31705100  0.47167100  1
  O  O52  1  0.59171200  0.32610700  0.41965300  1
  O  O53  1  0.82994500  0.09905900  0.64260700  1
  O  O54  1  0.02119800  0.56443800  0.24573100  1
  O  O55  1  0.56621600  0.01030900  0.67447500  1
  O  O56  1  0.08136700  0.00426900  0.68556200  1
  O  O57  1  0.15020100  0.77832900  0.93294900  1
  O  O58  1  0.82161100  0.60739300  0.15094100  1
  O  O59  1  0.58747200  0.83034700  0.92389300  1
  O  O60  1  0.50099900  0.57552500  0.23969100  1
  O  O61  1  0.56051800  0.09665600  0.90683900  1
  O  O62  1  0.81816600  0.81816600  0.18183400  1
  O  O63  1  0.52399400  0.83024100  0.22187300  1
  O  O64  1  0.83024100  0.52399400  0.42389200  1
  O  O65  1  0.56443800  0.02119800  0.16863300  1
  O  O66  1  0.60739300  0.82161100  0.42005500  1
  O  O67  1  0.57552500  0.50099900  0.68378400  1
