# generated using pymatgen
data_Ta2S
_symmetry_space_group_name_H-M   'P 1'
_cell_length_a   5.63522700
_cell_length_b   7.40328400
_cell_length_c   15.31458000
_cell_angle_alpha   90.00000000
_cell_angle_beta   90.00000000
_cell_angle_gamma   90.00000000
_symmetry_Int_Tables_number   1
_chemical_formula_structural   Ta2S
_chemical_formula_sum   'Ta24 S12'
_cell_volume   638.91180978
_cell_formula_units_Z   12
loop_
 _symmetry_equiv_pos_site_id
 _symmetry_equiv_pos_as_xyz
  1  'x, y, z'
loop_
 _atom_site_type_symbol
 _atom_site_label
 _atom_site_symmetry_multiplicity
 _atom_site_fract_x
 _atom_site_fract_y
 _atom_site_fract_z
 _atom_site_occupancy
  Ta  Ta0  1  0.36860900  0.00985200  0.25000000  1
  Ta  Ta1  1  0.39760900  0.90579900  0.58915900  1
  Ta  Ta2  1  0.60346700  0.71538400  0.15497300  1
  Ta  Ta3  1  0.89760900  0.09420100  0.91084100  1
  Ta  Ta4  1  0.89653300  0.71538400  0.84502700  1
  Ta  Ta5  1  0.63139100  0.99014800  0.75000000  1
  Ta  Ta6  1  0.39653300  0.28461600  0.65497300  1
  Ta  Ta7  1  0.60239100  0.09420100  0.41084100  1
  Ta  Ta8  1  0.60239100  0.09420100  0.08915900  1
  Ta  Ta9  1  0.87185500  0.35025500  0.75000000  1
  Ta  Ta10  1  0.10346700  0.28461600  0.34502700  1
  Ta  Ta11  1  0.62814500  0.35025500  0.25000000  1
  Ta  Ta12  1  0.86860900  0.99014800  0.25000000  1
  Ta  Ta13  1  0.10239100  0.90579900  0.08915900  1
  Ta  Ta14  1  0.10239100  0.90579900  0.41084100  1
  Ta  Ta15  1  0.13139100  0.00985200  0.75000000  1
  Ta  Ta16  1  0.10346700  0.28461600  0.15497300  1
  Ta  Ta17  1  0.39653300  0.28461600  0.84502700  1
  Ta  Ta18  1  0.60346700  0.71538400  0.34502700  1
  Ta  Ta19  1  0.89653300  0.71538400  0.65497300  1
  Ta  Ta20  1  0.89760900  0.09420100  0.58915900  1
  Ta  Ta21  1  0.37185500  0.64974500  0.75000000  1
  Ta  Ta22  1  0.39760900  0.90579900  0.91084100  1
  Ta  Ta23  1  0.12814500  0.64974500  0.25000000  1
  S  S24  1  0.23165700  0.58846400  0.09709000  1
  S  S25  1  0.76834300  0.41153600  0.90291000  1
  S  S26  1  0.25000000  0.18026500  0.50000000  1
  S  S27  1  0.75000000  0.81973500  0.00000000  1
  S  S28  1  0.23165700  0.58846400  0.40291000  1
  S  S29  1  0.25000000  0.18026500  0.00000000  1
  S  S30  1  0.73165700  0.41153600  0.09709000  1
  S  S31  1  0.26834300  0.58846400  0.59709000  1
  S  S32  1  0.76834300  0.41153600  0.59709000  1
  S  S33  1  0.26834300  0.58846400  0.90291000  1
  S  S34  1  0.75000000  0.81973500  0.50000000  1
  S  S35  1  0.73165700  0.41153600  0.40291000  1
