# generated using pymatgen
data_Ba3Al2Cu2F16
_symmetry_space_group_name_H-M   'P 1'
_cell_length_a   5.39476300
_cell_length_b   7.49518100
_cell_length_c   16.24353714
_cell_angle_alpha   83.31324516
_cell_angle_beta   90.00000000
_cell_angle_gamma   90.00000000
_symmetry_Int_Tables_number   1
_chemical_formula_structural   Ba3Al2Cu2F16
_chemical_formula_sum   'Ba6 Al4 Cu4 F32'
_cell_volume   652.33511890
_cell_formula_units_Z   2
loop_
 _symmetry_equiv_pos_site_id
 _symmetry_equiv_pos_as_xyz
  1  'x, y, z'
loop_
 _atom_site_type_symbol
 _atom_site_label
 _atom_site_symmetry_multiplicity
 _atom_site_fract_x
 _atom_site_fract_y
 _atom_site_fract_z
 _atom_site_occupancy
  Ba  Ba0  1  0.74098800  0.30845400  0.18468100  1
  Ba  Ba1  1  0.25894500  0.83795000  0.11451300  1
  Ba  Ba2  1  0.75894500  0.16205000  0.88548700  1
  Ba  Ba3  1  0.24098800  0.69154600  0.81531900  1
  Ba  Ba4  1  0.68849700  0.25312000  0.46971600  1
  Ba  Ba5  1  0.18849700  0.74688000  0.53028400  1
  Al  Al6  1  0.17942900  0.07946000  0.34043100  1
  Al  Al7  1  0.23426600  0.33071500  0.02463200  1
  Al  Al8  1  0.73426600  0.66928500  0.97536800  1
  Al  Al9  1  0.67942900  0.92054000  0.65956900  1
  Cu  Cu10  1  0.21159100  0.21583600  0.69563300  1
  Cu  Cu11  1  0.68876700  0.43650200  0.67045400  1
  Cu  Cu12  1  0.71159100  0.78416400  0.30436700  1
  Cu  Cu13  1  0.18876700  0.56349800  0.32954600  1
  F  F14  1  0.51108600  0.36702200  0.76951700  1
  F  F15  1  0.19853300  0.09954800  0.45318700  1
  F  F16  1  0.33117300  0.86309100  0.36265100  1
  F  F17  1  0.96103000  0.79321400  0.67741800  1
  F  F18  1  0.49997200  0.59409400  0.26413200  1
  F  F19  1  0.22043600  0.30149900  0.91682100  1
  F  F20  1  0.46103000  0.20678600  0.32258200  1
  F  F21  1  0.74686000  0.59991200  0.87325900  1
  F  F22  1  0.99804800  0.81575900  0.95559700  1
  F  F23  1  0.24686000  0.40008800  0.12674100  1
  F  F24  1  0.69853300  0.90045200  0.54681300  1
  F  F25  1  0.94280800  0.47279300  0.00795300  1
  F  F26  1  0.12860900  0.05343900  0.79097000  1
  F  F27  1  0.72043600  0.69850100  0.08317900  1
  F  F28  1  0.87432000  0.96510500  0.36498600  1
  F  F29  1  0.49804800  0.18424100  0.04440300  1
  F  F30  1  0.99616700  0.28950700  0.32945600  1
  F  F31  1  0.34040000  0.50023700  0.43348700  1
  F  F32  1  0.44280800  0.52720700  0.99204700  1
  F  F33  1  0.01108600  0.63297800  0.23048300  1
  F  F34  1  0.83117300  0.13690900  0.63734900  1
  F  F35  1  0.99997200  0.40590600  0.73586800  1
  F  F36  1  0.12965600  0.05853600  0.23241400  1
  F  F37  1  0.36761000  0.38969500  0.61138600  1
  F  F38  1  0.02320700  0.14620100  0.05337000  1
  F  F39  1  0.52320700  0.85379900  0.94663000  1
  F  F40  1  0.49616700  0.71049300  0.67054400  1
  F  F41  1  0.84040000  0.49976300  0.56651300  1
  F  F42  1  0.62965600  0.94146400  0.76758600  1
  F  F43  1  0.86761000  0.61030500  0.38861400  1
  F  F44  1  0.37432000  0.03489500  0.63501400  1
  F  F45  1  0.62860900  0.94656100  0.20903000  1
