# generated using pymatgen
data_ZnAs2C6S12N12(OF2)6
_symmetry_space_group_name_H-M   'P 1'
_cell_length_a   12.13840467
_cell_length_b   12.13840467
_cell_length_c   6.86264600
_cell_angle_alpha   90.00000000
_cell_angle_beta   90.00000000
_cell_angle_gamma   120.00000366
_symmetry_Int_Tables_number   1
_chemical_formula_structural   ZnAs2C6S12N12(OF2)6
_chemical_formula_sum   'Zn1 As2 C6 S12 N12 O6 F12'
_cell_volume   875.68001160
_cell_formula_units_Z   1
loop_
 _symmetry_equiv_pos_site_id
 _symmetry_equiv_pos_as_xyz
  1  'x, y, z'
loop_
 _atom_site_type_symbol
 _atom_site_label
 _atom_site_symmetry_multiplicity
 _atom_site_fract_x
 _atom_site_fract_y
 _atom_site_fract_z
 _atom_site_occupancy
  Zn  Zn0  1  0.00000000  0.00000000  0.50000000  1
  As  As1  1  0.66666700  0.33333300  0.54278800  1
  As  As2  1  0.33333300  0.66666700  0.45721200  1
  C  C3  1  0.24293000  0.08317800  0.75677700  1
  C  C4  1  0.75707000  0.91682200  0.24322300  1
  C  C5  1  0.15975200  0.24293000  0.24322300  1
  C  C6  1  0.08317800  0.84024800  0.24322300  1
  C  C7  1  0.91682200  0.15975200  0.75677700  1
  C  C8  1  0.84024800  0.75707000  0.75677700  1
  S  S9  1  0.30843300  0.39983900  0.00406200  1
  S  S10  1  0.39983900  0.09140600  0.99593800  1
  S  S11  1  0.29951100  0.98125500  0.65618200  1
  S  S12  1  0.31825500  0.29951100  0.34381800  1
  S  S13  1  0.09140600  0.69156700  0.00406200  1
  S  S14  1  0.98125500  0.68174500  0.34381800  1
  S  S15  1  0.01874500  0.31825500  0.65618200  1
  S  S16  1  0.90859400  0.30843300  0.99593800  1
  S  S17  1  0.70048900  0.01874500  0.34381800  1
  S  S18  1  0.68174500  0.70048900  0.65618200  1
  S  S19  1  0.60016100  0.90859400  0.00406200  1
  S  S20  1  0.69156700  0.60016100  0.99593800  1
  N  N21  1  0.60141700  0.60232200  0.82944200  1
  N  N22  1  0.16774000  0.30130300  0.07141600  1
  N  N23  1  0.83226000  0.69869700  0.92858400  1
  N  N24  1  0.39858300  0.39767800  0.17055800  1
  N  N25  1  0.86643700  0.16774000  0.92858400  1
  N  N26  1  0.13356300  0.83226000  0.07141600  1
  N  N27  1  0.60232200  0.00090500  0.17055800  1
  N  N28  1  0.30130300  0.13356300  0.92858400  1
  N  N29  1  0.69869700  0.86643700  0.07141600  1
  N  N30  1  0.99909500  0.60141700  0.17055800  1
  N  N31  1  0.00090500  0.39858300  0.82944200  1
  N  N32  1  0.39767800  0.99909500  0.82944200  1
  O  O33  1  0.89473300  0.05865500  0.67440400  1
  O  O34  1  0.10526700  0.94134500  0.32559600  1
  O  O35  1  0.05865500  0.16392300  0.32559600  1
  O  O36  1  0.83607700  0.89473300  0.32559600  1
  O  O37  1  0.94134500  0.83607700  0.67440400  1
  O  O38  1  0.16392300  0.10526700  0.67440400  1
  F  F39  1  0.44684300  0.79171700  0.60587500  1
  F  F40  1  0.65512500  0.44684300  0.39412500  1
  F  F41  1  0.54118500  0.32035200  0.69295900  1
  F  F42  1  0.20828300  0.65512500  0.60587500  1
  F  F43  1  0.67964800  0.22083200  0.69295900  1
  F  F44  1  0.45881500  0.67964800  0.30704100  1
  F  F45  1  0.22083200  0.54118500  0.30704100  1
  F  F46  1  0.55315700  0.20828300  0.39412500  1
  F  F47  1  0.77916800  0.45881500  0.69295900  1
  F  F48  1  0.32035200  0.77916800  0.30704100  1
  F  F49  1  0.79171700  0.34487500  0.39412500  1
  F  F50  1  0.34487500  0.55315700  0.60587500  1
