# generated using pymatgen
data_Cs6Si2NiO8
_symmetry_space_group_name_H-M   'P 1'
_cell_length_a   6.99878000
_cell_length_b   7.16153191
_cell_length_c   8.09770168
_cell_angle_alpha   87.48593771
_cell_angle_beta   88.52952292
_cell_angle_gamma   69.32839521
_symmetry_Int_Tables_number   1
_chemical_formula_structural   Cs6Si2NiO8
_chemical_formula_sum   'Cs6 Si2 Ni1 O8'
_cell_volume   379.35443333
_cell_formula_units_Z   1
loop_
 _symmetry_equiv_pos_site_id
 _symmetry_equiv_pos_as_xyz
  1  'x, y, z'
loop_
 _atom_site_type_symbol
 _atom_site_label
 _atom_site_symmetry_multiplicity
 _atom_site_fract_x
 _atom_site_fract_y
 _atom_site_fract_z
 _atom_site_occupancy
  Cs  Cs0  1  0.20194900  0.70246800  0.01088000  1
  Cs  Cs1  1  0.72085000  0.20934100  0.47781400  1
  Cs  Cs2  1  0.79805100  0.29753200  0.98912000  1
  Cs  Cs3  1  0.65975100  0.83050800  0.16729200  1
  Cs  Cs4  1  0.34024900  0.16949200  0.83270800  1
  Cs  Cs5  1  0.27915000  0.79065900  0.52218600  1
  Si  Si6  1  0.77885200  0.73650400  0.72241800  1
  Si  Si7  1  0.22114800  0.26349600  0.27758200  1
  Ni  Ni8  1  0.00000000  0.50000000  0.50000000  1
  O  O9  1  0.00832300  0.47003700  0.26403300  1
  O  O10  1  0.76609000  0.74369200  0.51398200  1
  O  O11  1  0.99167700  0.52996300  0.73596700  1
  O  O12  1  0.42099000  0.29690300  0.18838400  1
  O  O13  1  0.81575500  0.93306000  0.79253200  1
  O  O14  1  0.23391000  0.25630800  0.48601800  1
  O  O15  1  0.57901000  0.70309700  0.81161600  1
  O  O16  1  0.18424500  0.06694000  0.20746800  1
