# generated using pymatgen
data_Tb11O20
_symmetry_space_group_name_H-M   'P 1'
_cell_length_a   6.56303500
_cell_length_b   6.69116952
_cell_length_c   10.29680237
_cell_angle_alpha   94.03706430
_cell_angle_beta   92.93645249
_cell_angle_gamma   98.91940284
_symmetry_Int_Tables_number   1
_chemical_formula_structural   Tb11O20
_chemical_formula_sum   'Tb11 O20'
_cell_volume   444.71439075
_cell_formula_units_Z   1
loop_
 _symmetry_equiv_pos_site_id
 _symmetry_equiv_pos_as_xyz
  1  'x, y, z'
loop_
 _atom_site_type_symbol
 _atom_site_label
 _atom_site_symmetry_multiplicity
 _atom_site_fract_x
 _atom_site_fract_y
 _atom_site_fract_z
 _atom_site_occupancy
  Tb  Tb0  1  0.12821900  0.54881400  0.17289700  1
  Tb  Tb1  1  0.81847800  0.88882500  0.63133300  1
  Tb  Tb2  1  0.72900500  0.36366700  0.47873800  1
  Tb  Tb3  1  0.37008100  0.14508700  0.72368800  1
  Tb  Tb4  1  0.87178100  0.45118600  0.82710300  1
  Tb  Tb5  1  0.18152200  0.11117500  0.36866700  1
  Tb  Tb6  1  0.46925900  0.73229900  0.92422500  1
  Tb  Tb7  1  0.27099500  0.63633300  0.52126200  1
  Tb  Tb8  1  0.62991900  0.85491300  0.27631200  1
  Tb  Tb9  1  0.00000000  0.00000000  0.00000000  1
  Tb  Tb10  1  0.53074100  0.26770100  0.07577500  1
  O  O11  1  0.52947000  0.40910100  0.87158100  1
  O  O12  1  0.87785000  0.33596100  0.03796300  1
  O  O13  1  0.54008000  0.18313200  0.29579700  1
  O  O14  1  0.45992000  0.81686800  0.70420300  1
  O  O15  1  0.03510100  0.42719400  0.36990600  1
  O  O16  1  0.66881200  0.96573400  0.06972500  1
  O  O17  1  0.84764800  0.05734200  0.43158700  1
  O  O18  1  0.47053000  0.59089900  0.12841900  1
  O  O19  1  0.79359700  0.78054800  0.83881100  1
  O  O20  1  0.15235200  0.94265800  0.56841300  1
  O  O21  1  0.28728900  0.79924100  0.33110400  1
  O  O22  1  0.95907500  0.83301400  0.20059300  1
  O  O23  1  0.62853800  0.67602600  0.46192400  1
  O  O24  1  0.20640300  0.21945200  0.16118900  1
  O  O25  1  0.37146200  0.32397400  0.53807600  1
  O  O26  1  0.12215000  0.66403900  0.96203700  1
  O  O27  1  0.04092500  0.16698600  0.79940700  1
  O  O28  1  0.96489900  0.57280600  0.63009400  1
  O  O29  1  0.71271100  0.20075900  0.66889600  1
  O  O30  1  0.33118800  0.03426600  0.93027500  1
