# generated using pymatgen
data_S
_symmetry_space_group_name_H-M   'P 1'
_cell_length_a   14.99678400
_cell_length_b   8.49984800
_cell_length_c   19.00802097
_cell_angle_alpha   77.46757855
_cell_angle_beta   90.00000000
_cell_angle_gamma   90.00000000
_symmetry_Int_Tables_number   1
_chemical_formula_structural   S
_chemical_formula_sum   S72
_cell_volume   2365.22879052
_cell_formula_units_Z   72
loop_
 _symmetry_equiv_pos_site_id
 _symmetry_equiv_pos_as_xyz
  1  'x, y, z'
loop_
 _atom_site_type_symbol
 _atom_site_label
 _atom_site_symmetry_multiplicity
 _atom_site_fract_x
 _atom_site_fract_y
 _atom_site_fract_z
 _atom_site_occupancy
  S  S0  1  0.97715900  0.62380900  0.36118700  1
  S  S1  1  0.52596500  0.24193600  0.62796700  1
  S  S2  1  0.24837900  0.76443700  0.34966800  1
  S  S3  1  0.02284100  0.37619100  0.63881300  1
  S  S4  1  0.67836800  0.78057700  0.64174900  1
  S  S5  1  0.74837900  0.23556300  0.15033200  1
  S  S6  1  0.17836800  0.21942300  0.85825100  1
  S  S7  1  0.12146400  0.38465700  0.56398000  1
  S  S8  1  0.52197100  0.99674800  0.12583100  1
  S  S9  1  0.75162100  0.23556300  0.65033200  1
  S  S10  1  0.73666800  0.85664100  0.33396200  1
  S  S11  1  0.58298900  0.15941800  0.87906200  1
  S  S12  1  0.20925700  0.99139000  0.09851800  1
  S  S13  1  0.08298900  0.84058200  0.62093800  1
  S  S14  1  0.35086000  0.70549900  0.42143700  1
  S  S15  1  0.85086000  0.29450100  0.07856300  1
  S  S16  1  0.82163200  0.78057700  0.14174900  1
  S  S17  1  0.32574600  0.95067100  0.04506800  1
  S  S18  1  0.49088900  0.13859700  0.19737700  1
  S  S19  1  0.23666800  0.14335900  0.16603800  1
  S  S20  1  0.50911100  0.86140300  0.80262300  1
  S  S21  1  0.26245100  0.58790000  0.78860400  1
  S  S22  1  0.87853600  0.61534300  0.43602000  1
  S  S23  1  0.28710400  0.37054500  0.85798900  1
  S  S24  1  0.17425400  0.95067100  0.54506800  1
  S  S25  1  0.41419000  0.25956500  0.43257600  1
  S  S26  1  0.76245100  0.41210000  0.71139600  1
  S  S27  1  0.14914000  0.70549900  0.92143700  1
  S  S28  1  0.62146400  0.61534300  0.93602000  1
  S  S29  1  0.00911100  0.13859700  0.69737700  1
  S  S30  1  0.67425400  0.04932900  0.95493200  1
  S  S31  1  0.91701100  0.15941800  0.37906200  1
  S  S32  1  0.47802900  0.00325200  0.87416900  1
  S  S33  1  0.47715900  0.37619100  0.13881300  1
  S  S34  1  0.49184600  0.58320700  0.31268400  1
  S  S35  1  0.21289600  0.37054500  0.35798900  1
  S  S36  1  0.74736300  0.62112100  0.89008500  1
  S  S37  1  0.58581000  0.74043500  0.56742400  1
  S  S38  1  0.76333200  0.85664100  0.83396200  1
  S  S39  1  0.02197100  0.00325200  0.37416900  1
  S  S40  1  0.75263700  0.62112100  0.39008500  1
  S  S41  1  0.00815400  0.58320700  0.81268400  1
  S  S42  1  0.78710400  0.62945500  0.64201100  1
  S  S43  1  0.52636000  0.36495200  0.37650300  1
  S  S44  1  0.97802900  0.99674800  0.62583100  1
  S  S45  1  0.50815400  0.41679300  0.68731600  1
  S  S46  1  0.02636000  0.63504800  0.12349700  1
  S  S47  1  0.37853600  0.38465700  0.06398000  1
  S  S48  1  0.08581000  0.25956500  0.93257600  1
  S  S49  1  0.71289600  0.62945500  0.14201100  1
  S  S50  1  0.99184600  0.41679300  0.18731600  1
  S  S51  1  0.73754900  0.41210000  0.21139600  1
  S  S52  1  0.29074300  0.99139000  0.59851800  1
  S  S53  1  0.91419000  0.74043500  0.06742400  1
  S  S54  1  0.52284100  0.62380900  0.86118700  1
  S  S55  1  0.26333200  0.14335900  0.66603800  1
  S  S56  1  0.02596500  0.75806400  0.87203300  1
  S  S57  1  0.47364000  0.63504800  0.62349700  1
  S  S58  1  0.25162100  0.76443700  0.84966800  1
  S  S59  1  0.32163200  0.21942300  0.35825100  1
  S  S60  1  0.79074300  0.00861000  0.90148200  1
  S  S61  1  0.41701100  0.84058200  0.12093800  1
  S  S62  1  0.99088900  0.86140300  0.30262300  1
  S  S63  1  0.97364000  0.36495200  0.87650300  1
  S  S64  1  0.25263700  0.37887900  0.10991500  1
  S  S65  1  0.47403500  0.75806400  0.37203300  1
  S  S66  1  0.82574600  0.04932900  0.45493200  1
  S  S67  1  0.64914000  0.29450100  0.57856300  1
  S  S68  1  0.70925700  0.00861000  0.40148200  1
  S  S69  1  0.23754900  0.58790000  0.28860400  1
  S  S70  1  0.97403500  0.24193600  0.12796700  1
  S  S71  1  0.24736300  0.37887900  0.60991500  1
