# generated using pymatgen
data_ZnS
_symmetry_space_group_name_H-M   'P 1'
_cell_length_a   3.85357179
_cell_length_b   3.85357179
_cell_length_c   63.00434200
_cell_angle_alpha   90.00000000
_cell_angle_beta   90.00000000
_cell_angle_gamma   119.99999632
_symmetry_Int_Tables_number   1
_chemical_formula_structural   ZnS
_chemical_formula_sum   'Zn20 S20'
_cell_volume   810.26678292
_cell_formula_units_Z   20
loop_
 _symmetry_equiv_pos_site_id
 _symmetry_equiv_pos_as_xyz
  1  'x, y, z'
loop_
 _atom_site_type_symbol
 _atom_site_label
 _atom_site_symmetry_multiplicity
 _atom_site_fract_x
 _atom_site_fract_y
 _atom_site_fract_z
 _atom_site_occupancy
  Zn  Zn0  1  0.00000000  0.00000000  0.39999900  1
  Zn  Zn1  1  0.33333300  0.66666700  0.45000900  1
  Zn  Zn2  1  0.33333300  0.66666700  0.34999800  1
  Zn  Zn3  1  0.33333300  0.66666700  0.20000000  1
  Zn  Zn4  1  0.66666700  0.33333300  0.80000000  1
  Zn  Zn5  1  0.66666700  0.33333300  0.65000000  1
  Zn  Zn6  1  0.00000000  0.00000000  0.59999700  1
  Zn  Zn7  1  0.66666700  0.33333300  0.95000000  1
  Zn  Zn8  1  0.66666700  0.33333300  0.10000300  1
  Zn  Zn9  1  0.00000000  0.00000000  0.89999700  1
  Zn  Zn10  1  0.33333300  0.66666700  0.55001400  1
  Zn  Zn11  1  0.66666700  0.33333300  0.30000300  1
  Zn  Zn12  1  0.00000000  0.00000000  0.00001400  1
  Zn  Zn13  1  0.33333300  0.66666700  0.05000300  1
  Zn  Zn14  1  0.00000000  0.00000000  0.14999800  1
  Zn  Zn15  1  0.33333300  0.66666700  0.85001400  1
  Zn  Zn16  1  0.00000000  0.00000000  0.25001400  1
  Zn  Zn17  1  0.00000000  0.00000000  0.70001400  1
  Zn  Zn18  1  0.66666700  0.33333300  0.49999900  1
  Zn  Zn19  1  0.33333300  0.66666700  0.74999800  1
  S  S20  1  0.00000000  0.00000000  0.63746600  1
  S  S21  1  0.33333300  0.66666700  0.88749400  1
  S  S22  1  0.66666700  0.33333300  0.83752800  1
  S  S23  1  0.00000000  0.00000000  0.03749500  1
  S  S24  1  0.00000000  0.00000000  0.43752800  1
  S  S25  1  0.33333300  0.66666700  0.08749700  1
  S  S26  1  0.33333300  0.66666700  0.23752800  1
  S  S27  1  0.00000000  0.00000000  0.73749400  1
  S  S28  1  0.00000000  0.00000000  0.28749500  1
  S  S29  1  0.66666700  0.33333300  0.68752800  1
  S  S30  1  0.66666700  0.33333300  0.98752800  1
  S  S31  1  0.66666700  0.33333300  0.53752800  1
  S  S32  1  0.66666700  0.33333300  0.33749700  1
  S  S33  1  0.33333300  0.66666700  0.58749400  1
  S  S34  1  0.33333300  0.66666700  0.48746500  1
  S  S35  1  0.33333300  0.66666700  0.38746700  1
  S  S36  1  0.66666700  0.33333300  0.13749700  1
  S  S37  1  0.33333300  0.66666700  0.78746600  1
  S  S38  1  0.00000000  0.00000000  0.93746600  1
  S  S39  1  0.00000000  0.00000000  0.18746700  1
