# generated using pymatgen
data_Sc(PO3)3
_symmetry_space_group_name_H-M   'P 1'
_cell_length_a   12.06365883
_cell_length_b   12.06365883
_cell_length_c   9.84419317
_cell_angle_alpha   69.86432326
_cell_angle_beta   69.86432326
_cell_angle_gamma   110.45309666
_symmetry_Int_Tables_number   1
_chemical_formula_structural   Sc(PO3)3
_chemical_formula_sum   'Sc6 P18 O54'
_cell_volume   1070.23633734
_cell_formula_units_Z   6
loop_
 _symmetry_equiv_pos_site_id
 _symmetry_equiv_pos_as_xyz
  1  'x, y, z'
loop_
 _atom_site_type_symbol
 _atom_site_label
 _atom_site_symmetry_multiplicity
 _atom_site_fract_x
 _atom_site_fract_y
 _atom_site_fract_z
 _atom_site_occupancy
  Sc  Sc0  1  0.59565100  0.41800700  0.98642400  1
  Sc  Sc1  1  0.08309900  0.92669800  0.48692400  1
  Sc  Sc2  1  0.41800700  0.59565100  0.48642400  1
  Sc  Sc3  1  0.23204400  0.74399500  0.02227900  1
  Sc  Sc4  1  0.74399500  0.23204400  0.52227900  1
  Sc  Sc5  1  0.92669800  0.08309900  0.98692400  1
  P  P6  1  0.15447400  0.55355100  0.83835600  1
  P  P7  1  0.89251000  0.82955300  0.31881500  1
  P  P8  1  0.68174200  0.62475700  0.15115400  1
  P  P9  1  0.00586900  0.27812500  0.16742300  1
  P  P10  1  0.21133600  0.48476400  0.33681500  1
  P  P11  1  0.56920300  0.94846800  0.23099400  1
  P  P12  1  0.62475700  0.68174200  0.65115400  1
  P  P13  1  0.94542500  0.33755800  0.67906800  1
  P  P14  1  0.29275400  0.24379100  0.71263900  1
  P  P15  1  0.27812500  0.00586900  0.66742300  1
  P  P16  1  0.94846800  0.56920300  0.73099400  1
  P  P17  1  0.24379100  0.29275400  0.21263900  1
  P  P18  1  0.82955300  0.89251000  0.81881500  1
  P  P19  1  0.58950200  0.87257200  0.78132600  1
  P  P20  1  0.87257200  0.58950200  0.28132600  1
  P  P21  1  0.48476400  0.21133600  0.83681500  1
  P  P22  1  0.55355100  0.15447400  0.33835600  1
  P  P23  1  0.33755800  0.94542500  0.17906800  1
  O  O24  1  0.32642700  0.16347600  0.61933100  1
  O  O25  1  0.14251700  0.15981700  0.85226700  1
  O  O26  1  0.89487300  0.89610200  0.15714700  1
  O  O27  1  0.76763800  0.56997000  0.21481700  1
  O  O28  1  0.06246800  0.60277600  0.78278800  1
  O  O29  1  0.60163700  0.52251600  0.11683400  1
  O  O30  1  0.60277600  0.06246800  0.28278800  1
  O  O31  1  0.23428400  0.65847300  0.86978900  1
  O  O32  1  0.70825600  0.98404600  0.10546500  1
  O  O33  1  0.56997000  0.76763800  0.71481700  1
  O  O34  1  0.82289300  0.44662100  0.41497500  1
  O  O35  1  0.92488800  0.26422500  0.33325100  1
  O  O36  1  0.26069200  0.38806200  0.29320100  1
  O  O37  1  0.36753000  0.07607000  0.02221000  1
  O  O38  1  0.15586000  0.94627100  0.64909200  1
  O  O39  1  0.03234200  0.41137100  0.01682800  1
  O  O40  1  0.25676100  0.81837100  0.17980200  1
  O  O41  1  0.84620500  0.66998800  0.37840000  1
  O  O42  1  0.49290300  0.97956600  0.12914700  1
  O  O43  1  0.60205100  0.65621800  0.27110300  1
  O  O44  1  0.81837100  0.25676100  0.67980200  1
  O  O45  1  0.54931900  0.17296400  0.71502600  1
  O  O46  1  0.80518200  0.47265400  0.88920400  1
  O  O47  1  0.44662100  0.82289300  0.91497500  1
  O  O48  1  0.02194800  0.90553600  0.31704500  1
  O  O49  1  0.98404600  0.70825600  0.60546500  1
  O  O50  1  0.80786200  0.76506000  0.97235700  1
  O  O51  1  0.89610200  0.89487300  0.65714700  1
  O  O52  1  0.76506000  0.80786200  0.47235700  1
  O  O53  1  0.31828900  0.58162500  0.35149000  1
  O  O54  1  0.01950000  0.67740400  0.13188500  1
  O  O55  1  0.94842800  0.27148800  0.83684600  1
  O  O56  1  0.27148800  0.94842800  0.33684600  1
  O  O57  1  0.97956600  0.49290300  0.62914700  1
  O  O58  1  0.23617500  0.52788600  0.71201600  1
  O  O59  1  0.15981700  0.14251700  0.35226700  1
  O  O60  1  0.17296400  0.54931900  0.21502600  1
  O  O61  1  0.38806200  0.26069200  0.79320100  1
  O  O62  1  0.47265400  0.80518200  0.38920400  1
  O  O63  1  0.58162500  0.31828900  0.85149000  1
  O  O64  1  0.94627100  0.15586000  0.14909200  1
  O  O65  1  0.38700800  0.34968100  0.07226800  1
  O  O66  1  0.41137100  0.03234200  0.51682800  1
  O  O67  1  0.07607000  0.36753000  0.52221000  1
  O  O68  1  0.34968100  0.38700800  0.57226800  1
  O  O69  1  0.52251600  0.60163700  0.61683400  1
  O  O70  1  0.67740400  0.01950000  0.63188500  1
  O  O71  1  0.26422500  0.92488800  0.83325100  1
  O  O72  1  0.65621800  0.60205100  0.77110300  1
  O  O73  1  0.16347600  0.32642700  0.11933100  1
  O  O74  1  0.52788600  0.23617500  0.21201600  1
  O  O75  1  0.66998800  0.84620500  0.87840000  1
  O  O76  1  0.90553600  0.02194800  0.81704500  1
  O  O77  1  0.65847300  0.23428400  0.36978900  1
