# generated using pymatgen
data_SiO2
_symmetry_space_group_name_H-M   'P 1'
_cell_length_a   8.19112739
_cell_length_b   8.19112739
_cell_length_c   14.16308800
_cell_angle_alpha   90.00000000
_cell_angle_beta   90.00000000
_cell_angle_gamma   101.98011592
_symmetry_Int_Tables_number   1
_chemical_formula_structural   SiO2
_chemical_formula_sum   'Si16 O32'
_cell_volume   929.56918168
_cell_formula_units_Z   16
loop_
 _symmetry_equiv_pos_site_id
 _symmetry_equiv_pos_as_xyz
  1  'x, y, z'
loop_
 _atom_site_type_symbol
 _atom_site_label
 _atom_site_symmetry_multiplicity
 _atom_site_fract_x
 _atom_site_fract_y
 _atom_site_fract_z
 _atom_site_occupancy
  Si  Si0  1  0.33743800  0.66256200  0.50000000  1
  Si  Si1  1  0.50000000  0.50000000  0.63657300  1
  Si  Si2  1  0.08973500  0.68656300  0.81627400  1
  Si  Si3  1  0.31343700  0.91026500  0.18372600  1
  Si  Si4  1  0.83743800  0.16256200  0.00000000  1
  Si  Si5  1  0.81343700  0.41026500  0.31627400  1
  Si  Si6  1  0.00000000  0.00000000  0.86342700  1
  Si  Si7  1  0.66256200  0.33743800  0.50000000  1
  Si  Si8  1  0.68656300  0.08973500  0.18372600  1
  Si  Si9  1  0.91026500  0.31343700  0.81627400  1
  Si  Si10  1  0.50000000  0.50000000  0.36342700  1
  Si  Si11  1  0.18656300  0.58973500  0.31627400  1
  Si  Si12  1  0.41026500  0.81343700  0.68372600  1
  Si  Si13  1  0.58973500  0.18656300  0.68372600  1
  Si  Si14  1  0.16256200  0.83743800  0.00000000  1
  Si  Si15  1  0.00000000  0.00000000  0.13657300  1
  O  O16  1  0.00044500  0.83360800  0.07143800  1
  O  O17  1  0.50000000  0.00000000  0.71699300  1
  O  O18  1  0.25000000  0.75000000  0.75000000  1
  O  O19  1  0.32397500  0.46802200  0.30408200  1
  O  O20  1  0.46802200  0.32397500  0.69591800  1
  O  O21  1  0.99955500  0.16639200  0.07143800  1
  O  O22  1  0.25000000  0.75000000  0.25000000  1
  O  O23  1  0.82397500  0.96802200  0.19591800  1
  O  O24  1  0.03197800  0.17602500  0.80408200  1
  O  O25  1  0.14075000  0.67819900  0.92909500  1
  O  O26  1  0.00000000  0.50000000  0.78300700  1
  O  O27  1  0.85925000  0.32180100  0.92909500  1
  O  O28  1  0.17819900  0.64075000  0.42909500  1
  O  O29  1  0.67602500  0.53197800  0.30408200  1
  O  O30  1  0.35925000  0.82180100  0.57090500  1
  O  O31  1  0.17602500  0.03197800  0.19591800  1
  O  O32  1  0.00000000  0.50000000  0.28300700  1
  O  O33  1  0.64075000  0.17819900  0.57090500  1
  O  O34  1  0.66639200  0.49955500  0.57143800  1
  O  O35  1  0.83360800  0.00044500  0.92856200  1
  O  O36  1  0.67819900  0.14075000  0.07090500  1
  O  O37  1  0.32180100  0.85925000  0.07090500  1
  O  O38  1  0.50044500  0.33360800  0.42856200  1
  O  O39  1  0.33360800  0.50044500  0.57143800  1
  O  O40  1  0.96802200  0.82397500  0.80408200  1
  O  O41  1  0.49955500  0.66639200  0.42856200  1
  O  O42  1  0.75000000  0.25000000  0.75000000  1
  O  O43  1  0.50000000  0.00000000  0.21699300  1
  O  O44  1  0.16639200  0.99955500  0.92856200  1
  O  O45  1  0.53197800  0.67602500  0.69591800  1
  O  O46  1  0.82180100  0.35925000  0.42909500  1
  O  O47  1  0.75000000  0.25000000  0.25000000  1
