# generated using pymatgen
data_CuC3(OF)3
_symmetry_space_group_name_H-M   'P 1'
_cell_length_a   8.27933265
_cell_length_b   8.27933265
_cell_length_c   10.36976355
_cell_angle_alpha   69.20152937
_cell_angle_beta   69.20152937
_cell_angle_gamma   64.95543080
_symmetry_Int_Tables_number   1
_chemical_formula_structural   CuC3(OF)3
_chemical_formula_sum   'Cu4 C12 O12 F12'
_cell_volume   584.16197140
_cell_formula_units_Z   4
loop_
 _symmetry_equiv_pos_site_id
 _symmetry_equiv_pos_as_xyz
  1  'x, y, z'
loop_
 _atom_site_type_symbol
 _atom_site_label
 _atom_site_symmetry_multiplicity
 _atom_site_fract_x
 _atom_site_fract_y
 _atom_site_fract_z
 _atom_site_occupancy
  Cu  Cu0  1  0.42607300  0.66554200  0.58713700  1
  Cu  Cu1  1  0.66554200  0.42607300  0.08713700  1
  Cu  Cu2  1  0.57392700  0.33445800  0.41286300  1
  Cu  Cu3  1  0.33445800  0.57392700  0.91286300  1
  C  C4  1  0.23147500  0.87162100  0.58280000  1
  C  C5  1  0.91338900  0.53249200  0.72745200  1
  C  C6  1  0.76852500  0.12837900  0.41720000  1
  C  C7  1  0.57265300  0.70723800  0.24088200  1
  C  C8  1  0.87162100  0.23147500  0.08280000  1
  C  C9  1  0.29276200  0.42734700  0.25911800  1
  C  C10  1  0.70723800  0.57265300  0.74088200  1
  C  C11  1  0.46750800  0.08661100  0.77254800  1
  C  C12  1  0.42734700  0.29276200  0.75911800  1
  C  C13  1  0.12837900  0.76852500  0.91720000  1
  C  C14  1  0.08661100  0.46750800  0.27254800  1
  C  C15  1  0.53249200  0.91338900  0.22745200  1
  O  O16  1  0.38320700  0.33572900  0.87427200  1
  O  O17  1  0.61679300  0.66427100  0.12572800  1
  O  O18  1  0.00691000  0.10864700  0.08401500  1
  O  O19  1  0.10864700  0.00691000  0.58401500  1
  O  O20  1  0.60612700  0.55096400  0.86683900  1
  O  O21  1  0.89135300  0.99309000  0.41598500  1
  O  O22  1  0.44903600  0.39387300  0.63316100  1
  O  O23  1  0.66427100  0.61679300  0.62572800  1
  O  O24  1  0.39387300  0.44903600  0.13316100  1
  O  O25  1  0.99309000  0.89135300  0.91598500  1
  O  O26  1  0.55096400  0.60612700  0.36683900  1
  O  O27  1  0.33572900  0.38320700  0.37427200  1
  F  F28  1  0.00509300  0.34712200  0.74718800  1
  F  F29  1  0.93568800  0.58701900  0.82772100  1
  F  F30  1  0.34712200  0.00509300  0.24718800  1
  F  F31  1  0.38398400  0.00439800  0.90100500  1
  F  F32  1  0.06431200  0.41298100  0.17227900  1
  F  F33  1  0.99560200  0.61601600  0.59899500  1
  F  F34  1  0.65287800  0.99490700  0.75281200  1
  F  F35  1  0.41298100  0.06431200  0.67227900  1
  F  F36  1  0.00439800  0.38398400  0.40100500  1
  F  F37  1  0.61601600  0.99560200  0.09899500  1
  F  F38  1  0.99490700  0.65287800  0.25281200  1
  F  F39  1  0.58701900  0.93568800  0.32772100  1
