# generated using pymatgen
data_AgSbC2N2(ClF3)2
_symmetry_space_group_name_H-M   'P 1'
_cell_length_a   8.88576000
_cell_length_b   7.81102000
_cell_length_c   10.71021520
_cell_angle_alpha   59.65499661
_cell_angle_beta   90.00000000
_cell_angle_gamma   90.00000000
_symmetry_Int_Tables_number   1
_chemical_formula_structural   AgSbC2N2(ClF3)2
_chemical_formula_sum   'Ag2 Sb2 C4 N4 Cl4 F12'
_cell_volume   641.52091235
_cell_formula_units_Z   2
loop_
 _symmetry_equiv_pos_site_id
 _symmetry_equiv_pos_as_xyz
  1  'x, y, z'
loop_
 _atom_site_type_symbol
 _atom_site_label
 _atom_site_symmetry_multiplicity
 _atom_site_fract_x
 _atom_site_fract_y
 _atom_site_fract_z
 _atom_site_occupancy
  Ag  Ag0  1  0.00000000  0.00000000  0.00000000  1
  Ag  Ag1  1  0.00000000  0.00000000  0.50000000  1
  Sb  Sb2  1  0.50000000  0.00000000  0.50000000  1
  Sb  Sb3  1  0.50000000  0.00000000  0.00000000  1
  C  C4  1  0.16957400  0.60915100  0.53995000  1
  C  C5  1  0.83042600  0.39084900  0.46005000  1
  C  C6  1  0.16957400  0.39084900  0.96005000  1
  C  C7  1  0.83042600  0.60915100  0.03995000  1
  N  N8  1  0.09286300  0.26846200  0.96148000  1
  N  N9  1  0.90713700  0.26846200  0.46148000  1
  N  N10  1  0.09286300  0.73153800  0.53852000  1
  N  N11  1  0.90713700  0.73153800  0.03852000  1
  Cl  Cl12  1  0.26931500  0.56295000  0.95679800  1
  Cl  Cl13  1  0.26931500  0.43705000  0.54320200  1
  Cl  Cl14  1  0.73068500  0.43705000  0.04320200  1
  Cl  Cl15  1  0.73068500  0.56295000  0.45679800  1
  F  F16  1  0.43876600  0.85844900  0.40572500  1
  F  F17  1  0.56123400  0.85844900  0.90572500  1
  F  F18  1  0.29729800  0.89907700  0.01376100  1
  F  F19  1  0.56123400  0.14155100  0.59427500  1
  F  F20  1  0.54989200  0.76934300  0.18057700  1
  F  F21  1  0.54989200  0.23065700  0.31942300  1
  F  F22  1  0.43876600  0.14155100  0.09427500  1
  F  F23  1  0.29729800  0.10092300  0.48623900  1
  F  F24  1  0.70270200  0.10092300  0.98623900  1
  F  F25  1  0.45010800  0.23065700  0.81942300  1
  F  F26  1  0.45010800  0.76934300  0.68057700  1
  F  F27  1  0.70270200  0.89907700  0.51376100  1
