# generated using pymatgen
data_V2Te2O9
_symmetry_space_group_name_H-M   'P 1'
_cell_length_a   14.83511058
_cell_length_b   14.79624417
_cell_length_c   5.04018316
_cell_angle_alpha   80.64226014
_cell_angle_beta   79.77147710
_cell_angle_gamma   19.58626276
_symmetry_Int_Tables_number   1
_chemical_formula_structural   V2Te2O9
_chemical_formula_sum   'V4 Te4 O18'
_cell_volume   364.94233868
_cell_formula_units_Z   2
loop_
 _symmetry_equiv_pos_site_id
 _symmetry_equiv_pos_as_xyz
  1  'x, y, z'
loop_
 _atom_site_type_symbol
 _atom_site_label
 _atom_site_symmetry_multiplicity
 _atom_site_fract_x
 _atom_site_fract_y
 _atom_site_fract_z
 _atom_site_occupancy
  V  V0  1  0.80823900  0.00950000  0.59364000  1
  V  V1  1  0.24050000  0.44176100  0.66138000  1
  V  V2  1  0.66138000  0.65636000  0.24050000  1
  V  V3  1  0.59364000  0.58862000  0.80823900  1
  Te  Te4  1  0.26873300  0.13500900  0.72422800  1
  Te  Te5  1  0.37796900  0.52577200  0.11499100  1
  Te  Te6  1  0.72422800  0.87203100  0.26873300  1
  Te  Te7  1  0.11499100  0.98126700  0.37796900  1
  O  O8  1  0.06502800  0.54641900  0.41499800  1
  O  O9  1  0.70358100  0.18497200  0.27644500  1
  O  O10  1  0.27644500  0.83500200  0.70358100  1
  O  O11  1  0.32754900  0.67245100  0.32754900  1
  O  O12  1  0.34749000  0.84510500  0.14065800  1
  O  O13  1  0.41499800  0.97355500  0.06502800  1
  O  O14  1  0.74266900  0.35349200  0.93636000  1
  O  O15  1  0.80348400  0.48114300  0.94510200  1
  O  O16  1  0.28252100  0.31364000  0.89650800  1
  O  O17  1  0.58325200  0.10934200  0.40489500  1
  O  O18  1  0.47972900  0.30489800  0.76885700  1
  O  O19  1  0.14065800  0.66674800  0.34749000  1
  O  O20  1  0.57754900  0.92245100  0.57754900  1
  O  O21  1  0.89650800  0.50733100  0.28252100  1
  O  O22  1  0.40489500  0.90251000  0.58325200  1
  O  O23  1  0.93636000  0.96747900  0.74266900  1
  O  O24  1  0.94510200  0.77027100  0.80348400  1
  O  O25  1  0.76885700  0.44651600  0.47972900  1
