# generated using pymatgen
data_K2WC2O9
_symmetry_space_group_name_H-M   'P 1'
_cell_length_a   9.08330800
_cell_length_b   7.19929100
_cell_length_c   15.31434754
_cell_angle_alpha   64.90248457
_cell_angle_beta   90.00000000
_cell_angle_gamma   90.00000000
_symmetry_Int_Tables_number   1
_chemical_formula_structural   K2WC2O9
_chemical_formula_sum   'K8 W4 C8 O36'
_cell_volume   906.90655229
_cell_formula_units_Z   4
loop_
 _symmetry_equiv_pos_site_id
 _symmetry_equiv_pos_as_xyz
  1  'x, y, z'
loop_
 _atom_site_type_symbol
 _atom_site_label
 _atom_site_symmetry_multiplicity
 _atom_site_fract_x
 _atom_site_fract_y
 _atom_site_fract_z
 _atom_site_occupancy
  K  K0  1  0.07038700  0.49267900  0.27004600  1
  K  K1  1  0.84893100  0.79182900  0.97610700  1
  K  K2  1  0.57038700  0.50732100  0.22995400  1
  K  K3  1  0.34893100  0.20817100  0.52389300  1
  K  K4  1  0.92961300  0.50732100  0.72995400  1
  K  K5  1  0.65106900  0.79182900  0.47610700  1
  K  K6  1  0.15106900  0.20817100  0.02389300  1
  K  K7  1  0.42961300  0.49267900  0.77004600  1
  W  W8  1  0.70375100  0.09634800  0.66713700  1
  W  W9  1  0.20375100  0.90365200  0.83286300  1
  W  W10  1  0.79624900  0.09634800  0.16713700  1
  W  W11  1  0.29624900  0.90365200  0.33286300  1
  C  C12  1  0.28969000  0.70147200  0.04555200  1
  C  C13  1  0.56648000  0.25533000  0.01551500  1
  C  C14  1  0.78969000  0.29852800  0.45444800  1
  C  C15  1  0.93352000  0.25533000  0.51551500  1
  C  C16  1  0.21031000  0.70147200  0.54555200  1
  C  C17  1  0.06648000  0.74467000  0.48448500  1
  C  C18  1  0.71031000  0.29852800  0.95444800  1
  C  C19  1  0.43352000  0.74467000  0.98448500  1
  O  O20  1  0.58752600  0.17456600  0.10925200  1
  O  O21  1  0.82832200  0.22939100  0.00556600  1
  O  O22  1  0.76710500  0.00528500  0.78668300  1
  O  O23  1  0.93286200  0.88102900  0.16884100  1
  O  O24  1  0.23289500  0.99471500  0.21331700  1
  O  O25  1  0.17384000  0.60532700  0.86318200  1
  O  O26  1  0.79662900  0.39088200  0.36547400  1
  O  O27  1  0.32832200  0.77060900  0.49443400  1
  O  O28  1  0.17167800  0.77060900  0.99443400  1
  O  O29  1  0.72091600  0.84176500  0.64493700  1
  O  O30  1  0.67384000  0.39467300  0.63681800  1
  O  O31  1  0.29662900  0.60911800  0.13452600  1
  O  O32  1  0.46541300  0.72864700  0.33483400  1
  O  O33  1  0.22091600  0.15823500  0.85506300  1
  O  O34  1  0.05585900  0.29496100  0.47716700  1
  O  O35  1  0.53458700  0.27135300  0.66516600  1
  O  O36  1  0.67167800  0.22939100  0.50556600  1
  O  O37  1  0.26710500  0.99471500  0.71331700  1
  O  O38  1  0.82616000  0.39467300  0.13681800  1
  O  O39  1  0.94414100  0.70503900  0.52283300  1
  O  O40  1  0.73289500  0.00528500  0.28668300  1
  O  O41  1  0.08752600  0.82543400  0.39074800  1
  O  O42  1  0.96541300  0.27135300  0.16516600  1
  O  O43  1  0.91247400  0.17456600  0.60925200  1
  O  O44  1  0.77908400  0.84176500  0.14493700  1
  O  O45  1  0.43286200  0.11897100  0.33115900  1
  O  O46  1  0.56713800  0.88102900  0.66884100  1
  O  O47  1  0.27908400  0.15823500  0.35506300  1
  O  O48  1  0.03458700  0.72864700  0.83483400  1
  O  O49  1  0.70337100  0.39088200  0.86547400  1
  O  O50  1  0.41247400  0.82543400  0.89074800  1
  O  O51  1  0.44414100  0.29496100  0.97716700  1
  O  O52  1  0.55585900  0.70503900  0.02283300  1
  O  O53  1  0.20337100  0.60911800  0.63452600  1
  O  O54  1  0.32616000  0.60532700  0.36318200  1
  O  O55  1  0.06713800  0.11897100  0.83115900  1
