# generated using pymatgen
data_Pr2B2MoO9
_symmetry_space_group_name_H-M   'P 1'
_cell_length_a   5.36243000
_cell_length_b   7.11285068
_cell_length_c   10.75309598
_cell_angle_alpha   74.46059098
_cell_angle_beta   76.14232872
_cell_angle_gamma   73.00953728
_symmetry_Int_Tables_number   1
_chemical_formula_structural   Pr2B2MoO9
_chemical_formula_sum   'Pr4 B4 Mo2 O18'
_cell_volume   372.07647548
_cell_formula_units_Z   2
loop_
 _symmetry_equiv_pos_site_id
 _symmetry_equiv_pos_as_xyz
  1  'x, y, z'
loop_
 _atom_site_type_symbol
 _atom_site_label
 _atom_site_symmetry_multiplicity
 _atom_site_fract_x
 _atom_site_fract_y
 _atom_site_fract_z
 _atom_site_occupancy
  Pr  Pr0  1  0.84267200  0.79362800  0.95379300  1
  Pr  Pr1  1  0.36988400  0.07763700  0.68633000  1
  Pr  Pr2  1  0.63011600  0.92236300  0.31367000  1
  Pr  Pr3  1  0.15732800  0.20637200  0.04620700  1
  B  B4  1  0.73725400  0.24562700  0.84422000  1
  B  B5  1  0.45972400  0.58786900  0.86349800  1
  B  B6  1  0.54027600  0.41213100  0.13650200  1
  B  B7  1  0.26274600  0.75437300  0.15578000  1
  Mo  Mo8  1  0.03758100  0.70961400  0.58107100  1
  Mo  Mo9  1  0.96241900  0.29038600  0.41892900  1
  O  O10  1  0.91781700  0.17257700  0.29822800  1
  O  O11  1  0.08218300  0.82742300  0.70177200  1
  O  O12  1  0.51587300  0.22039700  0.14701700  1
  O  O13  1  0.76554500  0.47234300  0.07329800  1
  O  O14  1  0.45400700  0.85819300  0.13924200  1
  O  O15  1  0.23445500  0.52765700  0.92670200  1
  O  O16  1  0.98897600  0.13391700  0.86558200  1
  O  O17  1  0.85537100  0.55767000  0.37627000  1
  O  O18  1  0.24007600  0.79021300  0.42980800  1
  O  O19  1  0.69492600  0.81935800  0.55445200  1
  O  O20  1  0.01102400  0.86608300  0.13441800  1
  O  O21  1  0.54599300  0.14180700  0.86075800  1
  O  O22  1  0.14462900  0.44233000  0.62373000  1
  O  O23  1  0.68712000  0.45361900  0.81426800  1
  O  O24  1  0.48412700  0.77960300  0.85298300  1
  O  O25  1  0.30507400  0.18064200  0.44554800  1
  O  O26  1  0.75992400  0.20978700  0.57019200  1
  O  O27  1  0.31288000  0.54638100  0.18573200  1
