# generated using pymatgen
data_Zn(NCl2)2
_symmetry_space_group_name_H-M   'P 1'
_cell_length_a   8.45237600
_cell_length_b   8.80011500
_cell_length_c   13.88591400
_cell_angle_alpha   90.00000000
_cell_angle_beta   90.00000000
_cell_angle_gamma   90.00000000
_symmetry_Int_Tables_number   1
_chemical_formula_structural   Zn(NCl2)2
_chemical_formula_sum   'Zn4 N8 Cl16'
_cell_volume   1032.86040027
_cell_formula_units_Z   4
loop_
 _symmetry_equiv_pos_site_id
 _symmetry_equiv_pos_as_xyz
  1  'x, y, z'
loop_
 _atom_site_type_symbol
 _atom_site_label
 _atom_site_symmetry_multiplicity
 _atom_site_fract_x
 _atom_site_fract_y
 _atom_site_fract_z
 _atom_site_occupancy
  Zn  Zn0  1  0.61842600  0.25000000  0.12350500  1
  Zn  Zn1  1  0.11842600  0.25000000  0.37649500  1
  Zn  Zn2  1  0.38157400  0.75000000  0.87649500  1
  Zn  Zn3  1  0.88157400  0.75000000  0.62350500  1
  N  N4  1  0.04619300  0.75000000  0.13546100  1
  N  N5  1  0.54619300  0.75000000  0.36453900  1
  N  N6  1  0.95380700  0.25000000  0.86453900  1
  N  N7  1  0.45380700  0.25000000  0.63546100  1
  N  N8  1  0.63410900  0.75000000  0.89842100  1
  N  N9  1  0.13410900  0.75000000  0.60157900  1
  N  N10  1  0.36589100  0.25000000  0.10157900  1
  N  N11  1  0.86589100  0.25000000  0.39842100  1
  Cl  Cl12  1  0.18544200  0.25000000  0.07359600  1
  Cl  Cl13  1  0.68544200  0.25000000  0.42640400  1
  Cl  Cl14  1  0.81455800  0.75000000  0.92640400  1
  Cl  Cl15  1  0.31455800  0.75000000  0.57359600  1
  Cl  Cl16  1  0.76732400  0.25000000  0.88906200  1
  Cl  Cl17  1  0.26732400  0.25000000  0.61093800  1
  Cl  Cl18  1  0.23267600  0.75000000  0.11093800  1
  Cl  Cl19  1  0.73267600  0.75000000  0.38906200  1
  Cl  Cl20  1  0.68259200  0.01723500  0.12859600  1
  Cl  Cl21  1  0.18259200  0.48276500  0.37140400  1
  Cl  Cl22  1  0.31740800  0.51723500  0.87140400  1
  Cl  Cl23  1  0.81740800  0.98276500  0.62859600  1
  Cl  Cl24  1  0.31740800  0.98276500  0.87140400  1
  Cl  Cl25  1  0.81740800  0.51723500  0.62859600  1
  Cl  Cl26  1  0.68259200  0.48276500  0.12859600  1
  Cl  Cl27  1  0.18259200  0.01723500  0.37140400  1
