# generated using pymatgen
data_Zn4P2O13
_symmetry_space_group_name_H-M   'P 1'
_cell_length_a   5.29879500
_cell_length_b   10.46367600
_cell_length_c   11.43120546
_cell_angle_alpha   58.65234875
_cell_angle_beta   90.00000000
_cell_angle_gamma   90.00000000
_symmetry_Int_Tables_number   1
_chemical_formula_structural   Zn4P2O13
_chemical_formula_sum   'Zn8 P4 O26'
_cell_volume   541.28346625
_cell_formula_units_Z   2
loop_
 _symmetry_equiv_pos_site_id
 _symmetry_equiv_pos_as_xyz
  1  'x, y, z'
loop_
 _atom_site_type_symbol
 _atom_site_label
 _atom_site_symmetry_multiplicity
 _atom_site_fract_x
 _atom_site_fract_y
 _atom_site_fract_z
 _atom_site_occupancy
  Zn  Zn0  1  0.00000000  0.00000000  0.50000000  1
  Zn  Zn1  1  0.00000000  0.00000000  0.00000000  1
  Zn  Zn2  1  0.04743100  0.00000000  0.75000000  1
  Zn  Zn3  1  0.95256900  0.00000000  0.25000000  1
  Zn  Zn4  1  0.69641200  0.71191100  0.00153700  1
  Zn  Zn5  1  0.69641200  0.28808900  0.49846300  1
  Zn  Zn6  1  0.30358800  0.28808900  0.99846300  1
  Zn  Zn7  1  0.30358800  0.71191100  0.50153700  1
  P  P8  1  0.51763600  0.80769700  0.70616000  1
  P  P9  1  0.51763600  0.19230300  0.79384000  1
  P  P10  1  0.48236400  0.19230300  0.29384000  1
  P  P11  1  0.48236400  0.80769700  0.20616000  1
  O  O12  1  0.28571700  0.91279100  0.66328000  1
  O  O13  1  0.28571700  0.08720900  0.83672000  1
  O  O14  1  0.71428300  0.08720900  0.33672000  1
  O  O15  1  0.71428300  0.91279100  0.16328000  1
  O  O16  1  0.76777600  0.90135100  0.66918700  1
  O  O17  1  0.76777600  0.09864900  0.83081300  1
  O  O18  1  0.23222400  0.09864900  0.33081300  1
  O  O19  1  0.23222400  0.90135100  0.16918700  1
  O  O20  1  0.52203800  0.69716400  0.86283200  1
  O  O21  1  0.52203800  0.30283600  0.63716800  1
  O  O22  1  0.47796200  0.30283600  0.13716800  1
  O  O23  1  0.47796200  0.69716400  0.36283200  1
  O  O24  1  0.52132000  0.72305300  0.62931600  1
  O  O25  1  0.52132000  0.27694700  0.87068400  1
  O  O26  1  0.47868000  0.27694700  0.37068400  1
  O  O27  1  0.47868000  0.72305300  0.12931600  1
  O  O28  1  0.97822000  0.84636600  0.94503300  1
  O  O29  1  0.97822000  0.15363400  0.55496700  1
  O  O30  1  0.02178000  0.15363400  0.05496700  1
  O  O31  1  0.02178000  0.84636600  0.44503300  1
  O  O32  1  0.89843200  0.50839900  0.14826500  1
  O  O33  1  0.89843200  0.49160100  0.35173500  1
  O  O34  1  0.10156800  0.49160100  0.85173500  1
  O  O35  1  0.10156800  0.50839900  0.64826500  1
  O  O36  1  0.97144800  0.50000000  0.75000000  1
  O  O37  1  0.02855200  0.50000000  0.25000000  1
