data_image0
_chemical_formula_structural       B8H40Mg2N8Na4
_chemical_formula_sum              "B8 H40 Mg2 N8 Na4"
_cell_length_a       8.91146
_cell_length_b       8.91146
_cell_length_c       8.91146
_cell_angle_alpha    117.835
_cell_angle_beta     93.793
_cell_angle_gamma    117.835

_space_group_name_H-M_alt    "P 1"
_space_group_IT_number       1

loop_
  _space_group_symop_operation_xyz
  'x, y, z'

loop_
  _atom_site_type_symbol
  _atom_site_label
  _atom_site_symmetry_multiplicity
  _atom_site_fract_x
  _atom_site_fract_y
  _atom_site_fract_z
  _atom_site_occupancy
  B   B1        1.0  0.28000  0.47200  0.23300  1.0000
  B   B2        1.0  0.76700  0.54700  0.23900  1.0000
  B   B3        1.0  0.30800  0.04690  0.28000  1.0000
  B   B4        1.0  0.76100  0.02830  0.30800  1.0000
  B   B5        1.0  0.23900  0.97200  0.69200  1.0000
  B   B6        1.0  0.69200  0.95300  0.72000  1.0000
  B   B7        1.0  0.23300  0.45300  0.76100  1.0000
  B   B8        1.0  0.72000  0.52800  0.76700  1.0000
  H   H1        1.0  0.87600  0.48600  0.03050  1.0000
  H   H2        1.0  0.89900  0.80700  0.03680  1.0000
  H   H3        1.0  0.40800  0.13800  0.10100  1.0000
  H   H4        1.0  0.45600  0.98600  0.11000  1.0000
  H   H5        1.0  0.11000  0.15400  0.12400  1.0000
  H   H6        1.0  0.61400  0.38700  0.14500  1.0000
  H   H7        1.0  0.60400  0.90600  0.19500  1.0000
  H   H8        1.0  0.29000  0.59400  0.19800  1.0000
  H   H9        1.0  0.03680  0.63800  0.23000  1.0000
  H   H10       1.0  0.42100  0.47700  0.23500  1.0000
  H   H11       1.0  0.76500  0.68500  0.24100  1.0000
  H   H12       1.0  0.85500  0.96900  0.24200  1.0000
  H   H13       1.0  0.24200  0.88700  0.27300  1.0000
  H   H14       1.0  0.19500  0.09130  0.29000  1.0000
  H   H15       1.0  0.27300  0.53100  0.38600  1.0000
  H   H16       1.0  0.80200  0.59100  0.39600  1.0000
  H   H17       1.0  0.77000  0.30700  0.40800  1.0000
  H   H18       1.0  0.44400  0.18500  0.42100  1.0000
  H   H19       1.0  0.75900  0.02320  0.44400  1.0000
  H   H20       1.0  0.96900  0.34600  0.45600  1.0000
  H   H21       1.0  0.03050  0.65400  0.54400  1.0000
  H   H22       1.0  0.24100  0.97700  0.55600  1.0000
  H   H23       1.0  0.55600  0.81500  0.57900  1.0000
  H   H24       1.0  0.23000  0.69300  0.59200  1.0000
  H   H25       1.0  0.19800  0.40900  0.60400  1.0000
  H   H26       1.0  0.72700  0.46900  0.61400  1.0000
  H   H27       1.0  0.80500  0.90900  0.71000  1.0000
  H   H28       1.0  0.75800  0.11300  0.72700  1.0000
  H   H29       1.0  0.14500  0.03070  0.75800  1.0000
  H   H30       1.0  0.23500  0.31500  0.75900  1.0000
  H   H31       1.0  0.57900  0.52300  0.76500  1.0000
  H   H32       1.0  0.96300  0.36200  0.77000  1.0000
  H   H33       1.0  0.71000  0.40600  0.80200  1.0000
  H   H34       1.0  0.39600  0.09420  0.80500  1.0000
  H   H35       1.0  0.38600  0.61300  0.85500  1.0000
  H   H36       1.0  0.89000  0.84600  0.87600  1.0000
  H   H37       1.0  0.54400  0.01360  0.89000  1.0000
  H   H38       1.0  0.59200  0.86200  0.89900  1.0000
  H   H39       1.0  0.10100  0.19300  0.96300  1.0000
  H   H40       1.0  0.12400  0.51400  0.96900  1.0000
  Mg  Mg1       1.0  0.87500  0.25000  0.12500  1.0000
  Mg  Mg2       1.0  0.12500  0.75000  0.87500  1.0000
  N   N1        1.0  0.10400  0.25000  0.09450  1.0000
  N   N2        1.0  0.35400  0.00974  0.10400  1.0000
  N   N3        1.0  0.90600  0.51000  0.15600  1.0000
  N   N4        1.0  0.84400  0.25000  0.35400  1.0000
  N   N5        1.0  0.15600  0.75000  0.64600  1.0000
  N   N6        1.0  0.09450  0.49000  0.84400  1.0000
  N   N7        1.0  0.64600  0.99000  0.89600  1.0000
  N   N8        1.0  0.89600  0.75000  0.90600  1.0000
  Na  Na1       1.0  0.50000  0.50000  0.50000  1.0000
  Na  Na2       1.0  0.50000  0.00000  0.50000  1.0000
  Na  Na3       1.0  0.00000  0.00000  0.50000  1.0000
  Na  Na4       1.0  0.50000  0.50000  0.00000  1.0000
