# generated using pymatgen
data_YZnCu3Se4
_symmetry_space_group_name_H-M   'P 1'
_cell_length_a   5.88614813
_cell_length_b   5.88812312
_cell_length_c   5.88726983
_cell_angle_alpha   90.04282721
_cell_angle_beta   90.04312646
_cell_angle_gamma   90.05630343
_symmetry_Int_Tables_number   1
_chemical_formula_structural   YZnCu3Se4
_chemical_formula_sum   'Y1 Zn1 Cu3 Se4'
_cell_volume   204.04293251
_cell_formula_units_Z   1
loop_
 _symmetry_equiv_pos_site_id
 _symmetry_equiv_pos_as_xyz
  1  'x, y, z'
loop_
 _atom_site_type_symbol
 _atom_site_label
 _atom_site_symmetry_multiplicity
 _atom_site_fract_x
 _atom_site_fract_y
 _atom_site_fract_z
 _atom_site_occupancy
  Y  Y0  1  0.00023800  0.00023500  0.00030100  1
  Zn  Zn1  1  0.50009700  0.50010100  0.50012800  1
  Cu  Cu2  1  0.00002900  0.49991500  0.00004300  1
  Cu  Cu3  1  0.00003100  0.00002900  0.49989300  1
  Cu  Cu4  1  0.49992100  0.00003000  0.00004800  1
  Se  Se5  1  0.25902400  0.25905100  0.25899800  1
  Se  Se6  1  0.74066200  0.74065300  0.25929300  1
  Se  Se7  1  0.25935900  0.74063200  0.74063800  1
  Se  Se8  1  0.74063900  0.25935300  0.74065700  1
