# generated using pymatgen
data_CeB2ClO4
_symmetry_space_group_name_H-M   'P 1'
_cell_length_a   4.25072900
_cell_length_b   6.65973084
_cell_length_c   8.20377083
_cell_angle_alpha   98.04659574
_cell_angle_beta   89.05973321
_cell_angle_gamma   107.58685812
_symmetry_Int_Tables_number   1
_chemical_formula_structural   CeB2ClO4
_chemical_formula_sum   'Ce2 B4 Cl2 O8'
_cell_volume   219.12130438
_cell_formula_units_Z   2
loop_
 _symmetry_equiv_pos_site_id
 _symmetry_equiv_pos_as_xyz
  1  'x, y, z'
loop_
 _atom_site_type_symbol
 _atom_site_label
 _atom_site_symmetry_multiplicity
 _atom_site_fract_x
 _atom_site_fract_y
 _atom_site_fract_z
 _atom_site_occupancy
  Ce  Ce0  1  0.20242800  0.96524900  0.22125100  1
  Ce  Ce1  1  0.79757200  0.03475100  0.77874900  1
  B  B2  1  0.43566900  0.56263000  0.19473200  1
  B  B3  1  0.83345800  0.34923100  0.14858900  1
  B  B4  1  0.56433100  0.43737000  0.80526800  1
  B  B5  1  0.16654200  0.65076900  0.85141100  1
  Cl  Cl6  1  0.14693800  0.80182300  0.54402000  1
  Cl  Cl7  1  0.85306200  0.19817700  0.45598000  1
  O  O8  1  0.90265500  0.46529000  0.82140500  1
  O  O9  1  0.52176800  0.37444400  0.18328700  1
  O  O10  1  0.84005100  0.15432500  0.07858000  1
  O  O11  1  0.47823200  0.62555600  0.81671300  1
  O  O12  1  0.63027100  0.76348200  0.20985400  1
  O  O13  1  0.36972900  0.23651800  0.79014600  1
  O  O14  1  0.15994900  0.84567500  0.92142000  1
  O  O15  1  0.09734500  0.53471000  0.17859500  1
