# generated using pymatgen
data_SrV2ZnO7
_symmetry_space_group_name_H-M   'P 1'
_cell_length_a   6.77283300
_cell_length_b   7.59732800
_cell_length_c   13.62432438
_cell_angle_alpha   62.37454010
_cell_angle_beta   90.00000000
_cell_angle_gamma   90.00000000
_symmetry_Int_Tables_number   1
_chemical_formula_structural   SrV2ZnO7
_chemical_formula_sum   'Sr4 V8 Zn4 O28'
_cell_volume   621.12466448
_cell_formula_units_Z   4
loop_
 _symmetry_equiv_pos_site_id
 _symmetry_equiv_pos_as_xyz
  1  'x, y, z'
loop_
 _atom_site_type_symbol
 _atom_site_label
 _atom_site_symmetry_multiplicity
 _atom_site_fract_x
 _atom_site_fract_y
 _atom_site_fract_z
 _atom_site_occupancy
  Sr  Sr0  1  0.35059300  0.76884800  0.97633800  1
  Sr  Sr1  1  0.14940700  0.76884800  0.47633800  1
  Sr  Sr2  1  0.85059300  0.23115200  0.52366200  1
  Sr  Sr3  1  0.64940700  0.23115200  0.02366200  1
  V  V4  1  0.41127800  0.30603500  0.27959800  1
  V  V5  1  0.84377100  0.78258500  0.96154000  1
  V  V6  1  0.58872200  0.69396500  0.72040200  1
  V  V7  1  0.65622900  0.78258500  0.46154000  1
  V  V8  1  0.91127800  0.69396500  0.22040200  1
  V  V9  1  0.15622900  0.21741500  0.03846000  1
  V  V10  1  0.34377100  0.21741500  0.53846000  1
  V  V11  1  0.08872200  0.30603500  0.77959800  1
  Zn  Zn12  1  0.39221600  0.78964400  0.23290200  1
  Zn  Zn13  1  0.60778400  0.21035600  0.76709800  1
  Zn  Zn14  1  0.10778400  0.78964400  0.73290200  1
  Zn  Zn15  1  0.89221600  0.21035600  0.26709800  1
  O  O16  1  0.91088200  0.22839400  0.71805100  1
  O  O17  1  0.41088200  0.77160600  0.78194900  1
  O  O18  1  0.30242400  0.16987200  0.80581000  1
  O  O19  1  0.97149400  0.20245300  0.12897400  1
  O  O20  1  0.17605300  0.01772200  0.58000500  1
  O  O21  1  0.86896400  0.44112600  0.30058300  1
  O  O22  1  0.19757600  0.16987200  0.30581000  1
  O  O23  1  0.69757600  0.83012800  0.19419000  1
  O  O24  1  0.49325100  0.25249000  0.41979400  1
  O  O25  1  0.13103600  0.55887400  0.69941700  1
  O  O26  1  0.08911800  0.77160600  0.28194900  1
  O  O27  1  0.67605300  0.98227800  0.91999500  1
  O  O28  1  0.52850600  0.20245300  0.62897400  1
  O  O29  1  0.32394700  0.01772200  0.08000500  1
  O  O30  1  0.00674900  0.25249000  0.91979400  1
  O  O31  1  0.69603800  0.58487900  0.99441900  1
  O  O32  1  0.99325100  0.74751000  0.08020600  1
  O  O33  1  0.80242400  0.83012800  0.69419000  1
  O  O34  1  0.80396200  0.58487900  0.49441900  1
  O  O35  1  0.63103600  0.44112600  0.80058300  1
  O  O36  1  0.02850600  0.79754700  0.87102600  1
  O  O37  1  0.47149400  0.79754700  0.37102600  1
  O  O38  1  0.36896400  0.55887400  0.19941700  1
  O  O39  1  0.30396200  0.41512100  0.00558100  1
  O  O40  1  0.19603800  0.41512100  0.50558100  1
  O  O41  1  0.50674900  0.74751000  0.58020600  1
  O  O42  1  0.58911800  0.22839400  0.21805100  1
  O  O43  1  0.82394700  0.98227800  0.41999500  1
