# generated using pymatgen
data_Na2TiSi4O11
_symmetry_space_group_name_H-M   'P 1'
_cell_length_a   8.65231573
_cell_length_b   8.65231573
_cell_length_c   8.65231573
_cell_angle_alpha   102.03368303
_cell_angle_beta   102.03368303
_cell_angle_gamma   125.66370204
_symmetry_Int_Tables_number   1
_chemical_formula_structural   Na2TiSi4O11
_chemical_formula_sum   'Na4 Ti2 Si8 O22'
_cell_volume   468.19250913
_cell_formula_units_Z   2
loop_
 _symmetry_equiv_pos_site_id
 _symmetry_equiv_pos_as_xyz
  1  'x, y, z'
loop_
 _atom_site_type_symbol
 _atom_site_label
 _atom_site_symmetry_multiplicity
 _atom_site_fract_x
 _atom_site_fract_y
 _atom_site_fract_z
 _atom_site_occupancy
  Na  Na0  1  0.36614000  0.31741600  0.68355600  1
  Na  Na1  1  0.31741600  0.63386000  0.95127600  1
  Na  Na2  1  0.63386000  0.68258400  0.31644400  1
  Na  Na3  1  0.68258400  0.36614000  0.04872400  1
  Ti  Ti4  1  0.75622300  0.75622300  0.00000000  1
  Ti  Ti5  1  0.24377700  0.24377700  0.00000000  1
  Si  Si6  1  0.49896300  0.79537200  0.67932600  1
  Si  Si7  1  0.50103700  0.20462800  0.32067400  1
  Si  Si8  1  0.20462800  0.88395300  0.70359100  1
  Si  Si9  1  0.88395300  0.18036300  0.67932600  1
  Si  Si10  1  0.18036300  0.50103700  0.29640900  1
  Si  Si11  1  0.81963700  0.49896300  0.70359100  1
  Si  Si12  1  0.11604700  0.81963700  0.32067400  1
  Si  Si13  1  0.79537200  0.11604700  0.29640900  1
  O  O14  1  0.55394900  0.68192100  0.77302100  1
  O  O15  1  0.40828100  0.67759100  0.46639400  1
  O  O16  1  0.44605100  0.31807900  0.22697900  1
  O  O17  1  0.05811200  0.59171900  0.26931000  1
  O  O18  1  0.21907200  0.44605100  0.12797200  1
  O  O19  1  0.30393100  0.95786300  0.26179400  1
  O  O20  1  0.78092800  0.55394900  0.87202800  1
  O  O21  1  0.31807900  0.09110000  0.87202800  1
  O  O22  1  0.67759100  0.21119800  0.26931000  1
  O  O23  1  0.32240900  0.78880200  0.73069000  1
  O  O24  1  0.69606900  0.04213700  0.73820600  1
  O  O25  1  0.04213700  0.30393100  0.34606800  1
  O  O26  1  0.50000000  0.50000000  0.00000000  1
  O  O27  1  0.78880200  0.05811200  0.46639400  1
  O  O28  1  0.21119800  0.94188800  0.53360600  1
  O  O29  1  0.90890000  0.78092800  0.22697900  1
  O  O30  1  0.09110000  0.21907200  0.77302100  1
  O  O31  1  0.95786300  0.69606900  0.65393200  1
  O  O32  1  0.68192100  0.90890000  0.12797200  1
  O  O33  1  0.59171900  0.32240900  0.53360600  1
  O  O34  1  0.00000000  0.00000000  0.00000000  1
  O  O35  1  0.94188800  0.40828100  0.73069000  1
