# generated using pymatgen
data_GaH20C2S2NO14
_symmetry_space_group_name_H-M   'P 1'
_cell_length_a   10.97395800
_cell_length_b   6.31477100
_cell_length_c   11.45068347
_cell_angle_alpha   76.41580349
_cell_angle_beta   90.00000000
_cell_angle_gamma   90.00000000
_symmetry_Int_Tables_number   1
_chemical_formula_structural   GaH20C2S2NO14
_chemical_formula_sum   'Ga2 H40 C4 S4 N2 O28'
_cell_volume   771.31204049
_cell_formula_units_Z   2
loop_
 _symmetry_equiv_pos_site_id
 _symmetry_equiv_pos_as_xyz
  1  'x, y, z'
loop_
 _atom_site_type_symbol
 _atom_site_label
 _atom_site_symmetry_multiplicity
 _atom_site_fract_x
 _atom_site_fract_y
 _atom_site_fract_z
 _atom_site_occupancy
  Ga  Ga0  1  0.49567300  0.25624400  0.25623100  1
  Ga  Ga1  1  0.99567300  0.74375600  0.74376900  1
  H  H2  1  0.99135500  0.48328300  0.29662500  1
  H  H3  1  0.64412600  0.01292500  0.16207500  1
  H  H4  1  0.84443800  0.50566100  0.65702200  1
  H  H5  1  0.31282200  0.39943000  0.11013700  1
  H  H6  1  0.17870200  0.89069400  0.60428200  1
  H  H7  1  0.04319400  0.05443100  0.30335600  1
  H  H8  1  0.00660800  0.04705400  0.86849200  1
  H  H9  1  0.90335000  0.90067900  0.33079000  1
  H  H10  1  0.64070400  0.44434300  0.06903300  1
  H  H11  1  0.81282200  0.60057000  0.88986300  1
  H  H12  1  0.46739900  0.89932400  0.43166400  1
  H  H13  1  0.49135500  0.51671700  0.70337500  1
  H  H14  1  0.68602600  0.38040000  0.36272200  1
  H  H15  1  0.99668100  0.53314200  0.13536800  1
  H  H16  1  0.14412600  0.98707500  0.83792500  1
  H  H17  1  0.96739900  0.10067600  0.56833600  1
  H  H18  1  0.48138700  0.56130900  0.37773900  1
  H  H19  1  0.40335000  0.09932100  0.66921000  1
  H  H20  1  0.54319400  0.94556900  0.69664400  1
  H  H21  1  0.34759000  0.06354100  0.43577400  1
  H  H22  1  0.04472800  0.78008500  0.39190800  1
  H  H23  1  0.48796400  0.07696700  0.86732100  1
  H  H24  1  0.49668100  0.46685800  0.86463200  1
  H  H25  1  0.61568700  0.19546100  0.80999400  1
  H  H26  1  0.34443800  0.49433900  0.34297800  1
  H  H27  1  0.86595900  0.61594300  0.20817700  1
  H  H28  1  0.80631700  0.86914100  0.85303600  1
  H  H29  1  0.30631700  0.13085900  0.14696400  1
  H  H30  1  0.02526500  0.38702800  0.92612300  1
  H  H31  1  0.11568700  0.80453900  0.19000600  1
  H  H32  1  0.98796400  0.92303300  0.13267900  1
  H  H33  1  0.52526500  0.61297200  0.07387700  1
  H  H34  1  0.18602600  0.61960000  0.63727800  1
  H  H35  1  0.36595900  0.38405700  0.79182300  1
  H  H36  1  0.84759000  0.93645900  0.56422600  1
  H  H37  1  0.98138700  0.43869100  0.62226100  1
  H  H38  1  0.67870200  0.10930600  0.39571800  1
  H  H39  1  0.54472800  0.21991500  0.60809200  1
  H  H40  1  0.50660800  0.95294600  0.13150800  1
  H  H41  1  0.14070400  0.55565700  0.93096700  1
  C  C42  1  0.50155800  0.10698700  0.68385200  1
  C  C43  1  0.46476800  0.40585900  0.78804500  1
  C  C44  1  0.96476800  0.59414100  0.21195500  1
  C  C45  1  0.00155800  0.89301300  0.31614800  1
  S  S46  1  0.67791500  0.66626500  0.49732300  1
  S  S47  1  0.31026900  0.84203300  0.00715600  1
  S  S48  1  0.17791500  0.33373500  0.50267700  1
  S  S49  1  0.81026900  0.15796700  0.99284400  1
  N  N50  1  0.52244500  0.18973600  0.79382400  1
  N  N51  1  0.02244500  0.81026400  0.20617600  1
  O  O52  1  0.04135700  0.32617700  0.51705300  1
  O  O53  1  0.70797400  0.52205700  0.61596500  1
  O  O54  1  0.83624100  0.73533500  0.82789700  1
  O  O55  1  0.42294100  0.03656200  0.39142000  1
  O  O56  1  0.44776600  0.84436500  0.01745100  1
  O  O57  1  0.23399900  0.41316800  0.60221800  1
  O  O58  1  0.72299300  0.89336500  0.49310100  1
  O  O59  1  0.06709100  0.52610600  0.88649200  1
  O  O60  1  0.76753700  0.38401700  0.99063900  1
  O  O61  1  0.77682400  0.00717200  0.10789500  1
  O  O62  1  0.65567000  0.24696800  0.33487400  1
  O  O63  1  0.73399900  0.58683200  0.39778200  1
  O  O64  1  0.56709100  0.47389400  0.11350800  1
  O  O65  1  0.54135700  0.67382300  0.48294700  1
  O  O66  1  0.55627200  0.01057400  0.19009300  1
  O  O67  1  0.94776600  0.15563500  0.98254900  1
  O  O68  1  0.75707700  0.08689000  0.88823500  1
  O  O69  1  0.25707700  0.91311000  0.11176500  1
  O  O70  1  0.92294100  0.96343800  0.60858000  1
  O  O71  1  0.20797400  0.47794300  0.38403500  1
  O  O72  1  0.22299300  0.10663500  0.50689900  1
  O  O73  1  0.93372700  0.49588400  0.68340400  1
  O  O74  1  0.26753700  0.61598300  0.00936100  1
  O  O75  1  0.27682400  0.99282800  0.89210500  1
  O  O76  1  0.33624100  0.26466500  0.17210300  1
  O  O77  1  0.05627200  0.98942600  0.80990700  1
  O  O78  1  0.15567000  0.75303200  0.66512600  1
  O  O79  1  0.43372700  0.50411600  0.31659600  1
