data_image0
_chemical_formula_structural       F6RhSr
_chemical_formula_sum              "F6 Rh1 Sr1"
_cell_length_a       4.68229
_cell_length_b       4.68229
_cell_length_c       4.68229
_cell_angle_alpha    98.0914
_cell_angle_beta     98.0914
_cell_angle_gamma    98.0914

_space_group_name_H-M_alt    "P 1"
_space_group_IT_number       1

loop_
  _space_group_symop_operation_xyz
  'x, y, z'

loop_
  _atom_site_type_symbol
  _atom_site_label
  _atom_site_symmetry_multiplicity
  _atom_site_fract_x
  _atom_site_fract_y
  _atom_site_fract_z
  _atom_site_occupancy
  F   F1        1.0  0.70300  0.70300  0.07250  1.0000
  F   F2        1.0  0.29700  0.92800  0.29700  1.0000
  F   F3        1.0  0.92800  0.29700  0.29700  1.0000
  F   F4        1.0  0.07250  0.70300  0.70300  1.0000
  F   F5        1.0  0.70300  0.07250  0.70300  1.0000
  F   F6        1.0  0.29700  0.29700  0.92800  1.0000
  Rh  Rh1       1.0  0.00000  0.00000  0.00000  1.0000
  Sr  Sr1       1.0  0.50000  0.50000  0.50000  1.0000
