# generated using pymatgen
data_Yb2Se3O20
_symmetry_space_group_name_H-M   'P 1'
_cell_length_a   8.00562984
_cell_length_b   8.00562984
_cell_length_c   16.89779005
_cell_angle_alpha   81.87165224
_cell_angle_beta   81.87165224
_cell_angle_gamma   53.79189763
_symmetry_Int_Tables_number   1
_chemical_formula_structural   Yb2Se3O20
_chemical_formula_sum   'Yb4 Se6 O40'
_cell_volume   862.78058798
_cell_formula_units_Z   2
loop_
 _symmetry_equiv_pos_site_id
 _symmetry_equiv_pos_as_xyz
  1  'x, y, z'
loop_
 _atom_site_type_symbol
 _atom_site_label
 _atom_site_symmetry_multiplicity
 _atom_site_fract_x
 _atom_site_fract_y
 _atom_site_fract_z
 _atom_site_occupancy
  Yb  Yb0  1  0.78366400  0.62467200  0.11234700  1
  Yb  Yb1  1  0.37532800  0.21633600  0.38765300  1
  Yb  Yb2  1  0.21633600  0.37532800  0.88765300  1
  Yb  Yb3  1  0.62467200  0.78366400  0.61234700  1
  Se  Se4  1  0.78569900  0.63121600  0.41175400  1
  Se  Se5  1  0.36878400  0.21430100  0.08824600  1
  Se  Se6  1  0.21430100  0.36878400  0.58824600  1
  Se  Se7  1  0.63121600  0.78569900  0.91175400  1
  Se  Se8  1  0.80671800  0.19328200  0.25000000  1
  Se  Se9  1  0.19328200  0.80671800  0.75000000  1
  O  O10  1  0.98746300  0.11231200  0.31521900  1
  O  O11  1  0.88768800  0.01253700  0.18478100  1
  O  O12  1  0.01253700  0.88768800  0.68478100  1
  O  O13  1  0.11231200  0.98746300  0.81521900  1
  O  O14  1  0.75217200  0.41082800  0.19778400  1
  O  O15  1  0.58917200  0.24782800  0.30221600  1
  O  O16  1  0.24782800  0.58917200  0.80221600  1
  O  O17  1  0.41082800  0.75217200  0.69778400  1
  O  O18  1  0.76603300  0.54221500  0.50808400  1
  O  O19  1  0.45778500  0.23396700  0.99191600  1
  O  O20  1  0.23396700  0.45778500  0.49191600  1
  O  O21  1  0.54221500  0.76603300  0.00808400  1
  O  O22  1  0.45835100  0.71409000  0.31930700  1
  O  O23  1  0.28591000  0.54164900  0.18069300  1
  O  O24  1  0.54164900  0.28591000  0.68069300  1
  O  O25  1  0.71409000  0.45835100  0.81930700  1
  O  O26  1  0.04100000  0.52166500  0.38606700  1
  O  O27  1  0.47833500  0.95900000  0.11393300  1
  O  O28  1  0.95900000  0.47833500  0.61393300  1
  O  O29  1  0.52166500  0.04100000  0.88606700  1
  O  O30  1  0.11115400  0.34357500  0.08388600  1
  O  O31  1  0.65642500  0.88884600  0.41611400  1
  O  O32  1  0.88884600  0.65642500  0.91611400  1
  O  O33  1  0.34357500  0.11115400  0.58388600  1
  O  O34  1  0.35059300  0.66226000  0.35668300  1
  O  O35  1  0.33774000  0.64940700  0.14331700  1
  O  O36  1  0.64940700  0.33774000  0.64331700  1
  O  O37  1  0.66226000  0.35059300  0.85668300  1
  O  O38  1  0.85305500  0.27821100  0.01513400  1
  O  O39  1  0.72178900  0.14694500  0.48486600  1
  O  O40  1  0.14694500  0.72178900  0.98486600  1
  O  O41  1  0.27821100  0.85305500  0.51513400  1
  O  O42  1  0.78139300  0.81561100  0.20960400  1
  O  O43  1  0.18438900  0.21860700  0.29039600  1
  O  O44  1  0.21860700  0.18438900  0.79039600  1
  O  O45  1  0.81561100  0.78139300  0.70960400  1
  O  O46  1  0.21401900  0.00081200  0.46451200  1
  O  O47  1  0.99918800  0.78598100  0.03548800  1
  O  O48  1  0.78598100  0.99918800  0.53548800  1
  O  O49  1  0.00081200  0.21401900  0.96451200  1
