# generated using pymatgen
data_Ti7O13
_symmetry_space_group_name_H-M   'P 1'
_cell_length_a   5.59249100
_cell_length_b   7.19146667
_cell_length_c   11.40834340
_cell_angle_alpha   96.03807717
_cell_angle_beta   89.28143999
_cell_angle_gamma   108.67001133
_symmetry_Int_Tables_number   1
_chemical_formula_structural   Ti7O13
_chemical_formula_sum   'Ti14 O26'
_cell_volume   432.15870537
_cell_formula_units_Z   2
loop_
 _symmetry_equiv_pos_site_id
 _symmetry_equiv_pos_as_xyz
  1  'x, y, z'
loop_
 _atom_site_type_symbol
 _atom_site_label
 _atom_site_symmetry_multiplicity
 _atom_site_fract_x
 _atom_site_fract_y
 _atom_site_fract_z
 _atom_site_occupancy
  Ti  Ti0  1  0.79417100  0.28904600  0.44818200  1
  Ti  Ti1  1  0.21691400  0.01736900  0.29315300  1
  Ti  Ti2  1  0.61405600  0.76438800  0.14449500  1
  Ti  Ti3  1  0.20577000  0.20956900  0.55561600  1
  Ti  Ti4  1  0.79423000  0.79043100  0.44438400  1
  Ti  Ti5  1  0.78476500  0.48646700  0.70743900  1
  Ti  Ti6  1  0.20582900  0.71095400  0.55181800  1
  Ti  Ti7  1  0.78308600  0.98263100  0.70684700  1
  Ti  Ti8  1  0.00000000  0.00000000  0.00000000  1
  Ti  Ti9  1  0.39007200  0.73599400  0.85313900  1
  Ti  Ti10  1  0.21523500  0.51353300  0.29256100  1
  Ti  Ti11  1  0.00000000  0.50000000  0.00000000  1
  Ti  Ti12  1  0.60992800  0.26400600  0.14686100  1
  Ti  Ti13  1  0.38594400  0.23561200  0.85550500  1
  O  O14  1  0.31895900  0.28734700  0.25058300  1
  O  O15  1  0.42483000  0.31301300  0.68304500  1
  O  O16  1  0.05723100  0.93202100  0.59199000  1
  O  O17  1  0.85218400  0.36642700  0.29418900  1
  O  O18  1  0.57517000  0.68698700  0.31695500  1
  O  O19  1  0.50231400  0.00508500  0.79554200  1
  O  O20  1  0.63649200  0.83063600  0.98573000  1
  O  O21  1  0.14781600  0.63357300  0.70581100  1
  O  O22  1  0.28078000  0.47078000  0.89925800  1
  O  O23  1  0.24322700  0.59475500  0.14047400  1
  O  O24  1  0.36350800  0.16936400  0.01427000  1
  O  O25  1  0.55236400  0.84403800  0.55511700  1
  O  O26  1  0.11525000  0.76857200  0.94924800  1
  O  O27  1  0.75677300  0.40524500  0.85952600  1
  O  O28  1  0.71922000  0.52922000  0.10074200  1
  O  O29  1  0.44763600  0.15596200  0.44488300  1
  O  O30  1  0.19847400  0.44804900  0.47270900  1
  O  O31  1  0.94276900  0.06797900  0.40801000  1
  O  O32  1  0.03233600  0.07427200  0.83198000  1
  O  O33  1  0.87306900  0.23563400  0.62373500  1
  O  O34  1  0.80152600  0.55195100  0.52729100  1
  O  O35  1  0.88475000  0.23142800  0.05075200  1
  O  O36  1  0.12693100  0.76436600  0.37626500  1
  O  O37  1  0.96766400  0.92572800  0.16802000  1
  O  O38  1  0.68104100  0.71265300  0.74941700  1
  O  O39  1  0.49768600  0.99491500  0.20445800  1
