# generated using pymatgen
data_Ba2V2ZnO8
_symmetry_space_group_name_H-M   'P 1'
_cell_length_a   16.44960200
_cell_length_b   6.27053100
_cell_length_c   8.06773148
_cell_angle_alpha   89.67164439
_cell_angle_beta   90.00000000
_cell_angle_gamma   90.00000000
_symmetry_Int_Tables_number   1
_chemical_formula_structural   Ba2V2ZnO8
_chemical_formula_sum   'Ba8 V8 Zn4 O32'
_cell_volume   832.15459826
_cell_formula_units_Z   4
loop_
 _symmetry_equiv_pos_site_id
 _symmetry_equiv_pos_as_xyz
  1  'x, y, z'
loop_
 _atom_site_type_symbol
 _atom_site_label
 _atom_site_symmetry_multiplicity
 _atom_site_fract_x
 _atom_site_fract_y
 _atom_site_fract_z
 _atom_site_occupancy
  Ba  Ba0  1  0.54251200  0.26296400  0.63879900  1
  Ba  Ba1  1  0.04251200  0.23703600  0.36120100  1
  Ba  Ba2  1  0.95748800  0.76296400  0.63879900  1
  Ba  Ba3  1  0.62925900  0.22266300  0.14371600  1
  Ba  Ba4  1  0.12925900  0.27733700  0.85628400  1
  Ba  Ba5  1  0.45748800  0.73703600  0.36120100  1
  Ba  Ba6  1  0.37074100  0.77733700  0.85628400  1
  Ba  Ba7  1  0.87074100  0.72266300  0.14371600  1
  V  V8  1  0.33028600  0.23587300  0.59500600  1
  V  V9  1  0.83028600  0.26412700  0.40499400  1
  V  V10  1  0.90895000  0.24635900  0.87640300  1
  V  V11  1  0.66971400  0.76412700  0.40499400  1
  V  V12  1  0.59105000  0.74635900  0.87640300  1
  V  V13  1  0.09105000  0.75364100  0.12359700  1
  V  V14  1  0.16971400  0.73587300  0.59500600  1
  V  V15  1  0.40895000  0.25364100  0.12359700  1
  Zn  Zn16  1  0.75003900  0.00222300  0.72702400  1
  Zn  Zn17  1  0.25003900  0.49777700  0.27297600  1
  Zn  Zn18  1  0.74996100  0.50222300  0.72702400  1
  Zn  Zn19  1  0.24996100  0.99777700  0.27297600  1
  O  O20  1  0.61273800  0.53293200  0.39680600  1
  O  O21  1  0.64643500  0.99140900  0.85041100  1
  O  O22  1  0.02362800  0.77398800  0.28429500  1
  O  O23  1  0.78256700  0.31371900  0.22110500  1
  O  O24  1  0.65197800  0.50873900  0.86890400  1
  O  O25  1  0.52362800  0.72601200  0.71570500  1
  O  O26  1  0.47637200  0.27398800  0.28429500  1
  O  O27  1  0.28256700  0.18628100  0.77889500  1
  O  O28  1  0.03350300  0.73938900  0.94765800  1
  O  O29  1  0.14643500  0.50859100  0.14958900  1
  O  O30  1  0.39938300  0.02887900  0.57590300  1
  O  O31  1  0.15197800  0.99126100  0.13109600  1
  O  O32  1  0.38726200  0.46706800  0.60319400  1
  O  O33  1  0.96649700  0.26061100  0.05234200  1
  O  O34  1  0.88726200  0.03293200  0.39680600  1
  O  O35  1  0.24283700  0.74668700  0.42194600  1
  O  O36  1  0.46649700  0.23938900  0.94765800  1
  O  O37  1  0.11273800  0.96706800  0.60319400  1
  O  O38  1  0.34802200  0.49126100  0.13109600  1
  O  O39  1  0.74283700  0.75331300  0.57805400  1
  O  O40  1  0.25716300  0.24668700  0.42194600  1
  O  O41  1  0.89938300  0.47112100  0.42409700  1
  O  O42  1  0.21743300  0.68628100  0.77889500  1
  O  O43  1  0.35356500  0.00859100  0.14958900  1
  O  O44  1  0.97637200  0.22601200  0.71570500  1
  O  O45  1  0.75716300  0.25331300  0.57805400  1
  O  O46  1  0.53350300  0.76061100  0.05234200  1
  O  O47  1  0.85356500  0.49140900  0.85041100  1
  O  O48  1  0.84802200  0.00873900  0.86890400  1
  O  O49  1  0.60061700  0.97112100  0.42409700  1
  O  O50  1  0.10061700  0.52887900  0.57590300  1
  O  O51  1  0.71743300  0.81371900  0.22110500  1
