# generated using pymatgen
data_CsS2N3O4
_symmetry_space_group_name_H-M   'P 1'
_cell_length_a   10.76201000
_cell_length_b   8.50711400
_cell_length_c   9.36247254
_cell_angle_alpha   70.31361796
_cell_angle_beta   90.00000000
_cell_angle_gamma   90.00000000
_symmetry_Int_Tables_number   1
_chemical_formula_structural   CsS2N3O4
_chemical_formula_sum   'Cs4 S8 N12 O16'
_cell_volume   807.06754494
_cell_formula_units_Z   4
loop_
 _symmetry_equiv_pos_site_id
 _symmetry_equiv_pos_as_xyz
  1  'x, y, z'
loop_
 _atom_site_type_symbol
 _atom_site_label
 _atom_site_symmetry_multiplicity
 _atom_site_fract_x
 _atom_site_fract_y
 _atom_site_fract_z
 _atom_site_occupancy
  Cs  Cs0  1  0.07687100  0.89890300  0.79565900  1
  Cs  Cs1  1  0.57687100  0.60109700  0.20434100  1
  Cs  Cs2  1  0.92312900  0.10109700  0.20434100  1
  Cs  Cs3  1  0.42312900  0.39890300  0.79565900  1
  S  S4  1  0.73455100  0.73272500  0.54947400  1
  S  S5  1  0.23455100  0.76727500  0.45052600  1
  S  S6  1  0.50582800  0.06623300  0.27543000  1
  S  S7  1  0.00582800  0.43376700  0.72457000  1
  S  S8  1  0.26544900  0.26727500  0.45052600  1
  S  S9  1  0.99417200  0.56623300  0.27543000  1
  S  S10  1  0.76544900  0.23272500  0.54947400  1
  S  S11  1  0.49417200  0.93376700  0.72457000  1
  N  N12  1  0.28206400  0.97932200  0.13613300  1
  N  N13  1  0.28142100  0.57195800  0.04551300  1
  N  N14  1  0.21793600  0.47932200  0.13613300  1
  N  N15  1  0.15031800  0.38597600  0.23069700  1
  N  N16  1  0.65031800  0.11402400  0.76930300  1
  N  N17  1  0.71857900  0.42804200  0.95448700  1
  N  N18  1  0.78206400  0.52067800  0.86386700  1
  N  N19  1  0.21857900  0.07195800  0.04551300  1
  N  N20  1  0.84968200  0.61402400  0.76930300  1
  N  N21  1  0.71793600  0.02067800  0.86386700  1
  N  N22  1  0.34968200  0.88597600  0.23069700  1
  N  N23  1  0.78142100  0.92804200  0.95448700  1
  O  O24  1  0.64364300  0.59941400  0.56355600  1
  O  O25  1  0.11355600  0.51232800  0.76878100  1
  O  O26  1  0.35635700  0.40058600  0.43644400  1
  O  O27  1  0.66635500  0.24439200  0.43883700  1
  O  O28  1  0.96448900  0.27657000  0.83744400  1
  O  O29  1  0.14364300  0.90058600  0.43644400  1
  O  O30  1  0.83364500  0.74439200  0.43883700  1
  O  O31  1  0.88644400  0.48767200  0.23121900  1
  O  O32  1  0.46448900  0.22343000  0.16255600  1
  O  O33  1  0.85635700  0.09941400  0.56355600  1
  O  O34  1  0.33364500  0.75560800  0.56116300  1
  O  O35  1  0.16635500  0.25560800  0.56116300  1
  O  O36  1  0.03551100  0.72343000  0.16255600  1
  O  O37  1  0.38644400  0.01232800  0.76878100  1
  O  O38  1  0.53551100  0.77657000  0.83744400  1
  O  O39  1  0.61355600  0.98767200  0.23121900  1
