# generated using pymatgen
data_ZnB2(NF2)4
_symmetry_space_group_name_H-M   'P 1'
_cell_length_a   12.50302400
_cell_length_b   7.30715500
_cell_length_c   12.44156700
_cell_angle_alpha   90.00000000
_cell_angle_beta   90.00000000
_cell_angle_gamma   90.00000000
_symmetry_Int_Tables_number   1
_chemical_formula_structural   ZnB2(NF2)4
_chemical_formula_sum   'Zn4 B8 N16 F32'
_cell_volume   1136.68065067
_cell_formula_units_Z   4
loop_
 _symmetry_equiv_pos_site_id
 _symmetry_equiv_pos_as_xyz
  1  'x, y, z'
loop_
 _atom_site_type_symbol
 _atom_site_label
 _atom_site_symmetry_multiplicity
 _atom_site_fract_x
 _atom_site_fract_y
 _atom_site_fract_z
 _atom_site_occupancy
  Zn  Zn0  1  0.20642800  0.25000000  0.08889900  1
  Zn  Zn1  1  0.70642800  0.25000000  0.41110100  1
  Zn  Zn2  1  0.79357200  0.75000000  0.91110100  1
  Zn  Zn3  1  0.29357200  0.75000000  0.58889900  1
  B  B4  1  0.81555800  0.25000000  0.08510800  1
  B  B5  1  0.31555800  0.25000000  0.41489200  1
  B  B6  1  0.18444200  0.75000000  0.91489200  1
  B  B7  1  0.68444200  0.75000000  0.58510800  1
  B  B8  1  0.03011500  0.25000000  0.68240200  1
  B  B9  1  0.53011500  0.25000000  0.81759800  1
  B  B10  1  0.96988500  0.75000000  0.31759800  1
  B  B11  1  0.46988500  0.75000000  0.18240200  1
  N  N12  1  0.05782100  0.25000000  0.02150700  1
  N  N13  1  0.55782100  0.25000000  0.47849300  1
  N  N14  1  0.94217900  0.75000000  0.97849300  1
  N  N15  1  0.44217900  0.75000000  0.52150700  1
  N  N16  1  0.29280200  0.25000000  0.94025200  1
  N  N17  1  0.79280200  0.25000000  0.55974800  1
  N  N18  1  0.70719800  0.75000000  0.05974800  1
  N  N19  1  0.20719800  0.75000000  0.44025200  1
  N  N20  1  0.25531700  0.02604000  0.16834100  1
  N  N21  1  0.75531700  0.47396000  0.33165900  1
  N  N22  1  0.74468300  0.52604000  0.83165900  1
  N  N23  1  0.24468300  0.97396000  0.66834100  1
  N  N24  1  0.74468300  0.97396000  0.83165900  1
  N  N25  1  0.24468300  0.52604000  0.66834100  1
  N  N26  1  0.25531700  0.47396000  0.16834100  1
  N  N27  1  0.75531700  0.02604000  0.33165900  1
  F  F28  1  0.86755900  0.25000000  0.98128200  1
  F  F29  1  0.36755900  0.25000000  0.51871800  1
  F  F30  1  0.13244100  0.75000000  0.01871800  1
  F  F31  1  0.63244100  0.75000000  0.48128200  1
  F  F32  1  0.70413500  0.25000000  0.06981600  1
  F  F33  1  0.20413500  0.25000000  0.43018400  1
  F  F34  1  0.29586500  0.75000000  0.93018400  1
  F  F35  1  0.79586500  0.75000000  0.56981600  1
  F  F36  1  0.84803000  0.09100400  0.14129800  1
  F  F37  1  0.34803000  0.40899600  0.35870200  1
  F  F38  1  0.15197000  0.59100400  0.85870200  1
  F  F39  1  0.65197000  0.90899600  0.64129800  1
  F  F40  1  0.15197000  0.90899600  0.85870200  1
  F  F41  1  0.65197000  0.59100400  0.64129800  1
  F  F42  1  0.84803000  0.40899600  0.14129800  1
  F  F43  1  0.34803000  0.09100400  0.35870200  1
  F  F44  1  0.78256300  0.25000000  0.66423700  1
  F  F45  1  0.28256300  0.25000000  0.83576300  1
  F  F46  1  0.21743700  0.75000000  0.33576300  1
  F  F47  1  0.71743700  0.75000000  0.16423700  1
  F  F48  1  0.03940000  0.25000000  0.78813700  1
  F  F49  1  0.53940000  0.25000000  0.71186300  1
  F  F50  1  0.96060000  0.75000000  0.21186300  1
  F  F51  1  0.46060000  0.75000000  0.28813700  1
  F  F52  1  0.02267300  0.40713300  0.62884900  1
  F  F53  1  0.52267300  0.09286800  0.87115100  1
  F  F54  1  0.97732700  0.90713300  0.37115100  1
  F  F55  1  0.47732700  0.59286700  0.12884900  1
  F  F56  1  0.97732700  0.59286700  0.37115100  1
  F  F57  1  0.47732700  0.90713300  0.12884900  1
  F  F58  1  0.02267300  0.09286800  0.62884900  1
  F  F59  1  0.52267300  0.40713300  0.87115100  1
