# generated using pymatgen
data_WXeOF6
_symmetry_space_group_name_H-M   'P 1'
_cell_length_a   10.41665100
_cell_length_b   5.59676300
_cell_length_c   12.68083857
_cell_angle_alpha   87.98957390
_cell_angle_beta   90.00000000
_cell_angle_gamma   90.00000000
_symmetry_Int_Tables_number   1
_chemical_formula_structural   WXeOF6
_chemical_formula_sum   'W4 Xe4 O4 F24'
_cell_volume   738.83182830
_cell_formula_units_Z   4
loop_
 _symmetry_equiv_pos_site_id
 _symmetry_equiv_pos_as_xyz
  1  'x, y, z'
loop_
 _atom_site_type_symbol
 _atom_site_label
 _atom_site_symmetry_multiplicity
 _atom_site_fract_x
 _atom_site_fract_y
 _atom_site_fract_z
 _atom_site_occupancy
  W  W0  1  0.00673600  0.39243700  0.77057600  1
  W  W1  1  0.99326400  0.60756300  0.22942400  1
  W  W2  1  0.50673600  0.60756300  0.72942400  1
  W  W3  1  0.49326400  0.39243700  0.27057600  1
  Xe  Xe4  1  0.75205400  0.01713500  0.97859900  1
  Xe  Xe5  1  0.25205400  0.98286500  0.52140100  1
  Xe  Xe6  1  0.24794600  0.98286500  0.02140100  1
  Xe  Xe7  1  0.74794600  0.01713500  0.47859900  1
  O  O8  1  0.91776900  0.47515900  0.33725300  1
  O  O9  1  0.08223100  0.52484100  0.66274700  1
  O  O10  1  0.58223100  0.47515900  0.83725300  1
  O  O11  1  0.41776900  0.52484100  0.16274700  1
  F  F12  1  0.39483300  0.17784400  0.96000100  1
  F  F13  1  0.41486900  0.78105700  0.58355000  1
  F  F14  1  0.38109600  0.48962400  0.37979000  1
  F  F15  1  0.90560100  0.90713500  0.22627800  1
  F  F16  1  0.60743400  0.64260500  0.30615600  1
  F  F17  1  0.63274400  0.23948500  0.20340600  1
  F  F18  1  0.88109600  0.51037600  0.12021000  1
  F  F19  1  0.91486900  0.21894300  0.91645000  1
  F  F20  1  0.58513100  0.21894300  0.41645000  1
  F  F21  1  0.36725600  0.76051500  0.79659400  1
  F  F22  1  0.60516700  0.82215600  0.03999900  1
  F  F23  1  0.09439900  0.09286500  0.77372200  1
  F  F24  1  0.08513100  0.78105700  0.08355000  1
  F  F25  1  0.13274400  0.76051500  0.29659400  1
  F  F26  1  0.86725600  0.23948500  0.70340600  1
  F  F27  1  0.11890400  0.48962400  0.87979000  1
  F  F28  1  0.10516700  0.17784400  0.46000100  1
  F  F29  1  0.10743400  0.35739500  0.19384400  1
  F  F30  1  0.61890400  0.51037600  0.62021000  1
  F  F31  1  0.59439900  0.90713500  0.72627800  1
  F  F32  1  0.89256600  0.64260500  0.80615600  1
  F  F33  1  0.39256600  0.35739500  0.69384400  1
  F  F34  1  0.40560100  0.09286500  0.27372200  1
  F  F35  1  0.89483300  0.82215600  0.53999900  1
