# generated using pymatgen
data_ZnBr2
_symmetry_space_group_name_H-M   'P 1'
_cell_length_a   21.56789668
_cell_length_b   8.61352970
_cell_length_c   10.99433567
_cell_angle_alpha   162.36349973
_cell_angle_beta   168.77314748
_cell_angle_gamma   13.69006074
_symmetry_Int_Tables_number   1
_chemical_formula_structural   ZnBr2
_chemical_formula_sum   'Zn1 Br2'
_cell_volume   94.11376573
_cell_formula_units_Z   1
loop_
 _symmetry_equiv_pos_site_id
 _symmetry_equiv_pos_as_xyz
  1  'x, y, z'
loop_
 _atom_site_type_symbol
 _atom_site_label
 _atom_site_symmetry_multiplicity
 _atom_site_fract_x
 _atom_site_fract_y
 _atom_site_fract_z
 _atom_site_occupancy
  Zn  Zn0  1  0.00000000  0.00000000  0.00000000  1
  Br  Br1  1  0.47501000  0.84158300  0.00000000  1
  Br  Br2  1  0.52499000  0.15841700  0.00000000  1
