# generated using pymatgen
data_AsSe3(NF3)2
_symmetry_space_group_name_H-M   'P 1'
_cell_length_a   8.49575600
_cell_length_b   10.63133676
_cell_length_c   10.73525251
_cell_angle_alpha   82.43479096
_cell_angle_beta   69.84719087
_cell_angle_gamma   82.39823959
_symmetry_Int_Tables_number   1
_chemical_formula_structural   AsSe3(NF3)2
_chemical_formula_sum   'As4 Se12 N8 F24'
_cell_volume   898.38981317
_cell_formula_units_Z   4
loop_
 _symmetry_equiv_pos_site_id
 _symmetry_equiv_pos_as_xyz
  1  'x, y, z'
loop_
 _atom_site_type_symbol
 _atom_site_label
 _atom_site_symmetry_multiplicity
 _atom_site_fract_x
 _atom_site_fract_y
 _atom_site_fract_z
 _atom_site_occupancy
  As  As0  1  0.20603000  0.67591100  0.62633000  1
  As  As1  1  0.79187500  0.14566700  0.86319200  1
  As  As2  1  0.79397000  0.32408900  0.37367000  1
  As  As3  1  0.20812500  0.85433300  0.13680800  1
  Se  Se4  1  0.66391100  0.99670600  0.31439800  1
  Se  Se5  1  0.71017300  0.92142700  0.52871300  1
  Se  Se6  1  0.72741100  0.47880600  0.01591100  1
  Se  Se7  1  0.35545800  0.43345100  0.17997400  1
  Se  Se8  1  0.33608900  0.00329400  0.68560200  1
  Se  Se9  1  0.70702600  0.70532700  0.36654000  1
  Se  Se10  1  0.27258900  0.52119400  0.98408900  1
  Se  Se11  1  0.27022100  0.22994300  0.04062400  1
  Se  Se12  1  0.28982700  0.07857300  0.47128700  1
  Se  Se13  1  0.72977900  0.77005700  0.95937600  1
  Se  Se14  1  0.29297400  0.29467300  0.63346000  1
  Se  Se15  1  0.64454200  0.56654900  0.82002600  1
  N  N16  1  0.27179500  0.24249300  0.49284400  1
  N  N17  1  0.76438500  0.62733800  0.05260100  1
  N  N18  1  0.32069700  0.15725100  0.73622100  1
  N  N19  1  0.67930300  0.84274900  0.26377900  1
  N  N20  1  0.32815700  0.27369800  0.16931900  1
  N  N21  1  0.23561500  0.37266200  0.94739900  1
  N  N22  1  0.72820500  0.75750700  0.50715600  1
  N  N23  1  0.67184300  0.72630200  0.83068100  1
  F  F24  1  0.23913700  0.60284800  0.48040500  1
  F  F25  1  0.03099900  0.77405500  0.60669100  1
  F  F26  1  0.91046300  0.20192900  0.70044700  1
  F  F27  1  0.08953700  0.79807100  0.29955300  1
  F  F28  1  0.92488200  0.44318200  0.27569700  1
  F  F29  1  0.65984500  0.20166200  0.46880600  1
  F  F30  1  0.07511800  0.55681800  0.72430300  1
  F  F31  1  0.07115000  0.99595600  0.14561300  1
  F  F32  1  0.33758500  0.92754100  0.19958200  1
  F  F33  1  0.08442200  0.77744200  0.07192500  1
  F  F34  1  0.66241500  0.07245900  0.80041800  1
  F  F35  1  0.35078600  0.70957600  0.12388000  1
  F  F36  1  0.96900100  0.22594500  0.39330900  1
  F  F37  1  0.34015500  0.79833800  0.53119400  1
  F  F38  1  0.76086300  0.39715200  0.51959500  1
  F  F39  1  0.61291600  0.41871000  0.35309500  1
  F  F40  1  0.64921400  0.29042400  0.87612000  1
  F  F41  1  0.66739200  0.09272100  0.02764200  1
  F  F42  1  0.38708400  0.58129000  0.64690500  1
  F  F43  1  0.33260800  0.90727900  0.97235800  1
  F  F44  1  0.91557800  0.22255800  0.92807500  1
  F  F45  1  0.92885000  0.00404400  0.85438700  1
  F  F46  1  0.18202900  0.74665400  0.77360600  1
  F  F47  1  0.81797100  0.25334600  0.22639400  1
