# generated using pymatgen
data_Y4AlSi2(O2F)5
_symmetry_space_group_name_H-M   'P 1'
_cell_length_a   8.76440869
_cell_length_b   8.76440869
_cell_length_c   4.31497075
_cell_angle_alpha   81.80414010
_cell_angle_beta   81.80414010
_cell_angle_gamma   118.23352556
_symmetry_Int_Tables_number   1
_chemical_formula_structural   Y4AlSi2(O2F)5
_chemical_formula_sum   'Y4 Al1 Si2 O10 F5'
_cell_volume   280.53122691
_cell_formula_units_Z   1
loop_
 _symmetry_equiv_pos_site_id
 _symmetry_equiv_pos_as_xyz
  1  'x, y, z'
loop_
 _atom_site_type_symbol
 _atom_site_label
 _atom_site_symmetry_multiplicity
 _atom_site_fract_x
 _atom_site_fract_y
 _atom_site_fract_z
 _atom_site_occupancy
  Y  Y0  1  0.15650900  0.44549600  0.88094800  1
  Y  Y1  1  0.54201800  0.80431400  0.17839400  1
  Y  Y2  1  0.80431400  0.54201800  0.17839400  1
  Y  Y3  1  0.44549600  0.15650900  0.88094800  1
  Al  Al4  1  0.99723400  0.99723400  0.00662400  1
  Si  Si5  1  0.14526200  0.83380300  0.51671400  1
  Si  Si6  1  0.83380300  0.14526200  0.51671400  1
  O  O7  1  0.80718800  0.80718800  0.89879900  1
  O  O8  1  0.64404400  0.06462000  0.77822900  1
  O  O9  1  0.20526800  0.20526800  0.05890300  1
  O  O10  1  0.33735000  0.90031700  0.26831200  1
  O  O11  1  0.18121000  0.99317900  0.70992100  1
  O  O12  1  0.99317900  0.18121000  0.70992100  1
  O  O13  1  0.90031700  0.33735000  0.26831200  1
  O  O14  1  0.99352900  0.81077900  0.30976600  1
  O  O15  1  0.81077900  0.99352900  0.30976600  1
  O  O16  1  0.06462000  0.64404400  0.77822900  1
  F  F17  1  0.70240900  0.43223500  0.74123600  1
  F  F18  1  0.43223500  0.70240900  0.74123600  1
  F  F19  1  0.25462100  0.53564100  0.32857800  1
  F  F20  1  0.53564100  0.25462100  0.32857800  1
  F  F21  1  0.56952100  0.56952100  0.34622700  1
