# generated using pymatgen
data_SrCrF4
_symmetry_space_group_name_H-M   'P 1'
_cell_length_a   5.71072400
_cell_length_b   5.72438300
_cell_length_c   6.90956985
_cell_angle_alpha   65.52880139
_cell_angle_beta   65.59100266
_cell_angle_gamma   90.00000000
_symmetry_Int_Tables_number   1
_chemical_formula_structural   SrCrF4
_chemical_formula_sum   'Sr2 Cr2 F8'
_cell_volume   183.17382721
_cell_formula_units_Z   2
loop_
 _symmetry_equiv_pos_site_id
 _symmetry_equiv_pos_as_xyz
  1  'x, y, z'
loop_
 _atom_site_type_symbol
 _atom_site_label
 _atom_site_symmetry_multiplicity
 _atom_site_fract_x
 _atom_site_fract_y
 _atom_site_fract_z
 _atom_site_occupancy
  Sr  Sr0  1  0.50000000  0.00000000  0.00000000  1
  Sr  Sr1  1  0.00000000  0.50000000  0.00000000  1
  Cr  Cr2  1  0.75000000  0.75000000  0.50000000  1
  Cr  Cr3  1  0.25000000  0.25000000  0.50000000  1
  F  F4  1  0.31567800  0.93913900  0.74407300  1
  F  F5  1  0.81567800  0.81678800  0.74407300  1
  F  F6  1  0.18432200  0.18321200  0.25592700  1
  F  F7  1  0.55975100  0.56086100  0.25592700  1
  F  F8  1  0.05975100  0.68321200  0.25592700  1
  F  F9  1  0.94024900  0.31678800  0.74407300  1
  F  F10  1  0.44024900  0.43913900  0.74407300  1
  F  F11  1  0.68432200  0.06086100  0.25592700  1
