# generated using pymatgen
data_Sn5(W4O11)2
_symmetry_space_group_name_H-M   'P 1'
_cell_length_a   7.90514441
_cell_length_b   7.90514441
_cell_length_c   18.98279500
_cell_angle_alpha   90.00000000
_cell_angle_beta   90.00000000
_cell_angle_gamma   120.00000345
_symmetry_Int_Tables_number   1
_chemical_formula_structural   Sn5(W4O11)2
_chemical_formula_sum   'Sn10 W16 O44'
_cell_volume   1027.33099333
_cell_formula_units_Z   2
loop_
 _symmetry_equiv_pos_site_id
 _symmetry_equiv_pos_as_xyz
  1  'x, y, z'
loop_
 _atom_site_type_symbol
 _atom_site_label
 _atom_site_symmetry_multiplicity
 _atom_site_fract_x
 _atom_site_fract_y
 _atom_site_fract_z
 _atom_site_occupancy
  Sn  Sn0  1  0.66666700  0.33333300  0.93300700  1
  Sn  Sn1  1  0.66666700  0.33333300  0.56699300  1
  Sn  Sn2  1  0.30771700  0.11329300  0.75000000  1
  Sn  Sn3  1  0.69228300  0.88670700  0.25000000  1
  Sn  Sn4  1  0.33333300  0.66666700  0.43300700  1
  Sn  Sn5  1  0.88670700  0.19442400  0.75000000  1
  Sn  Sn6  1  0.19442400  0.30771700  0.25000000  1
  Sn  Sn7  1  0.33333300  0.66666700  0.06699300  1
  Sn  Sn8  1  0.80557600  0.69228300  0.75000000  1
  Sn  Sn9  1  0.11329300  0.80557600  0.25000000  1
  W  W10  1  0.94375300  0.16667700  0.43977500  1
  W  W11  1  0.33333300  0.66666700  0.67082500  1
  W  W12  1  0.77707700  0.94375300  0.56022500  1
  W  W13  1  0.05624700  0.83332300  0.56022500  1
  W  W14  1  0.66666700  0.33333300  0.32917500  1
  W  W15  1  0.94375300  0.16667700  0.06022500  1
  W  W16  1  0.83332300  0.77707700  0.43977500  1
  W  W17  1  0.05624700  0.83332300  0.93977500  1
  W  W18  1  0.77707700  0.94375300  0.93977500  1
  W  W19  1  0.22292300  0.05624700  0.06022500  1
  W  W20  1  0.66666700  0.33333300  0.17082500  1
  W  W21  1  0.33333300  0.66666700  0.82917500  1
  W  W22  1  0.22292300  0.05624700  0.43977500  1
  W  W23  1  0.16667700  0.22292300  0.56022500  1
  W  W24  1  0.83332300  0.77707700  0.06022500  1
  W  W25  1  0.16667700  0.22292300  0.93977500  1
  O  O26  1  0.23500400  0.05846600  0.62298400  1
  O  O27  1  0.76499600  0.94153400  0.12298400  1
  O  O28  1  0.53683300  0.87569100  0.87558200  1
  O  O29  1  0.05846600  0.82346200  0.37701600  1
  O  O30  1  0.12430900  0.66114200  0.62441800  1
  O  O31  1  0.69588600  0.16500700  0.25000000  1
  O  O32  1  0.82346200  0.76499600  0.87701600  1
  O  O33  1  0.13247400  0.41266100  0.00306800  1
  O  O34  1  0.30411400  0.83499300  0.75000000  1
  O  O35  1  0.00000000  0.00000000  0.25000000  1
  O  O36  1  0.66114200  0.53683300  0.37558200  1
  O  O37  1  0.86752600  0.58733900  0.50306800  1
  O  O38  1  0.83499300  0.53087800  0.25000000  1
  O  O39  1  0.17653800  0.23500400  0.12298400  1
  O  O40  1  0.58733900  0.71981300  0.00306800  1
  O  O41  1  0.41266100  0.28018700  0.50306800  1
  O  O42  1  0.58733900  0.71981300  0.49693200  1
  O  O43  1  0.71981300  0.13247400  0.99693200  1
  O  O44  1  0.33885800  0.46316700  0.87558200  1
  O  O45  1  0.46912200  0.30411400  0.25000000  1
  O  O46  1  0.71981300  0.13247400  0.50306800  1
  O  O47  1  0.13247400  0.41266100  0.49693200  1
  O  O48  1  0.17653800  0.23500400  0.37701600  1
  O  O49  1  0.33885800  0.46316700  0.62441800  1
  O  O50  1  0.28018700  0.86752600  0.49693200  1
  O  O51  1  0.76499600  0.94153400  0.37701600  1
  O  O52  1  0.46316700  0.12430900  0.37558200  1
  O  O53  1  0.41266100  0.28018700  0.99693200  1
  O  O54  1  0.16500700  0.46912200  0.75000000  1
  O  O55  1  0.23500400  0.05846600  0.87701600  1
  O  O56  1  0.94153400  0.17653800  0.87701600  1
  O  O57  1  0.05846600  0.82346200  0.12298400  1
  O  O58  1  0.82346200  0.76499600  0.62298400  1
  O  O59  1  0.86752600  0.58733900  0.99693200  1
  O  O60  1  0.87569100  0.33885800  0.37558200  1
  O  O61  1  0.94153400  0.17653800  0.62298400  1
  O  O62  1  0.28018700  0.86752600  0.00306800  1
  O  O63  1  0.46316700  0.12430900  0.12441800  1
  O  O64  1  0.12430900  0.66114200  0.87558200  1
  O  O65  1  0.87569100  0.33885800  0.12441800  1
  O  O66  1  0.53683300  0.87569100  0.62441800  1
  O  O67  1  0.66114200  0.53683300  0.12441800  1
  O  O68  1  0.00000000  0.00000000  0.75000000  1
  O  O69  1  0.53087800  0.69588600  0.75000000  1
