# generated using pymatgen
data_Yb4Si7
_symmetry_space_group_name_H-M   'P 1'
_cell_length_a   8.44153800
_cell_length_b   6.71728900
_cell_length_c   8.38800100
_cell_angle_alpha   81.22209957
_cell_angle_beta   90.00000000
_cell_angle_gamma   90.00000000
_symmetry_Int_Tables_number   1
_chemical_formula_structural   Yb4Si7
_chemical_formula_sum   'Yb8 Si14'
_cell_volume   470.06434286
_cell_formula_units_Z   2
loop_
 _symmetry_equiv_pos_site_id
 _symmetry_equiv_pos_as_xyz
  1  'x, y, z'
loop_
 _atom_site_type_symbol
 _atom_site_label
 _atom_site_symmetry_multiplicity
 _atom_site_fract_x
 _atom_site_fract_y
 _atom_site_fract_z
 _atom_site_occupancy
  Yb  Yb0  1  0.00076900  0.13009900  0.31098700  1
  Yb  Yb1  1  0.00105300  0.29953900  0.84014000  1
  Yb  Yb2  1  0.99894700  0.70046100  0.15986000  1
  Yb  Yb3  1  0.99923100  0.86990100  0.68901300  1
  Yb  Yb4  1  0.49923100  0.13009900  0.31098700  1
  Yb  Yb5  1  0.49894700  0.29953900  0.84014000  1
  Yb  Yb6  1  0.50105300  0.70046100  0.15986000  1
  Yb  Yb7  1  0.50076900  0.86990100  0.68901300  1
  Si  Si8  1  0.75000000  0.54515900  0.65049600  1
  Si  Si9  1  0.25000000  0.20715100  0.58204200  1
  Si  Si10  1  0.25000000  0.45484100  0.34950400  1
  Si  Si11  1  0.75000000  0.34699000  0.08848600  1
  Si  Si12  1  0.25000000  0.35242700  0.09413900  1
  Si  Si13  1  0.75000000  0.64757300  0.90586100  1
  Si  Si14  1  0.25000000  0.65301000  0.91151400  1
  Si  Si15  1  0.75000000  0.79284900  0.41795800  1
  Si  Si16  1  0.25000000  0.54914500  0.65585200  1
  Si  Si17  1  0.75000000  0.45085500  0.34414800  1
  Si  Si18  1  0.75000000  0.20481600  0.57851400  1
  Si  Si19  1  0.75000000  0.99399700  0.99143600  1
  Si  Si20  1  0.25000000  0.00600300  0.00856400  1
  Si  Si21  1  0.25000000  0.79518400  0.42148600  1
