# generated using pymatgen
data_Lu(PO3)3
_symmetry_space_group_name_H-M   'P 1'
_cell_length_a   7.84706482
_cell_length_b   7.84706482
_cell_length_c   10.08518743
_cell_angle_alpha   57.05779798
_cell_angle_beta   57.05779798
_cell_angle_gamma   51.00529906
_symmetry_Int_Tables_number   1
_chemical_formula_structural   Lu(PO3)3
_chemical_formula_sum   'Lu2 P6 O18'
_cell_volume   385.21436803
_cell_formula_units_Z   2
loop_
 _symmetry_equiv_pos_site_id
 _symmetry_equiv_pos_as_xyz
  1  'x, y, z'
loop_
 _atom_site_type_symbol
 _atom_site_label
 _atom_site_symmetry_multiplicity
 _atom_site_fract_x
 _atom_site_fract_y
 _atom_site_fract_z
 _atom_site_occupancy
  Lu  Lu0  1  0.60976400  0.13687200  0.35394300  1
  Lu  Lu1  1  0.13687200  0.60976400  0.85394300  1
  P  P2  1  0.55470900  0.70772800  0.08270200  1
  P  P3  1  0.11087800  0.92782400  0.02234800  1
  P  P4  1  0.92782400  0.11087800  0.52234800  1
  P  P5  1  0.12114900  0.31935400  0.69194800  1
  P  P6  1  0.70772800  0.55470900  0.58270200  1
  P  P7  1  0.31935400  0.12114900  0.19194800  1
  O  O8  1  0.95672000  0.99658500  0.17780400  1
  O  O9  1  0.37147000  0.85912800  0.98393000  1
  O  O10  1  0.87670200  0.49856900  0.65969000  1
  O  O11  1  0.15319300  0.04275500  0.36910800  1
  O  O12  1  0.78579900  0.66394300  0.95440800  1
  O  O13  1  0.99658500  0.95672000  0.67780400  1
  O  O14  1  0.11178700  0.74727900  0.00733800  1
  O  O15  1  0.74727900  0.11178700  0.50733800  1
  O  O16  1  0.52274700  0.50486900  0.22143200  1
  O  O17  1  0.49856900  0.87670200  0.15969000  1
  O  O18  1  0.85912800  0.37147000  0.48393000  1
  O  O19  1  0.28941300  0.19623800  0.56365700  1
  O  O20  1  0.18978200  0.44414400  0.70959200  1
  O  O21  1  0.66394300  0.78579900  0.45440800  1
  O  O22  1  0.50486900  0.52274700  0.72143200  1
  O  O23  1  0.04275500  0.15319300  0.86910800  1
  O  O24  1  0.44414400  0.18978200  0.20959200  1
  O  O25  1  0.19623800  0.28941300  0.06365700  1
