# generated using pymatgen
data_SiO2
_symmetry_space_group_name_H-M   'P 1'
_cell_length_a   5.43467016
_cell_length_b   5.43467016
_cell_length_c   6.82387031
_cell_angle_alpha   73.16645838
_cell_angle_beta   73.16645838
_cell_angle_gamma   99.16599207
_symmetry_Int_Tables_number   1
_chemical_formula_structural   SiO2
_chemical_formula_sum   'Si4 O8'
_cell_volume   178.02231624
_cell_formula_units_Z   4
loop_
 _symmetry_equiv_pos_site_id
 _symmetry_equiv_pos_as_xyz
  1  'x, y, z'
loop_
 _atom_site_type_symbol
 _atom_site_label
 _atom_site_symmetry_multiplicity
 _atom_site_fract_x
 _atom_site_fract_y
 _atom_site_fract_z
 _atom_site_occupancy
  Si  Si0  1  0.20330000  0.20609000  0.77956100  1
  Si  Si1  1  0.79006000  0.42528600  0.62906200  1
  Si  Si2  1  0.57471400  0.20994000  0.37093800  1
  Si  Si3  1  0.79391000  0.79670000  0.22043900  1
  O  O4  1  0.60486700  0.00279200  0.24092100  1
  O  O5  1  0.87982900  0.72037200  0.43767900  1
  O  O6  1  0.27962800  0.12017100  0.56232100  1
  O  O7  1  0.05685300  0.94314700  0.00000000  1
  O  O8  1  0.47870100  0.36702200  0.79220100  1
  O  O9  1  0.63297800  0.52129900  0.20779900  1
  O  O10  1  0.78820300  0.21179700  0.50000000  1
  O  O11  1  0.99720800  0.39513300  0.75907900  1
