# generated using pymatgen
data_NaSbS2
_symmetry_space_group_name_H-M   'P 1'
_cell_length_a   7.01485616
_cell_length_b   7.01485616
_cell_length_c   5.94227761
_cell_angle_alpha   66.50738084
_cell_angle_beta   66.50738084
_cell_angle_gamma   46.94472574
_symmetry_Int_Tables_number   1
_chemical_formula_structural   NaSbS2
_chemical_formula_sum   'Na2 Sb2 S4'
_cell_volume   192.42962671
_cell_formula_units_Z   2
loop_
 _symmetry_equiv_pos_site_id
 _symmetry_equiv_pos_as_xyz
  1  'x, y, z'
loop_
 _atom_site_type_symbol
 _atom_site_label
 _atom_site_symmetry_multiplicity
 _atom_site_fract_x
 _atom_site_fract_y
 _atom_site_fract_z
 _atom_site_occupancy
  Na  Na0  1  0.62632800  0.62632800  0.13544400  1
  Na  Na1  1  0.37367200  0.37367200  0.86455600  1
  Sb  Sb2  1  0.86862600  0.86862600  0.41056000  1
  Sb  Sb3  1  0.13137400  0.13137400  0.58944000  1
  S  S4  1  0.11829900  0.11829900  0.19012400  1
  S  S5  1  0.63734300  0.63734300  0.63244600  1
  S  S6  1  0.88170100  0.88170100  0.80987600  1
  S  S7  1  0.36265700  0.36265700  0.36755400  1
