# generated using pymatgen
data_YH16C4N9O16
_symmetry_space_group_name_H-M   'P 1'
_cell_length_a   11.23744496
_cell_length_b   11.23744496
_cell_length_c   6.51862298
_cell_angle_alpha   85.38678283
_cell_angle_beta   85.38678283
_cell_angle_gamma   142.55075275
_symmetry_Int_Tables_number   1
_chemical_formula_structural   YH16C4N9O16
_chemical_formula_sum   'Y1 H16 C4 N9 O16'
_cell_volume   484.57296254
_cell_formula_units_Z   1
loop_
 _symmetry_equiv_pos_site_id
 _symmetry_equiv_pos_as_xyz
  1  'x, y, z'
loop_
 _atom_site_type_symbol
 _atom_site_label
 _atom_site_symmetry_multiplicity
 _atom_site_fract_x
 _atom_site_fract_y
 _atom_site_fract_z
 _atom_site_occupancy
  Y  Y0  1  0.99029600  0.99029600  0.01661000  1
  H  H1  1  0.75074800  0.57184300  0.01725500  1
  H  H2  1  0.57184300  0.75074800  0.01725500  1
  H  H3  1  0.00211100  0.22133500  0.26030900  1
  H  H4  1  0.22133500  0.00211100  0.26030900  1
  H  H5  1  0.18679000  0.38321000  0.04687900  1
  H  H6  1  0.38321000  0.18679000  0.04687900  1
  H  H7  1  0.69130400  0.35526800  0.83941500  1
  H  H8  1  0.35526800  0.69130400  0.83941500  1
  H  H9  1  0.59354700  0.38742900  0.73960500  1
  H  H10  1  0.38742900  0.59354700  0.73960500  1
  H  H11  1  0.69710000  0.56966600  0.25277900  1
  H  H12  1  0.56966600  0.69710000  0.25277900  1
  H  H13  1  0.87892400  0.94952600  0.49035300  1
  H  H14  1  0.94952600  0.87892400  0.49035300  1
  H  H15  1  0.85319200  0.19441100  0.97614900  1
  H  H16  1  0.19441100  0.85319200  0.97614900  1
  C  C17  1  0.88686000  0.13742400  0.68115700  1
  C  C18  1  0.13742400  0.88686000  0.68115700  1
  C  C19  1  0.82646000  0.25317400  0.52671300  1
  C  C20  1  0.25317400  0.82646000  0.52671300  1
  N  N21  1  0.84991000  0.19710400  0.81982600  1
  N  N22  1  0.19710400  0.84991000  0.81982600  1
  N  N23  1  0.80994900  0.26995100  0.72279300  1
  N  N24  1  0.26995100  0.80994900  0.72279300  1
  N  N25  1  0.87410600  0.17698600  0.48843600  1
  N  N26  1  0.17698600  0.87410600  0.48843600  1
  N  N27  1  0.78883200  0.31066700  0.36785600  1
  N  N28  1  0.31066700  0.78883200  0.36785600  1
  N  N29  1  0.40752200  0.40752200  0.60763500  1
  O  O30  1  0.92133400  0.05544700  0.72653800  1
  O  O31  1  0.05544700  0.92133400  0.72653800  1
  O  O32  1  0.73708200  0.37023800  0.42157200  1
  O  O33  1  0.37023800  0.73708200  0.42157200  1
  O  O34  1  0.80908800  0.29537300  0.18447200  1
  O  O35  1  0.29537300  0.80908800  0.18447200  1
  O  O36  1  0.50605600  0.40224700  0.51513000  1
  O  O37  1  0.40224700  0.50605600  0.51513000  1
  O  O38  1  0.79875200  0.65881800  0.11680400  1
  O  O39  1  0.65881800  0.79875200  0.11680400  1
  O  O40  1  0.31680500  0.31680500  0.80223500  1
  O  O41  1  0.88383900  0.88383900  0.40566100  1
  O  O42  1  0.07257200  0.23992000  0.12711300  1
  O  O43  1  0.23992000  0.07257200  0.12711300  1
  O  O44  1  0.62841800  0.38255900  0.87167700  1
  O  O45  1  0.38255900  0.62841800  0.87167700  1
