# generated using pymatgen
data_Na4Zr2(GeO4)3
_symmetry_space_group_name_H-M   'P 1'
_cell_length_a   9.38760205
_cell_length_b   9.38760205
_cell_length_c   9.38760141
_cell_angle_alpha   61.54124627
_cell_angle_beta   61.54124627
_cell_angle_gamma   61.54125142
_symmetry_Int_Tables_number   1
_chemical_formula_structural   Na4Zr2(GeO4)3
_chemical_formula_sum   'Na8 Zr4 Ge6 O24'
_cell_volume   605.22383710
_cell_formula_units_Z   2
loop_
 _symmetry_equiv_pos_site_id
 _symmetry_equiv_pos_as_xyz
  1  'x, y, z'
loop_
 _atom_site_type_symbol
 _atom_site_label
 _atom_site_symmetry_multiplicity
 _atom_site_fract_x
 _atom_site_fract_y
 _atom_site_fract_z
 _atom_site_occupancy
  Na  Na0  1  0.24982800  0.63139600  0.87547300  1
  Na  Na1  1  0.75017200  0.36860400  0.12452700  1
  Na  Na2  1  0.12452700  0.75017200  0.36860400  1
  Na  Na3  1  0.63139600  0.87547300  0.24982800  1
  Na  Na4  1  0.00000000  0.00000000  0.00000000  1
  Na  Na5  1  0.36860400  0.12452700  0.75017200  1
  Na  Na6  1  0.87547300  0.24982800  0.63139600  1
  Na  Na7  1  0.50000000  0.50000000  0.50000000  1
  Zr  Zr8  1  0.14424400  0.14424400  0.14424400  1
  Zr  Zr9  1  0.35554500  0.35554500  0.35554500  1
  Zr  Zr10  1  0.85575600  0.85575600  0.85575600  1
  Zr  Zr11  1  0.64445500  0.64445500  0.64445500  1
  Ge  Ge12  1  0.95490200  0.54461900  0.24964400  1
  Ge  Ge13  1  0.75035600  0.04509800  0.45538100  1
  Ge  Ge14  1  0.24964400  0.95490200  0.54461900  1
  Ge  Ge15  1  0.04509800  0.45538100  0.75035600  1
  Ge  Ge16  1  0.45538100  0.75035600  0.04509800  1
  Ge  Ge17  1  0.54461900  0.24964400  0.95490200  1
  O  O18  1  0.99131000  0.36938300  0.19861100  1
  O  O19  1  0.36938300  0.19861100  0.99131000  1
  O  O20  1  0.80138900  0.00869000  0.63061700  1
  O  O21  1  0.76404400  0.55555600  0.42590300  1
  O  O22  1  0.74220200  0.08198500  0.93242500  1
  O  O23  1  0.57409700  0.23595600  0.44444400  1
  O  O24  1  0.93242500  0.74220200  0.08198500  1
  O  O25  1  0.48869800  0.70871600  0.86473800  1
  O  O26  1  0.44444400  0.57409700  0.23595600  1
  O  O27  1  0.29128500  0.13526200  0.51130200  1
  O  O28  1  0.25779800  0.91801500  0.06757500  1
  O  O29  1  0.91801500  0.06757500  0.25779800  1
  O  O30  1  0.51130200  0.29128500  0.13526200  1
  O  O31  1  0.63061700  0.80138900  0.00869000  1
  O  O32  1  0.86473800  0.48869800  0.70871500  1
  O  O33  1  0.08198500  0.93242500  0.74220200  1
  O  O34  1  0.06757500  0.25779800  0.91801500  1
  O  O35  1  0.00869000  0.63061700  0.80138900  1
  O  O36  1  0.19861100  0.99131000  0.36938300  1
  O  O37  1  0.13526200  0.51130200  0.29128500  1
  O  O38  1  0.42590300  0.76404400  0.55555600  1
  O  O39  1  0.55555600  0.42590300  0.76404400  1
  O  O40  1  0.70871600  0.86473800  0.48869800  1
  O  O41  1  0.23595600  0.44444400  0.57409700  1
