# generated using pymatgen
data_KBi6ClO9
_symmetry_space_group_name_H-M   'P 1'
_cell_length_a   15.09720782
_cell_length_b   15.09720782
_cell_length_c   15.09720782
_cell_angle_alpha   109.47122063
_cell_angle_beta   109.47122063
_cell_angle_gamma   109.47122063
_symmetry_Int_Tables_number   1
_chemical_formula_structural   KBi6ClO9
_chemical_formula_sum   'K8 Bi48 Cl8 O72'
_cell_volume   2648.91491985
_cell_formula_units_Z   8
loop_
 _symmetry_equiv_pos_site_id
 _symmetry_equiv_pos_as_xyz
  1  'x, y, z'
loop_
 _atom_site_type_symbol
 _atom_site_label
 _atom_site_symmetry_multiplicity
 _atom_site_fract_x
 _atom_site_fract_y
 _atom_site_fract_z
 _atom_site_occupancy
  K  K0  1  0.00000000  0.50000000  0.00000000  1
  K  K1  1  0.50000000  0.00000000  0.50000000  1
  K  K2  1  0.50000000  0.50000000  0.50000000  1
  K  K3  1  0.00000000  0.00000000  0.00000000  1
  K  K4  1  0.00000000  0.50000000  0.50000000  1
  K  K5  1  0.50000000  0.50000000  0.00000000  1
  K  K6  1  0.00000000  0.00000000  0.50000000  1
  K  K7  1  0.50000000  0.00000000  0.00000000  1
  Bi  Bi8  1  0.48605900  0.75000000  0.23605900  1
  Bi  Bi9  1  0.75000000  0.51394100  0.76394100  1
  Bi  Bi10  1  0.51394100  0.76394100  0.75000000  1
  Bi  Bi11  1  0.23605900  0.25000000  0.48605900  1
  Bi  Bi12  1  0.26907300  0.53814500  0.51907300  1
  Bi  Bi13  1  0.75000000  0.98092700  0.51907300  1
  Bi  Bi14  1  0.25000000  0.76394100  0.51394100  1
  Bi  Bi15  1  0.03814500  0.76907300  0.01907300  1
  Bi  Bi16  1  0.23605900  0.48605900  0.75000000  1
  Bi  Bi17  1  0.98605900  0.75000000  0.73605900  1
  Bi  Bi18  1  0.96185500  0.23092700  0.98092700  1
  Bi  Bi19  1  0.51907300  0.75000000  0.98092700  1
  Bi  Bi20  1  0.98092700  0.51907300  0.75000000  1
  Bi  Bi21  1  0.01394100  0.26394100  0.75000000  1
  Bi  Bi22  1  0.46185500  0.48092700  0.73092700  1
  Bi  Bi23  1  0.76907300  0.25000000  0.73092700  1
  Bi  Bi24  1  0.01907300  0.03814500  0.76907300  1
  Bi  Bi25  1  0.75000000  0.26907300  0.23092700  1
  Bi  Bi26  1  0.75000000  0.01394100  0.26394100  1
  Bi  Bi27  1  0.98092700  0.96185500  0.23092700  1
  Bi  Bi28  1  0.25000000  0.48605900  0.23605900  1
  Bi  Bi29  1  0.73092700  0.76907300  0.25000000  1
  Bi  Bi30  1  0.01907300  0.48092700  0.25000000  1
  Bi  Bi31  1  0.25000000  0.01907300  0.48092700  1
  Bi  Bi32  1  0.51907300  0.26907300  0.53814500  1
  Bi  Bi33  1  0.01394100  0.25000000  0.26394100  1
  Bi  Bi34  1  0.48092700  0.73092700  0.46185500  1
  Bi  Bi35  1  0.26907300  0.23092700  0.75000000  1
  Bi  Bi36  1  0.51394100  0.25000000  0.76394100  1
  Bi  Bi37  1  0.76394100  0.75000000  0.51394100  1
  Bi  Bi38  1  0.48092700  0.25000000  0.01907300  1
  Bi  Bi39  1  0.26394100  0.01394100  0.25000000  1
  Bi  Bi40  1  0.73605900  0.98605900  0.75000000  1
  Bi  Bi41  1  0.23092700  0.98092700  0.96185500  1
  Bi  Bi42  1  0.76907300  0.01907300  0.03814500  1
  Bi  Bi43  1  0.98605900  0.73605900  0.25000000  1
  Bi  Bi44  1  0.53814500  0.51907300  0.26907300  1
  Bi  Bi45  1  0.75000000  0.73605900  0.98605900  1
  Bi  Bi46  1  0.26394100  0.75000000  0.01394100  1
  Bi  Bi47  1  0.76394100  0.51394100  0.25000000  1
  Bi  Bi48  1  0.25000000  0.73092700  0.76907300  1
  Bi  Bi49  1  0.73605900  0.25000000  0.98605900  1
  Bi  Bi50  1  0.23092700  0.75000000  0.26907300  1
  Bi  Bi51  1  0.73092700  0.46185500  0.48092700  1
  Bi  Bi52  1  0.48605900  0.23605900  0.25000000  1
  Bi  Bi53  1  0.25000000  0.98605900  0.73605900  1
  Bi  Bi54  1  0.75000000  0.23605900  0.48605900  1
  Bi  Bi55  1  0.25000000  0.26394100  0.01394100  1
  Cl  Cl56  1  0.25000000  0.25000000  0.25000000  1
  Cl  Cl57  1  0.50000000  0.00000000  0.25000000  1
  Cl  Cl58  1  0.00000000  0.25000000  0.50000000  1
  Cl  Cl59  1  0.75000000  0.75000000  0.75000000  1
  Cl  Cl60  1  0.75000000  0.50000000  0.00000000  1
  Cl  Cl61  1  0.00000000  0.75000000  0.50000000  1
  Cl  Cl62  1  0.25000000  0.50000000  0.00000000  1
  Cl  Cl63  1  0.50000000  0.00000000  0.75000000  1
  O  O64  1  0.89390500  0.78780900  0.14390500  1
  O  O65  1  0.28780900  0.39390500  0.64390500  1
  O  O66  1  0.28733800  0.93754800  0.34766500  1
  O  O67  1  0.15233500  0.56245200  0.21266200  1
  O  O68  1  0.08988300  0.65021000  0.93754800  1
  O  O69  1  0.93967300  0.15233500  0.08988300  1
  O  O70  1  0.91011700  0.06032700  0.84766500  1
  O  O71  1  0.65233500  0.43967300  0.58988300  1
  O  O72  1  0.65233500  0.71266200  0.06245200  1
  O  O73  1  0.64390500  0.28780900  0.39390500  1
  O  O74  1  0.71266200  0.06245200  0.65233500  1
  O  O75  1  0.06032700  0.84766500  0.91011700  1
  O  O76  1  0.56245200  0.21266200  0.15233500  1
  O  O77  1  0.84979000  0.93967300  0.28733800  1
  O  O78  1  0.35609500  0.71219100  0.60609500  1
  O  O79  1  0.14390500  0.89390500  0.78780900  1
  O  O80  1  0.43967300  0.34979000  0.78733800  1
  O  O81  1  0.58988300  0.43754800  0.15021000  1
  O  O82  1  0.15021000  0.58988300  0.43754800  1
  O  O83  1  0.78733800  0.43967300  0.34979000  1
  O  O84  1  0.06032700  0.71266200  0.15021000  1
  O  O85  1  0.91011700  0.34979000  0.06245200  1
  O  O86  1  0.08988300  0.93967300  0.15233500  1
  O  O87  1  0.93754800  0.08988300  0.65021000  1
  O  O88  1  0.34979000  0.78733800  0.43967300  1
  O  O89  1  0.58988300  0.65233500  0.43967300  1
  O  O90  1  0.43754800  0.78733800  0.84766500  1
  O  O91  1  0.71266200  0.15021000  0.06032700  1
  O  O92  1  0.06245200  0.65233500  0.71266200  1
  O  O93  1  0.85609500  0.25000000  0.64390500  1
  O  O94  1  0.43967300  0.58988300  0.65233500  1
  O  O95  1  0.15233500  0.08988300  0.93967300  1
  O  O96  1  0.71219100  0.60609500  0.35609500  1
  O  O97  1  0.60609500  0.35609500  0.71219100  1
  O  O98  1  0.34766500  0.28733800  0.93754800  1
  O  O99  1  0.39390500  0.25000000  0.10609500  1
  O  O100  1  0.21266200  0.56032700  0.65021000  1
  O  O101  1  0.93754800  0.34766500  0.28733800  1
  O  O102  1  0.28733800  0.84979000  0.93967300  1
  O  O103  1  0.21266200  0.15233500  0.56245200  1
  O  O104  1  0.78733800  0.84766500  0.43754800  1
  O  O105  1  0.15021000  0.06032700  0.71266200  1
  O  O106  1  0.34766500  0.56032700  0.41011700  1
  O  O107  1  0.64390500  0.85609500  0.25000000  1
  O  O108  1  0.41011700  0.56245200  0.84979000  1
  O  O109  1  0.56032700  0.41011700  0.34766500  1
  O  O110  1  0.84979000  0.41011700  0.56245200  1
  O  O111  1  0.10609500  0.39390500  0.25000000  1
  O  O112  1  0.39390500  0.64390500  0.28780900  1
  O  O113  1  0.65021000  0.21266200  0.56032700  1
  O  O114  1  0.85609500  0.10609500  0.21219100  1
  O  O115  1  0.60609500  0.75000000  0.89390500  1
  O  O116  1  0.78780900  0.14390500  0.89390500  1
  O  O117  1  0.41011700  0.34766500  0.56032700  1
  O  O118  1  0.75000000  0.89390500  0.60609500  1
  O  O119  1  0.34979000  0.06245200  0.91011700  1
  O  O120  1  0.21219100  0.85609500  0.10609500  1
  O  O121  1  0.14390500  0.75000000  0.35609500  1
  O  O122  1  0.25000000  0.10609500  0.39390500  1
  O  O123  1  0.35609500  0.14390500  0.75000000  1
  O  O124  1  0.06245200  0.91011700  0.34979000  1
  O  O125  1  0.93967300  0.28733800  0.84979000  1
  O  O126  1  0.65021000  0.93754800  0.08988300  1
  O  O127  1  0.56245200  0.84979000  0.41011700  1
  O  O128  1  0.84766500  0.43754800  0.78733800  1
  O  O129  1  0.56032700  0.65021000  0.21266200  1
  O  O130  1  0.89390500  0.60609500  0.75000000  1
  O  O131  1  0.43754800  0.15021000  0.58988300  1
  O  O132  1  0.75000000  0.35609500  0.14390500  1
  O  O133  1  0.84766500  0.91011700  0.06032700  1
  O  O134  1  0.25000000  0.64390500  0.85609500  1
  O  O135  1  0.10609500  0.21219100  0.85609500  1
