# generated using pymatgen
data_CuClF10
_symmetry_space_group_name_H-M   'P 1'
_cell_length_a   9.31231200
_cell_length_b   5.14838700
_cell_length_c   7.88631365
_cell_angle_alpha   77.01771239
_cell_angle_beta   90.00000000
_cell_angle_gamma   90.00000000
_symmetry_Int_Tables_number   1
_chemical_formula_structural   CuClF10
_chemical_formula_sum   'Cu2 Cl2 F20'
_cell_volume   368.43226467
_cell_formula_units_Z   2
loop_
 _symmetry_equiv_pos_site_id
 _symmetry_equiv_pos_as_xyz
  1  'x, y, z'
loop_
 _atom_site_type_symbol
 _atom_site_label
 _atom_site_symmetry_multiplicity
 _atom_site_fract_x
 _atom_site_fract_y
 _atom_site_fract_z
 _atom_site_occupancy
  Cu  Cu0  1  0.00000000  0.00000000  0.50000000  1
  Cu  Cu1  1  0.50000000  0.50000000  0.50000000  1
  Cl  Cl2  1  0.00000000  0.50000000  0.00000000  1
  Cl  Cl3  1  0.50000000  0.00000000  0.00000000  1
  F  F4  1  0.09695700  0.40848800  0.84177400  1
  F  F5  1  0.59695700  0.09151200  0.15822600  1
  F  F6  1  0.90304300  0.59151200  0.15822600  1
  F  F7  1  0.40304300  0.90848800  0.84177400  1
  F  F8  1  0.09774300  0.78541100  0.97402600  1
  F  F9  1  0.59774300  0.71458900  0.02597400  1
  F  F10  1  0.90225700  0.21458900  0.02597400  1
  F  F11  1  0.40225700  0.28541100  0.97402600  1
  F  F12  1  0.12065600  0.34106400  0.15409700  1
  F  F13  1  0.62065600  0.15893600  0.84590300  1
  F  F14  1  0.87934400  0.65893600  0.84590300  1
  F  F15  1  0.37934400  0.84106400  0.15409700  1
  F  F16  1  0.10432000  0.78045100  0.40877700  1
  F  F17  1  0.60432000  0.71954900  0.59122300  1
  F  F18  1  0.89568000  0.21954900  0.59122300  1
  F  F19  1  0.39568000  0.28045100  0.40877700  1
  F  F20  1  0.15791800  0.11245200  0.58838700  1
  F  F21  1  0.65791800  0.38754800  0.41161300  1
  F  F22  1  0.84208200  0.88754800  0.41161300  1
  F  F23  1  0.34208200  0.61245200  0.58838700  1
