# generated using pymatgen
data_W
_symmetry_space_group_name_H-M   'P 1'
_cell_length_a   2.62886700
_cell_length_b   9.43322700
_cell_length_c   14.99454951
_cell_angle_alpha   79.73161426
_cell_angle_beta   90.00000000
_cell_angle_gamma   90.00000000
_symmetry_Int_Tables_number   1
_chemical_formula_structural   W
_chemical_formula_sum   W20
_cell_volume   365.88967896
_cell_formula_units_Z   20
loop_
 _symmetry_equiv_pos_site_id
 _symmetry_equiv_pos_as_xyz
  1  'x, y, z'
loop_
 _atom_site_type_symbol
 _atom_site_label
 _atom_site_symmetry_multiplicity
 _atom_site_fract_x
 _atom_site_fract_y
 _atom_site_fract_z
 _atom_site_occupancy
  W  W0  1  0.50000000  0.64415500  0.97663300  1
  W  W1  1  0.50000000  0.35584500  0.02336700  1
  W  W2  1  0.50000000  0.93622900  0.92801900  1
  W  W3  1  0.50000000  0.06377100  0.07198100  1
  W  W4  1  0.50000000  0.22682300  0.87661600  1
  W  W5  1  0.50000000  0.77317700  0.12338400  1
  W  W6  1  0.50000000  0.51664900  0.82889600  1
  W  W7  1  0.50000000  0.48335100  0.17110400  1
  W  W8  1  0.50000000  0.80447300  0.78253600  1
  W  W9  1  0.50000000  0.19552700  0.21746400  1
  W  W10  1  0.50000000  0.09522300  0.73405700  1
  W  W11  1  0.50000000  0.90477700  0.26594300  1
  W  W12  1  0.50000000  0.38791800  0.68240500  1
  W  W13  1  0.50000000  0.61208200  0.31759500  1
  W  W14  1  0.50000000  0.67423000  0.63572700  1
  W  W15  1  0.50000000  0.32577000  0.36427300  1
  W  W16  1  0.50000000  0.96086700  0.58987900  1
  W  W17  1  0.50000000  0.03913300  0.41012100  1
  W  W18  1  0.50000000  0.24893300  0.54322300  1
  W  W19  1  0.50000000  0.75106700  0.45677700  1
