# generated using pymatgen
data_S
_symmetry_space_group_name_H-M   'P 1'
_cell_length_a   8.60580302
_cell_length_b   8.60580302
_cell_length_c   9.18514236
_cell_angle_alpha   77.77581544
_cell_angle_beta   77.77581544
_cell_angle_gamma   78.79511025
_symmetry_Int_Tables_number   1
_chemical_formula_structural   S
_chemical_formula_sum   S20
_cell_volume   641.74630703
_cell_formula_units_Z   20
loop_
 _symmetry_equiv_pos_site_id
 _symmetry_equiv_pos_as_xyz
  1  'x, y, z'
loop_
 _atom_site_type_symbol
 _atom_site_label
 _atom_site_symmetry_multiplicity
 _atom_site_fract_x
 _atom_site_fract_y
 _atom_site_fract_z
 _atom_site_occupancy
  S  S0  1  0.07309500  0.24701600  0.14617500  1
  S  S1  1  0.39812300  0.99976000  0.80287700  1
  S  S2  1  0.60187700  0.00024000  0.19712300  1
  S  S3  1  0.92690500  0.75298400  0.85382500  1
  S  S4  1  0.23275900  0.61046500  0.58319500  1
  S  S5  1  0.38114700  0.47386200  0.73175300  1
  S  S6  1  0.24701600  0.07309500  0.64617500  1
  S  S7  1  0.87235300  0.98322000  0.73072400  1
  S  S8  1  0.00024000  0.60187700  0.69712300  1
  S  S9  1  0.75298400  0.92690500  0.35382500  1
  S  S10  1  0.01678000  0.12764700  0.76927600  1
  S  S11  1  0.47386200  0.38114700  0.23175300  1
  S  S12  1  0.61046500  0.23275900  0.08319500  1
  S  S13  1  0.12764700  0.01678000  0.26927600  1
  S  S14  1  0.76724100  0.38953500  0.41680500  1
  S  S15  1  0.98322000  0.87235300  0.23072400  1
  S  S16  1  0.99976000  0.39812300  0.30287700  1
  S  S17  1  0.52613800  0.61885300  0.76824700  1
  S  S18  1  0.61885300  0.52613800  0.26824700  1
  S  S19  1  0.38953500  0.76724100  0.91680500  1
