# generated using pymatgen
data_S
_symmetry_space_group_name_H-M   'P 1'
_cell_length_a   8.20296900
_cell_length_b   10.48392700
_cell_length_c   10.50451074
_cell_angle_alpha   81.41405350
_cell_angle_beta   90.00000000
_cell_angle_gamma   90.00000000
_symmetry_Int_Tables_number   1
_chemical_formula_structural   S
_chemical_formula_sum   S28
_cell_volume   893.25670394
_cell_formula_units_Z   28
loop_
 _symmetry_equiv_pos_site_id
 _symmetry_equiv_pos_as_xyz
  1  'x, y, z'
loop_
 _atom_site_type_symbol
 _atom_site_label
 _atom_site_symmetry_multiplicity
 _atom_site_fract_x
 _atom_site_fract_y
 _atom_site_fract_z
 _atom_site_occupancy
  S  S0  1  0.92446400  0.31623600  0.89265300  1
  S  S1  1  0.38455600  0.45234200  0.33925300  1
  S  S2  1  0.21345900  0.07735100  0.91784000  1
  S  S3  1  0.60749200  0.21928600  0.24679100  1
  S  S4  1  0.60661500  0.77659400  0.13312600  1
  S  S5  1  0.39338500  0.22340600  0.86687400  1
  S  S6  1  0.39250800  0.78071400  0.75320900  1
  S  S7  1  0.88455600  0.54765800  0.16074700  1
  S  S8  1  0.28654100  0.07735100  0.41784000  1
  S  S9  1  0.57553600  0.31623600  0.39265300  1
  S  S10  1  0.89338500  0.77659400  0.63312600  1
  S  S11  1  0.11544400  0.45234200  0.83925300  1
  S  S12  1  0.10749200  0.78071400  0.25320900  1
  S  S13  1  0.42446400  0.68376400  0.60734700  1
  S  S14  1  0.07553600  0.68376400  0.10734700  1
  S  S15  1  0.69405300  0.62583800  0.04953900  1
  S  S16  1  0.58240200  0.93483000  0.73810600  1
  S  S17  1  0.71345900  0.92264900  0.58216000  1
  S  S18  1  0.41759800  0.06517000  0.26189400  1
  S  S19  1  0.78654100  0.92264900  0.08216000  1
  S  S20  1  0.19405300  0.37416200  0.45046100  1
  S  S21  1  0.10661500  0.22340600  0.36687400  1
  S  S22  1  0.89250800  0.21928600  0.74679100  1
  S  S23  1  0.30594700  0.37416200  0.95046100  1
  S  S24  1  0.91759800  0.93483000  0.23810600  1
  S  S25  1  0.08240200  0.06517000  0.76189400  1
  S  S26  1  0.80594700  0.62583800  0.54953900  1
  S  S27  1  0.61544400  0.54765800  0.66074700  1
