# generated using pymatgen
data_CaFeSbAs2O7
_symmetry_space_group_name_H-M   'P 1'
_cell_length_a   12.84812526
_cell_length_b   12.84812526
_cell_length_c   12.84812526
_cell_angle_alpha   100.40021591
_cell_angle_beta   100.40021591
_cell_angle_gamma   129.71388816
_symmetry_Int_Tables_number   1
_chemical_formula_structural   CaFeSbAs2O7
_chemical_formula_sum   'Ca8 Fe8 Sb8 As16 O56'
_cell_volume   1476.90384723
_cell_formula_units_Z   8
loop_
 _symmetry_equiv_pos_site_id
 _symmetry_equiv_pos_as_xyz
  1  'x, y, z'
loop_
 _atom_site_type_symbol
 _atom_site_label
 _atom_site_symmetry_multiplicity
 _atom_site_fract_x
 _atom_site_fract_y
 _atom_site_fract_z
 _atom_site_occupancy
  Ca  Ca0  1  0.79823500  0.45831900  0.96063900  1
  Ca  Ca1  1  0.70831900  0.24768000  0.16008400  1
  Ca  Ca2  1  0.16240400  0.20176500  0.66008400  1
  Ca  Ca3  1  0.54168100  0.50232000  0.33991600  1
  Ca  Ca4  1  0.45176500  0.29168100  0.53936100  1
  Ca  Ca5  1  0.75232000  0.91240400  0.46063900  1
  Ca  Ca6  1  0.08759600  0.54823500  0.83991600  1
  Ca  Ca7  1  0.49768000  0.83759600  0.03936100  1
  Fe  Fe8  1  0.35971700  0.10507600  0.72838200  1
  Fe  Fe9  1  0.37669400  0.63133500  0.27161800  1
  Fe  Fe10  1  0.36866500  0.64028300  0.74535900  1
  Fe  Fe11  1  0.35507600  0.12669400  0.24535900  1
  Fe  Fe12  1  0.88133500  0.10971700  0.75464100  1
  Fe  Fe13  1  0.89028300  0.64492400  0.77161800  1
  Fe  Fe14  1  0.89492400  0.62330600  0.25464100  1
  Fe  Fe15  1  0.87330600  0.11866500  0.22838200  1
  Sb  Sb16  1  0.93512300  0.78623400  0.50099200  1
  Sb  Sb17  1  0.28524200  0.43413200  0.49900800  1
  Sb  Sb18  1  0.31487700  0.96376600  0.99900800  1
  Sb  Sb19  1  0.56586800  0.06487700  0.85111000  1
  Sb  Sb20  1  0.96475800  0.31586800  0.00099200  1
  Sb  Sb21  1  0.68413200  0.68512300  0.64889000  1
  Sb  Sb22  1  0.21376600  0.71475800  0.14889000  1
  Sb  Sb23  1  0.03623400  0.03524200  0.35111000  1
  As  As24  1  0.26981600  0.93619300  0.43102300  1
  As  As25  1  0.52691000  0.35854900  0.03882700  1
  As  As26  1  0.93027800  0.26191700  0.53882700  1
  As  As27  1  0.08879300  0.01981600  0.83362300  1
  As  As28  1  0.73808300  0.27691000  0.66836100  1
  As  As29  1  0.50517000  0.83879300  0.56897700  1
  As  As30  1  0.06380700  0.49483000  0.33362300  1
  As  As31  1  0.51191700  0.47309000  0.83163900  1
  As  As32  1  0.18619300  0.25517000  0.16637700  1
  As  As33  1  0.74483000  0.91120700  0.93102300  1
  As  As34  1  0.72309000  0.39145100  0.46117300  1
  As  As35  1  0.60854900  0.06972200  0.33163900  1
  As  As36  1  0.98018400  0.81380700  0.06897700  1
  As  As37  1  0.31972200  0.48808300  0.96117300  1
  As  As38  1  0.64145100  0.68027800  0.16836100  1
  As  As39  1  0.16120700  0.73018400  0.66637700  1
  O  O40  1  0.58279000  0.70244700  0.27784500  1
  O  O41  1  0.73016400  0.09400800  0.45642000  1
  O  O42  1  0.29775700  0.45161500  0.66105700  1
  O  O43  1  0.75596500  0.98639700  0.06992900  1
  O  O44  1  0.70161500  0.54055800  0.65385800  1
  O  O45  1  0.36330000  0.70224300  0.15385800  1
  O  O46  1  0.07297500  0.81348700  0.39264300  1
  O  O47  1  0.33353200  0.06396400  0.56992900  1
  O  O48  1  0.74130000  0.72685700  0.51579000  1
  O  O49  1  0.93603600  0.50596500  0.26956800  1
  O  O50  1  0.27314300  0.78893300  0.01444300  1
  O  O51  1  0.01360300  0.08353200  0.76956800  1
  O  O52  1  0.51983600  0.65599200  0.04358000  1
  O  O53  1  0.88670000  0.04775700  0.34614200  1
  O  O54  1  0.55494600  0.33279000  0.38034300  1
  O  O55  1  0.69626900  0.93451200  0.63445500  1
  O  O56  1  0.61241200  0.47625600  0.95642000  1
  O  O57  1  0.82915600  0.06966800  0.89264300  1
  O  O58  1  0.69505400  0.41721000  0.11965700  1
  O  O59  1  0.66721000  0.04755300  0.22215500  1
  O  O60  1  0.18651300  0.57915600  0.25948800  1
  O  O61  1  0.63758800  0.27374400  0.54358000  1
  O  O62  1  0.49403500  0.76360300  0.43007100  1
  O  O63  1  0.82539800  0.44505400  0.77784500  1
  O  O64  1  0.94994300  0.68818600  0.13445500  1
  O  O65  1  0.97685700  0.96106700  0.48555700  1
  O  O66  1  0.21106700  0.22551000  0.48421000  1
  O  O67  1  0.18451200  0.05005700  0.73824300  1
  O  O68  1  0.77449000  0.25870000  0.98555700  1
  O  O69  1  0.52374400  0.48016400  0.13615500  1
  O  O70  1  0.50870000  0.02314300  0.98421000  1
  O  O71  1  0.06348700  0.17084400  0.24051200  1
  O  O72  1  0.06548800  0.69994300  0.76175700  1
  O  O73  1  0.34400800  0.38758800  0.86384500  1
  O  O74  1  0.23639700  0.66646800  0.73043200  1
  O  O75  1  0.31966800  0.92702500  0.74051200  1
  O  O76  1  0.95224300  0.29838500  0.83894300  1
  O  O77  1  0.93818600  0.30373100  0.23824300  1
  O  O78  1  0.31181400  0.44626900  0.26175700  1
  O  O79  1  0.45944200  0.11330000  0.16105700  1
  O  O80  1  0.17702500  0.93651300  0.10735700  1
  O  O81  1  0.79055800  0.63670000  0.33894300  1
  O  O82  1  0.47551000  0.49130000  0.51444300  1
  O  O83  1  0.93033200  0.82297500  0.75948800  1
  O  O84  1  0.55373100  0.81548800  0.86554500  1
  O  O85  1  0.42460200  0.30494600  0.72215500  1
  O  O86  1  0.30005700  0.06181400  0.36554500  1
  O  O87  1  0.90599200  0.36241200  0.63615500  1
  O  O88  1  0.91646800  0.68603600  0.93007100  1
  O  O89  1  0.42084400  0.68033200  0.60735700  1
  O  O90  1  0.95244700  0.17460200  0.61965700  1
  O  O91  1  0.29755300  0.57539800  0.88034300  1
  O  O92  1  0.54838500  0.20944200  0.84614200  1
  O  O93  1  0.72625600  0.26983600  0.36384500  1
  O  O94  1  0.03893300  0.52449000  0.01579000  1
  O  O95  1  0.31396400  0.24403500  0.23043200  1
