# generated using pymatgen
data_KCrIO6
_symmetry_space_group_name_H-M   'P 1'
_cell_length_a   4.87216600
_cell_length_b   9.36849300
_cell_length_c   14.30746170
_cell_angle_alpha   72.48379012
_cell_angle_beta   90.00000000
_cell_angle_gamma   90.00000000
_symmetry_Int_Tables_number   1
_chemical_formula_structural   KCrIO6
_chemical_formula_sum   'K4 Cr4 I4 O24'
_cell_volume   622.78070312
_cell_formula_units_Z   4
loop_
 _symmetry_equiv_pos_site_id
 _symmetry_equiv_pos_as_xyz
  1  'x, y, z'
loop_
 _atom_site_type_symbol
 _atom_site_label
 _atom_site_symmetry_multiplicity
 _atom_site_fract_x
 _atom_site_fract_y
 _atom_site_fract_z
 _atom_site_occupancy
  K  K0  1  0.08943900  0.10021700  0.33563500  1
  K  K1  1  0.58943900  0.89978300  0.16436500  1
  K  K2  1  0.41056100  0.10021700  0.83563500  1
  K  K3  1  0.91056100  0.89978300  0.66436500  1
  Cr  Cr4  1  0.96276700  0.22337100  0.02848800  1
  Cr  Cr5  1  0.03723300  0.77662900  0.97151200  1
  Cr  Cr6  1  0.53723300  0.22337100  0.52848800  1
  Cr  Cr7  1  0.46276700  0.77662900  0.47151200  1
  I  I8  1  0.33241800  0.57073900  0.83600300  1
  I  I9  1  0.16758200  0.57073900  0.33600300  1
  I  I10  1  0.83241800  0.42926100  0.66399700  1
  I  I11  1  0.66758200  0.42926100  0.16399700  1
  O  O12  1  0.28972400  0.28756700  0.44916200  1
  O  O13  1  0.58299600  0.24308800  0.23793300  1
  O  O14  1  0.74978700  0.12333200  0.98714300  1
  O  O15  1  0.77803100  0.38288500  0.04562000  1
  O  O16  1  0.78972400  0.71243300  0.05083800  1
  O  O17  1  0.08299600  0.75691200  0.26206700  1
  O  O18  1  0.27803100  0.61711500  0.45438000  1
  O  O19  1  0.91700400  0.24308800  0.73793300  1
  O  O20  1  0.01138300  0.44374500  0.21266300  1
  O  O21  1  0.72196900  0.38288500  0.54562000  1
  O  O22  1  0.75021300  0.12333200  0.48714300  1
  O  O23  1  0.24978700  0.87666800  0.51285700  1
  O  O24  1  0.08191900  0.12104900  0.13377000  1
  O  O25  1  0.91808100  0.87895100  0.86623000  1
  O  O26  1  0.21027600  0.28756700  0.94916200  1
  O  O27  1  0.58191900  0.87895100  0.36623000  1
  O  O28  1  0.22196900  0.61711500  0.95438000  1
  O  O29  1  0.51138300  0.55625500  0.28733700  1
  O  O30  1  0.41808100  0.12104900  0.63377000  1
  O  O31  1  0.48861700  0.44374500  0.71266300  1
  O  O32  1  0.71027600  0.71243300  0.55083800  1
  O  O33  1  0.98861700  0.55625500  0.78733700  1
  O  O34  1  0.41700400  0.75691200  0.76206700  1
  O  O35  1  0.25021300  0.87666800  0.01285700  1
