# generated using pymatgen
data_K2Be(CO2)4
_symmetry_space_group_name_H-M   'P 1'
_cell_length_a   6.73717000
_cell_length_b   9.15415100
_cell_length_c   13.60506600
_cell_angle_alpha   90.00000000
_cell_angle_beta   90.00000000
_cell_angle_gamma   90.00000000
_symmetry_Int_Tables_number   1
_chemical_formula_structural   K2Be(CO2)4
_chemical_formula_sum   'K8 Be4 C16 O32'
_cell_volume   839.06620808
_cell_formula_units_Z   4
loop_
 _symmetry_equiv_pos_site_id
 _symmetry_equiv_pos_as_xyz
  1  'x, y, z'
loop_
 _atom_site_type_symbol
 _atom_site_label
 _atom_site_symmetry_multiplicity
 _atom_site_fract_x
 _atom_site_fract_y
 _atom_site_fract_z
 _atom_site_occupancy
  K  K0  1  0.68947300  0.00239400  0.39547400  1
  K  K1  1  0.31052700  0.50239400  0.60452600  1
  K  K2  1  0.18947300  0.50239400  0.10452600  1
  K  K3  1  0.31052700  0.99760600  0.60452600  1
  K  K4  1  0.18947300  0.99760600  0.10452600  1
  K  K5  1  0.81052700  0.00239400  0.89547400  1
  K  K6  1  0.68947300  0.49760600  0.39547400  1
  K  K7  1  0.81052700  0.49760600  0.89547400  1
  Be  Be8  1  0.57672200  0.75000000  0.74562300  1
  Be  Be9  1  0.07672200  0.25000000  0.75437700  1
  Be  Be10  1  0.42327800  0.25000000  0.25437700  1
  Be  Be11  1  0.92327800  0.75000000  0.24562300  1
  C  C12  1  0.17603800  0.66468600  0.35731700  1
  C  C13  1  0.67603800  0.33531400  0.14268300  1
  C  C14  1  0.75856600  0.75000000  0.59324100  1
  C  C15  1  0.25856600  0.25000000  0.90675900  1
  C  C16  1  0.90907600  0.75000000  0.68049900  1
  C  C17  1  0.82396200  0.16468600  0.64268300  1
  C  C18  1  0.59092400  0.75000000  0.18049900  1
  C  C19  1  0.17603800  0.83531400  0.35731700  1
  C  C20  1  0.40907600  0.25000000  0.81950100  1
  C  C21  1  0.32396200  0.83531400  0.85731700  1
  C  C22  1  0.09092400  0.25000000  0.31950100  1
  C  C23  1  0.67603800  0.16468600  0.14268300  1
  C  C24  1  0.24143400  0.25000000  0.40675900  1
  C  C25  1  0.32396200  0.66468600  0.85731700  1
  C  C26  1  0.82396200  0.33531400  0.64268300  1
  C  C27  1  0.74143400  0.75000000  0.09324100  1
  O  O28  1  0.40917000  0.75000000  0.16807800  1
  O  O29  1  0.28900200  0.59087600  0.40871300  1
  O  O30  1  0.78900200  0.09087600  0.09128700  1
  O  O31  1  0.81174100  0.75000000  0.50626200  1
  O  O32  1  0.04054700  0.61349600  0.29746300  1
  O  O33  1  0.95945300  0.38650400  0.70253700  1
  O  O34  1  0.95945300  0.11349600  0.70253700  1
  O  O35  1  0.68346000  0.75000000  0.26491100  1
  O  O36  1  0.21099800  0.90912400  0.90871300  1
  O  O37  1  0.45945300  0.61349600  0.79746300  1
  O  O38  1  0.45945300  0.88650400  0.79746300  1
  O  O39  1  0.71099800  0.40912400  0.59128700  1
  O  O40  1  0.28900200  0.90912400  0.40871300  1
  O  O41  1  0.81654000  0.75000000  0.76491100  1
  O  O42  1  0.09083000  0.75000000  0.66807800  1
  O  O43  1  0.71099800  0.09087600  0.59128700  1
  O  O44  1  0.59083000  0.25000000  0.83192200  1
  O  O45  1  0.18346000  0.25000000  0.23508900  1
  O  O46  1  0.42445400  0.25000000  0.37463000  1
  O  O47  1  0.21099800  0.59087600  0.90871300  1
  O  O48  1  0.57554600  0.75000000  0.62537000  1
  O  O49  1  0.68825900  0.75000000  0.00626200  1
  O  O50  1  0.31654000  0.25000000  0.73508900  1
  O  O51  1  0.78900200  0.40912400  0.09128700  1
  O  O52  1  0.04054700  0.88650400  0.29746300  1
  O  O53  1  0.07554600  0.25000000  0.87463000  1
  O  O54  1  0.54054700  0.11349600  0.20253700  1
  O  O55  1  0.31174100  0.25000000  0.99373800  1
  O  O56  1  0.92445400  0.75000000  0.12537000  1
  O  O57  1  0.54054700  0.38650400  0.20253700  1
  O  O58  1  0.90917000  0.25000000  0.33192200  1
  O  O59  1  0.18825900  0.25000000  0.49373800  1
