# generated using pymatgen
data_H14C5(SN)2
_symmetry_space_group_name_H-M   'P 1'
_cell_length_a   7.82589200
_cell_length_b   10.11904100
_cell_length_c   12.45119453
_cell_angle_alpha   74.34150875
_cell_angle_beta   90.00000000
_cell_angle_gamma   90.00000000
_symmetry_Int_Tables_number   1
_chemical_formula_structural   H14C5(SN)2
_chemical_formula_sum   'H56 C20 S8 N8'
_cell_volume   949.42308742
_cell_formula_units_Z   4
loop_
 _symmetry_equiv_pos_site_id
 _symmetry_equiv_pos_as_xyz
  1  'x, y, z'
loop_
 _atom_site_type_symbol
 _atom_site_label
 _atom_site_symmetry_multiplicity
 _atom_site_fract_x
 _atom_site_fract_y
 _atom_site_fract_z
 _atom_site_occupancy
  H  H0  1  0.63895300  0.59350400  0.58598400  1
  H  H1  1  0.47428100  0.89430000  0.94002000  1
  H  H2  1  0.72894600  0.87740400  0.29175700  1
  H  H3  1  0.88617400  0.99772000  0.25969500  1
  H  H4  1  0.30746500  0.48790100  0.57805600  1
  H  H5  1  0.11012500  0.53001500  0.78127400  1
  H  H6  1  0.38617400  0.00228000  0.24030500  1
  H  H7  1  0.38987500  0.53001500  0.28127400  1
  H  H8  1  0.93656600  0.82204900  0.17093800  1
  H  H9  1  0.23262600  0.66771200  0.05980600  1
  H  H10  1  0.15368000  0.21981800  0.52548500  1
  H  H11  1  0.36104700  0.40649600  0.41401600  1
  H  H12  1  0.76737400  0.33228800  0.94019400  1
  H  H13  1  0.09916000  0.82231300  0.27179500  1
  H  H14  1  0.06918100  0.30305700  0.69558800  1
  H  H15  1  0.11343000  0.56379900  0.51463700  1
  H  H16  1  0.26737400  0.66771200  0.55980600  1
  H  H17  1  0.31965800  0.49041800  0.83829000  1
  H  H18  1  0.69253500  0.51209900  0.42194400  1
  H  H19  1  0.61343000  0.43620100  0.98536300  1
  H  H20  1  0.38657000  0.56379900  0.01463700  1
  H  H21  1  0.19253500  0.48790100  0.07805600  1
  H  H22  1  0.80746500  0.51209900  0.92194400  1
  H  H23  1  0.18550300  0.03945300  0.54781100  1
  H  H24  1  0.73262600  0.33228800  0.44019400  1
  H  H25  1  0.84632000  0.78018200  0.47451500  1
  H  H26  1  0.68550300  0.96054700  0.95218900  1
  H  H27  1  0.56343400  0.82204900  0.67093800  1
  H  H28  1  0.18034200  0.49041800  0.33829000  1
  H  H29  1  0.34632000  0.21981800  0.02548500  1
  H  H30  1  0.81449700  0.96054700  0.45218900  1
  H  H31  1  0.43081900  0.30305700  0.19558800  1
  H  H32  1  0.40084000  0.82231300  0.77179500  1
  H  H33  1  0.65368000  0.78018200  0.97451500  1
  H  H34  1  0.88987500  0.46998500  0.21872600  1
  H  H35  1  0.77105400  0.87740400  0.79175700  1
  H  H36  1  0.90084000  0.17768700  0.72820500  1
  H  H37  1  0.31449700  0.03945300  0.04781100  1
  H  H38  1  0.27105400  0.12259600  0.70824300  1
  H  H39  1  0.59916000  0.17768700  0.22820500  1
  H  H40  1  0.56918100  0.69694300  0.80441200  1
  H  H41  1  0.86104700  0.59350400  0.08598400  1
  H  H42  1  0.81965800  0.50958200  0.66171000  1
  H  H43  1  0.61012500  0.46998500  0.71872600  1
  H  H44  1  0.13895300  0.40649600  0.91401600  1
  H  H45  1  0.88657000  0.43620100  0.48536300  1
  H  H46  1  0.02571900  0.89430000  0.44002000  1
  H  H47  1  0.61382600  0.99772000  0.75969500  1
  H  H48  1  0.68034200  0.50958200  0.16171000  1
  H  H49  1  0.06343400  0.17795100  0.82906200  1
  H  H50  1  0.93081900  0.69694300  0.30441200  1
  H  H51  1  0.43656600  0.17795100  0.32906200  1
  H  H52  1  0.22894600  0.12259600  0.20824300  1
  H  H53  1  0.11382600  0.00228000  0.74030500  1
  H  H54  1  0.52571900  0.10570000  0.05998000  1
  H  H55  1  0.97428100  0.10570000  0.55998000  1
  C  C56  1  0.74885700  0.41821900  0.47697300  1
  C  C57  1  0.96366100  0.80283100  0.26010500  1
  C  C58  1  0.58801900  0.26454600  0.63287300  1
  C  C59  1  0.25114300  0.58178100  0.52302700  1
  C  C60  1  0.53633900  0.80283100  0.76010500  1
  C  C61  1  0.68465500  0.49589700  0.64154300  1
  C  C62  1  0.88862700  0.88234400  0.42674800  1
  C  C63  1  0.61137300  0.88234400  0.92674800  1
  C  C64  1  0.24885700  0.58178100  0.02302700  1
  C  C65  1  0.46366100  0.19716900  0.23989500  1
  C  C66  1  0.18465500  0.50410300  0.85845700  1
  C  C67  1  0.81534500  0.49589700  0.14154300  1
  C  C68  1  0.41198100  0.73545400  0.36712700  1
  C  C69  1  0.38862700  0.11765600  0.07325200  1
  C  C70  1  0.91198100  0.26454600  0.13287300  1
  C  C71  1  0.31534500  0.50410300  0.35845700  1
  C  C72  1  0.11137300  0.11765600  0.57325200  1
  C  C73  1  0.03633900  0.19716900  0.73989500  1
  C  C74  1  0.75114300  0.41821900  0.97697300  1
  C  C75  1  0.08801900  0.73545400  0.86712700  1
  S  S76  1  0.99633800  0.76540200  0.73638600  1
  S  S77  1  0.50366200  0.76540200  0.23638600  1
  S  S78  1  0.00366200  0.23459800  0.26361400  1
  S  S79  1  0.41981600  0.86083700  0.43631600  1
  S  S80  1  0.49633800  0.23459800  0.76361400  1
  S  S81  1  0.91981600  0.13916300  0.06368400  1
  S  S82  1  0.58018400  0.13916300  0.56368400  1
  S  S83  1  0.08018400  0.86083700  0.93631600  1
  N  N84  1  0.83283300  0.38674100  0.08613100  1
  N  N85  1  0.85839900  0.89713800  0.30610400  1
  N  N86  1  0.66716700  0.38674100  0.58613100  1
  N  N87  1  0.14160100  0.10286200  0.69389600  1
  N  N88  1  0.64160100  0.89713800  0.80610400  1
  N  N89  1  0.16716700  0.61325900  0.91386900  1
  N  N90  1  0.35839900  0.10286200  0.19389600  1
  N  N91  1  0.33283300  0.61325900  0.41386900  1
