# generated using pymatgen
data_Yb2S3O20
_symmetry_space_group_name_H-M   'P 1'
_cell_length_a   6.86661948
_cell_length_b   6.86661948
_cell_length_c   18.27063512
_cell_angle_alpha   89.99426165
_cell_angle_beta   89.99426165
_cell_angle_gamma   59.81727569
_symmetry_Int_Tables_number   1
_chemical_formula_structural   Yb2S3O20
_chemical_formula_sum   'Yb4 S6 O40'
_cell_volume   744.67648855
_cell_formula_units_Z   2
loop_
 _symmetry_equiv_pos_site_id
 _symmetry_equiv_pos_as_xyz
  1  'x, y, z'
loop_
 _atom_site_type_symbol
 _atom_site_label
 _atom_site_symmetry_multiplicity
 _atom_site_fract_x
 _atom_site_fract_y
 _atom_site_fract_z
 _atom_site_occupancy
  Yb  Yb0  1  0.32054900  0.32501300  0.61760200  1
  Yb  Yb1  1  0.67498700  0.67945100  0.88239800  1
  Yb  Yb2  1  0.67945100  0.67498700  0.38239800  1
  Yb  Yb3  1  0.32501300  0.32054900  0.11760200  1
  S  S4  1  0.28225300  0.29835700  0.91536300  1
  S  S5  1  0.70164300  0.71774700  0.58463700  1
  S  S6  1  0.71774700  0.70164300  0.08463700  1
  S  S7  1  0.29835700  0.28225300  0.41536300  1
  S  S8  1  0.19617500  0.80382500  0.75000000  1
  S  S9  1  0.80382500  0.19617500  0.25000000  1
  O  O10  1  0.98298400  0.88700000  0.81061500  1
  O  O11  1  0.11300000  0.01701600  0.68938500  1
  O  O12  1  0.01701600  0.11300000  0.18938500  1
  O  O13  1  0.88700000  0.98298400  0.31061500  1
  O  O14  1  0.20860500  0.62098500  0.70824900  1
  O  O15  1  0.37901500  0.79139500  0.79175100  1
  O  O16  1  0.79139500  0.37901500  0.29175100  1
  O  O17  1  0.62098500  0.20860500  0.20824900  1
  O  O18  1  0.28525500  0.36877200  0.99046300  1
  O  O19  1  0.63122800  0.71474500  0.50953700  1
  O  O20  1  0.71474500  0.63122800  0.00953700  1
  O  O21  1  0.36877200  0.28525500  0.49046300  1
  O  O22  1  0.37367000  0.43996400  0.86210800  1
  O  O23  1  0.56003600  0.62633000  0.63789200  1
  O  O24  1  0.62633000  0.56003600  0.13789200  1
  O  O25  1  0.43996400  0.37367000  0.36210800  1
  O  O26  1  0.05771500  0.38488000  0.88476900  1
  O  O27  1  0.61512000  0.94228500  0.61523100  1
  O  O28  1  0.94228500  0.61512000  0.11523100  1
  O  O29  1  0.38488000  0.05771500  0.38476900  1
  O  O30  1  0.93748900  0.55904200  0.59872100  1
  O  O31  1  0.44095800  0.06251100  0.90127900  1
  O  O32  1  0.06251100  0.44095800  0.40127900  1
  O  O33  1  0.55904200  0.93748900  0.09872100  1
  O  O34  1  0.58700500  0.39263700  0.88225300  1
  O  O35  1  0.60736300  0.41299500  0.61774700  1
  O  O36  1  0.41299500  0.60736300  0.11774700  1
  O  O37  1  0.39263700  0.58700500  0.38225300  1
  O  O38  1  0.17396800  0.74371400  0.53861000  1
  O  O39  1  0.25628600  0.82603200  0.96139000  1
  O  O40  1  0.82603200  0.25628600  0.46139000  1
  O  O41  1  0.74371400  0.17396800  0.03861000  1
  O  O42  1  0.19864300  0.15737600  0.70386900  1
  O  O43  1  0.84262400  0.80135700  0.79613100  1
  O  O44  1  0.80135700  0.84262400  0.29613100  1
  O  O45  1  0.15737600  0.19864300  0.20386900  1
  O  O46  1  0.79699000  0.03316100  0.98934900  1
  O  O47  1  0.96683900  0.20301100  0.51065100  1
  O  O48  1  0.20301100  0.96683900  0.01065100  1
  O  O49  1  0.03316100  0.79699000  0.48934900  1
