# generated using pymatgen
data_Pr2Nb11O30
_symmetry_space_group_name_H-M   'P 1'
_cell_length_a   6.32548054
_cell_length_b   6.32548054
_cell_length_c   32.95791000
_cell_angle_alpha   90.00000000
_cell_angle_beta   90.00000000
_cell_angle_gamma   120.00000570
_symmetry_Int_Tables_number   1
_chemical_formula_structural   Pr2Nb11O30
_chemical_formula_sum   'Pr4 Nb22 O60'
_cell_volume   1142.02949061
_cell_formula_units_Z   2
loop_
 _symmetry_equiv_pos_site_id
 _symmetry_equiv_pos_as_xyz
  1  'x, y, z'
loop_
 _atom_site_type_symbol
 _atom_site_label
 _atom_site_symmetry_multiplicity
 _atom_site_fract_x
 _atom_site_fract_y
 _atom_site_fract_z
 _atom_site_occupancy
  Pr  Pr0  1  0.33333300  0.66666700  0.90525500  1
  Pr  Pr1  1  0.33333300  0.66666700  0.59474500  1
  Pr  Pr2  1  0.66666700  0.33333300  0.40525500  1
  Pr  Pr3  1  0.66666700  0.33333300  0.09474500  1
  Nb  Nb4  1  0.63965400  0.63948900  0.19203200  1
  Nb  Nb5  1  0.63948900  0.63965400  0.69203200  1
  Nb  Nb6  1  0.36034600  0.99983500  0.69203200  1
  Nb  Nb7  1  0.99983500  0.36034600  0.30796800  1
  Nb  Nb8  1  0.35578400  0.35578400  0.00000000  1
  Nb  Nb9  1  0.00000000  0.64421600  0.00000000  1
  Nb  Nb10  1  0.36034600  0.99983500  0.80796800  1
  Nb  Nb11  1  0.00000000  0.64421600  0.50000000  1
  Nb  Nb12  1  0.63948900  0.63965400  0.80796800  1
  Nb  Nb13  1  0.64421600  0.00000000  0.50000000  1
  Nb  Nb14  1  0.99983500  0.36034600  0.19203200  1
  Nb  Nb15  1  0.00016500  0.36051100  0.80796800  1
  Nb  Nb16  1  0.66666700  0.33333300  0.90252500  1
  Nb  Nb17  1  0.63965400  0.63948900  0.30796800  1
  Nb  Nb18  1  0.36051100  0.00016500  0.19203200  1
  Nb  Nb19  1  0.33333300  0.66666700  0.09747500  1
  Nb  Nb20  1  0.35578400  0.35578400  0.50000000  1
  Nb  Nb21  1  0.36051100  0.00016500  0.30796800  1
  Nb  Nb22  1  0.33333300  0.66666700  0.40252500  1
  Nb  Nb23  1  0.66666700  0.33333300  0.59747500  1
  Nb  Nb24  1  0.00016500  0.36051100  0.69203200  1
  Nb  Nb25  1  0.64421600  0.00000000  0.00000000  1
  O  O26  1  0.36641400  0.95911400  0.75000000  1
  O  O27  1  0.56501900  0.94665300  0.44139700  1
  O  O28  1  0.24348300  0.00000000  0.00000000  1
  O  O29  1  0.05334700  0.61836500  0.44139700  1
  O  O30  1  0.99965700  0.75238300  0.68973600  1
  O  O31  1  0.00034300  0.75272600  0.18973600  1
  O  O32  1  0.37544500  0.94901300  0.37110600  1
  O  O33  1  0.05098700  0.42643200  0.12889400  1
  O  O34  1  0.00000000  0.24348300  0.00000000  1
  O  O35  1  0.66666700  0.33333300  0.01433400  1
  O  O36  1  0.33333300  0.66666700  0.67544100  1
  O  O37  1  0.66666700  0.33333300  0.80218800  1
  O  O38  1  0.24761700  0.24727400  0.68973600  1
  O  O39  1  0.61836500  0.05334700  0.55860300  1
  O  O40  1  0.42643200  0.05098700  0.87110600  1
  O  O41  1  0.04088600  0.40730000  0.75000000  1
  O  O42  1  0.33333300  0.66666700  0.98566600  1
  O  O43  1  0.40730000  0.04088600  0.25000000  1
  O  O44  1  0.66666700  0.33333300  0.48566600  1
  O  O45  1  0.24348300  0.00000000  0.50000000  1
  O  O46  1  0.33333300  0.66666700  0.51433400  1
  O  O47  1  0.42643200  0.05098700  0.62889400  1
  O  O48  1  0.59270000  0.63358600  0.75000000  1
  O  O49  1  0.38163500  0.43498100  0.05860300  1
  O  O50  1  0.61836500  0.05334700  0.94139700  1
  O  O51  1  0.24761700  0.24727400  0.81026400  1
  O  O52  1  0.66666700  0.33333300  0.69781200  1
  O  O53  1  0.38163500  0.43498100  0.44139700  1
  O  O54  1  0.33333300  0.66666700  0.82455900  1
  O  O55  1  0.00000000  0.24348300  0.50000000  1
  O  O56  1  0.00034300  0.75272600  0.31026400  1
  O  O57  1  0.66666700  0.33333300  0.17544100  1
  O  O58  1  0.99965700  0.75238300  0.81026400  1
  O  O59  1  0.24727400  0.24761700  0.31026400  1
  O  O60  1  0.37544500  0.94901300  0.12889400  1
  O  O61  1  0.33333300  0.66666700  0.19781200  1
  O  O62  1  0.66666700  0.33333300  0.32455900  1
  O  O63  1  0.56501900  0.94665300  0.05860300  1
  O  O64  1  0.62455500  0.57356800  0.87110600  1
  O  O65  1  0.75238300  0.99965700  0.31026400  1
  O  O66  1  0.43498100  0.38163500  0.55860300  1
  O  O67  1  0.05334700  0.61836500  0.05860300  1
  O  O68  1  0.75272600  0.00034300  0.81026400  1
  O  O69  1  0.33333300  0.66666700  0.30218800  1
  O  O70  1  0.75238300  0.99965700  0.18973600  1
  O  O71  1  0.57356800  0.62455500  0.37110600  1
  O  O72  1  0.94665300  0.56501900  0.94139700  1
  O  O73  1  0.94901300  0.37544500  0.87110600  1
  O  O74  1  0.94901300  0.37544500  0.62889400  1
  O  O75  1  0.63358600  0.59270000  0.25000000  1
  O  O76  1  0.94665300  0.56501900  0.55860300  1
  O  O77  1  0.75651700  0.75651700  0.50000000  1
  O  O78  1  0.57356800  0.62455500  0.12889400  1
  O  O79  1  0.24727400  0.24761700  0.18973600  1
  O  O80  1  0.05098700  0.42643200  0.37110600  1
  O  O81  1  0.75272600  0.00034300  0.68973600  1
  O  O82  1  0.43498100  0.38163500  0.94139700  1
  O  O83  1  0.62455500  0.57356800  0.62889400  1
  O  O84  1  0.95911400  0.36641400  0.25000000  1
  O  O85  1  0.75651700  0.75651700  0.00000000  1
