# generated using pymatgen
data_CsBaCr3F12
_symmetry_space_group_name_H-M   'P 1'
_cell_length_a   10.11237404
_cell_length_b   10.11237404
_cell_length_c   15.35022016
_cell_angle_alpha   60.79585322
_cell_angle_beta   60.79585322
_cell_angle_gamma   59.81825572
_symmetry_Int_Tables_number   1
_chemical_formula_structural   CsBaCr3F12
_chemical_formula_sum   'Cs4 Ba4 Cr12 F48'
_cell_volume   1121.53487162
_cell_formula_units_Z   4
loop_
 _symmetry_equiv_pos_site_id
 _symmetry_equiv_pos_as_xyz
  1  'x, y, z'
loop_
 _atom_site_type_symbol
 _atom_site_label
 _atom_site_symmetry_multiplicity
 _atom_site_fract_x
 _atom_site_fract_y
 _atom_site_fract_z
 _atom_site_occupancy
  Cs  Cs0  1  0.27449500  0.50192400  0.96490600  1
  Cs  Cs1  1  0.50192400  0.27449500  0.46490600  1
  Cs  Cs2  1  0.72550500  0.49807600  0.03509400  1
  Cs  Cs3  1  0.49807600  0.72550500  0.53509400  1
  Ba  Ba4  1  0.74130100  0.00081600  0.00155800  1
  Ba  Ba5  1  0.00081600  0.74130100  0.50155800  1
  Ba  Ba6  1  0.99918400  0.25869900  0.49844200  1
  Ba  Ba7  1  0.25869900  0.99918400  0.99844200  1
  Cr  Cr8  1  0.14740700  0.41040600  0.76852200  1
  Cr  Cr9  1  0.84736600  0.95355500  0.23857200  1
  Cr  Cr10  1  0.95355500  0.84736600  0.73857200  1
  Cr  Cr11  1  0.41022300  0.77874500  0.27149500  1
  Cr  Cr12  1  0.58977700  0.22125500  0.72850500  1
  Cr  Cr13  1  0.85259300  0.58959400  0.23147800  1
  Cr  Cr14  1  0.22125500  0.58977700  0.22850500  1
  Cr  Cr15  1  0.41040600  0.14740700  0.26852200  1
  Cr  Cr16  1  0.04644500  0.15263400  0.26142800  1
  Cr  Cr17  1  0.15263400  0.04644500  0.76142800  1
  Cr  Cr18  1  0.77874500  0.41022300  0.77149500  1
  Cr  Cr19  1  0.58959400  0.85259300  0.73147800  1
  F  F20  1  0.06252900  0.89226300  0.58889400  1
  F  F21  1  0.18059200  0.92060800  0.29267100  1
  F  F22  1  0.21245100  0.18499400  0.78042600  1
  F  F23  1  0.18243700  0.16355200  0.61568900  1
  F  F24  1  0.45218700  0.91865700  0.30184200  1
  F  F25  1  0.07939200  0.81940800  0.20732900  1
  F  F26  1  0.08134300  0.54781300  0.19815800  1
  F  F27  1  0.47733300  0.88148400  0.12019700  1
  F  F28  1  0.89226300  0.06252900  0.08889400  1
  F  F29  1  0.11299900  0.88700100  0.75000000  1
  F  F30  1  0.66366400  0.32692900  0.58037200  1
  F  F31  1  0.37546800  0.62453200  0.25000000  1
  F  F32  1  0.81940800  0.07939200  0.70732900  1
  F  F33  1  0.11743100  0.32614200  0.91636400  1
  F  F34  1  0.83644800  0.81756300  0.88431100  1
  F  F35  1  0.91865700  0.45218700  0.80184200  1
  F  F36  1  0.78754900  0.81500600  0.21957400  1
  F  F37  1  0.09787500  0.62286200  0.76977600  1
  F  F38  1  0.62286200  0.09787500  0.26977600  1
  F  F39  1  0.54781300  0.08134300  0.69815800  1
  F  F40  1  0.88256900  0.67385800  0.08363600  1
  F  F41  1  0.48993700  0.17543700  0.12221600  1
  F  F42  1  0.92060800  0.18059200  0.79267100  1
  F  F43  1  0.90212500  0.37713800  0.23022400  1
  F  F44  1  0.81500600  0.78754900  0.71957400  1
  F  F45  1  0.67385800  0.88256900  0.58363600  1
  F  F46  1  0.81756300  0.83644900  0.38431100  1
  F  F47  1  0.10773700  0.93747100  0.91110600  1
  F  F48  1  0.52266700  0.11851600  0.87980300  1
  F  F49  1  0.82456300  0.51006300  0.37778400  1
  F  F50  1  0.62768000  0.61990900  0.26395300  1
  F  F51  1  0.33633600  0.67307100  0.41962800  1
  F  F52  1  0.61990900  0.62768000  0.76395300  1
  F  F53  1  0.32692900  0.66366400  0.08037200  1
  F  F54  1  0.93747100  0.10773700  0.41110600  1
  F  F55  1  0.16355200  0.18243700  0.11568900  1
  F  F56  1  0.62453200  0.37546800  0.75000000  1
  F  F57  1  0.11851600  0.52266700  0.37980300  1
  F  F58  1  0.17543700  0.48993700  0.62221600  1
  F  F59  1  0.88148400  0.47733300  0.62019700  1
  F  F60  1  0.18499400  0.21245100  0.28042600  1
  F  F61  1  0.32614200  0.11743100  0.41636400  1
  F  F62  1  0.88700100  0.11299900  0.25000000  1
  F  F63  1  0.38009100  0.37232000  0.23604700  1
  F  F64  1  0.67307100  0.33633600  0.91962800  1
  F  F65  1  0.51006300  0.82456300  0.87778400  1
  F  F66  1  0.37713800  0.90212500  0.73022400  1
  F  F67  1  0.37232000  0.38009100  0.73604700  1
