# generated using pymatgen
data_NaCdH3(CO2)3
_symmetry_space_group_name_H-M   'P 1'
_cell_length_a   6.54026200
_cell_length_b   7.37633500
_cell_length_c   14.37064200
_cell_angle_alpha   90.00000000
_cell_angle_beta   90.00000000
_cell_angle_gamma   90.00000000
_symmetry_Int_Tables_number   1
_chemical_formula_structural   NaCdH3(CO2)3
_chemical_formula_sum   'Na4 Cd4 H12 C12 O24'
_cell_volume   693.28523160
_cell_formula_units_Z   4
loop_
 _symmetry_equiv_pos_site_id
 _symmetry_equiv_pos_as_xyz
  1  'x, y, z'
loop_
 _atom_site_type_symbol
 _atom_site_label
 _atom_site_symmetry_multiplicity
 _atom_site_fract_x
 _atom_site_fract_y
 _atom_site_fract_z
 _atom_site_occupancy
  Na  Na0  1  0.75000000  0.50000000  0.27899800  1
  Na  Na1  1  0.25000000  0.50000000  0.22100200  1
  Na  Na2  1  0.75000000  0.50000000  0.77899800  1
  Na  Na3  1  0.25000000  0.50000000  0.72100200  1
  Cd  Cd4  1  0.75000000  0.00000000  0.42842800  1
  Cd  Cd5  1  0.25000000  0.00000000  0.57157200  1
  Cd  Cd6  1  0.75000000  0.00000000  0.92842800  1
  Cd  Cd7  1  0.25000000  0.00000000  0.07157200  1
  H  H8  1  0.00000000  0.95083200  0.75000000  1
  H  H9  1  0.00000000  0.04916800  0.25000000  1
  H  H10  1  0.29199000  0.33190000  0.43023300  1
  H  H11  1  0.50000000  0.95083200  0.25000000  1
  H  H12  1  0.20801000  0.66810000  0.43023300  1
  H  H13  1  0.79199000  0.33190000  0.56976700  1
  H  H14  1  0.70801000  0.66810000  0.56976700  1
  H  H15  1  0.50000000  0.04916800  0.75000000  1
  H  H16  1  0.79199000  0.66810000  0.06976700  1
  H  H17  1  0.29199000  0.66810000  0.93023300  1
  H  H18  1  0.20801000  0.33190000  0.93023300  1
  H  H19  1  0.70801000  0.33190000  0.06976700  1
  C  C20  1  0.63187000  0.70460100  0.08701200  1
  C  C21  1  0.00000000  0.10131400  0.75000000  1
  C  C22  1  0.86813000  0.29539900  0.08701200  1
  C  C23  1  0.50000000  0.89868600  0.75000000  1
  C  C24  1  0.50000000  0.10131400  0.25000000  1
  C  C25  1  0.63187000  0.29539900  0.58701200  1
  C  C26  1  0.00000000  0.89868600  0.25000000  1
  C  C27  1  0.36813000  0.29539900  0.91298800  1
  C  C28  1  0.86813000  0.70460100  0.58701200  1
  C  C29  1  0.36813000  0.70460100  0.41298800  1
  C  C30  1  0.13187000  0.29539900  0.41298800  1
  C  C31  1  0.13187000  0.70460100  0.91298800  1
  O  O32  1  0.46147500  0.38567400  0.85316700  1
  O  O33  1  0.44082000  0.15792700  0.95781300  1
  O  O34  1  0.60615100  0.18216700  0.31145600  1
  O  O35  1  0.05918000  0.15792700  0.45781300  1
  O  O36  1  0.03852500  0.61432600  0.85316700  1
  O  O37  1  0.94082000  0.84207300  0.54218700  1
  O  O38  1  0.44082000  0.84207300  0.45781300  1
  O  O39  1  0.60615100  0.81783300  0.81145600  1
  O  O40  1  0.89384900  0.18216700  0.81145600  1
  O  O41  1  0.55918000  0.84207300  0.04218700  1
  O  O42  1  0.39384900  0.81783300  0.68854400  1
  O  O43  1  0.96147500  0.61432600  0.64683300  1
  O  O44  1  0.96147500  0.38567400  0.14683300  1
  O  O45  1  0.10615100  0.81783300  0.18854400  1
  O  O46  1  0.53852500  0.38567400  0.64683300  1
  O  O47  1  0.10615100  0.18216700  0.68854400  1
  O  O48  1  0.39384900  0.18216700  0.18854400  1
  O  O49  1  0.55918000  0.15792700  0.54218700  1
  O  O50  1  0.05918000  0.84207300  0.95781300  1
  O  O51  1  0.53852500  0.61432600  0.14683300  1
  O  O52  1  0.89384900  0.81783300  0.31145600  1
  O  O53  1  0.94082000  0.15792700  0.04218700  1
  O  O54  1  0.03852500  0.38567400  0.35316700  1
  O  O55  1  0.46147500  0.61432600  0.35316700  1
