# generated using pymatgen
data_Sn2WO5
_symmetry_space_group_name_H-M   'P 1'
_cell_length_a   14.10663500
_cell_length_b   8.21719200
_cell_length_c   10.88744838
_cell_angle_alpha   66.34596811
_cell_angle_beta   90.00000000
_cell_angle_gamma   90.00000000
_symmetry_Int_Tables_number   1
_chemical_formula_structural   Sn2WO5
_chemical_formula_sum   'Sn16 W8 O40'
_cell_volume   1156.00903947
_cell_formula_units_Z   8
loop_
 _symmetry_equiv_pos_site_id
 _symmetry_equiv_pos_as_xyz
  1  'x, y, z'
loop_
 _atom_site_type_symbol
 _atom_site_label
 _atom_site_symmetry_multiplicity
 _atom_site_fract_x
 _atom_site_fract_y
 _atom_site_fract_z
 _atom_site_occupancy
  Sn  Sn0  1  0.10281600  0.91228900  0.27055800  1
  Sn  Sn1  1  0.89718400  0.08771100  0.72944200  1
  Sn  Sn2  1  0.84377200  0.55268500  0.38324400  1
  Sn  Sn3  1  0.65219500  0.23277300  0.54631400  1
  Sn  Sn4  1  0.65622800  0.55268500  0.88324400  1
  Sn  Sn5  1  0.60015900  0.69480300  0.19681900  1
  Sn  Sn6  1  0.39984100  0.30519700  0.80318100  1
  Sn  Sn7  1  0.34780500  0.76722700  0.45368600  1
  Sn  Sn8  1  0.39718400  0.91228900  0.77055800  1
  Sn  Sn9  1  0.84780500  0.23277300  0.04631400  1
  Sn  Sn10  1  0.60281600  0.08771100  0.22944200  1
  Sn  Sn11  1  0.15622800  0.44731500  0.61675600  1
  Sn  Sn12  1  0.15219500  0.76722700  0.95368600  1
  Sn  Sn13  1  0.89984100  0.69480300  0.69681900  1
  Sn  Sn14  1  0.10015900  0.30519700  0.30318100  1
  Sn  Sn15  1  0.34377200  0.44731500  0.11675600  1
  W  W16  1  0.17079400  0.27656900  0.96979800  1
  W  W17  1  0.82920600  0.72343100  0.03020200  1
  W  W18  1  0.67079400  0.72343100  0.53020200  1
  W  W19  1  0.32920600  0.27656900  0.46979800  1
  W  W20  1  0.17645300  0.94118100  0.60137700  1
  W  W21  1  0.82354700  0.05881900  0.39862300  1
  W  W22  1  0.67645300  0.05881900  0.89862300  1
  W  W23  1  0.32354700  0.94118100  0.10137700  1
  O  O24  1  0.38437900  0.19347300  0.65390700  1
  O  O25  1  0.18375600  0.19468100  0.56206300  1
  O  O26  1  0.21718500  0.73098200  0.57809300  1
  O  O27  1  0.74369600  0.12227800  0.72498400  1
  O  O28  1  0.75630400  0.12227800  0.22498400  1
  O  O29  1  0.82006400  0.97956700  0.98475400  1
  O  O30  1  0.12187400  0.02445500  0.41930400  1
  O  O31  1  0.25957300  0.33616300  0.29883900  1
  O  O32  1  0.88437900  0.80652700  0.84609300  1
  O  O33  1  0.62187400  0.97554500  0.08069600  1
  O  O34  1  0.74042700  0.66383700  0.70116100  1
  O  O35  1  0.25630400  0.87772200  0.27501600  1
  O  O36  1  0.24369600  0.87772200  0.77501600  1
  O  O37  1  0.37812600  0.02445500  0.91930400  1
  O  O38  1  0.71718500  0.26901800  0.92190700  1
  O  O39  1  0.61562100  0.80652700  0.34609300  1
  O  O40  1  0.28753200  0.48535100  0.49544500  1
  O  O41  1  0.56683800  0.13186800  0.80908500  1
  O  O42  1  0.93316200  0.13186800  0.30908500  1
  O  O43  1  0.93762300  0.65431100  0.11827600  1
  O  O44  1  0.81624400  0.80531900  0.43793700  1
  O  O45  1  0.32006400  0.02043300  0.51524600  1
  O  O46  1  0.06683800  0.86813200  0.69091500  1
  O  O47  1  0.21246800  0.48535100  0.99544500  1
  O  O48  1  0.87812600  0.97554500  0.58069600  1
  O  O49  1  0.68375600  0.80531900  0.93793700  1
  O  O50  1  0.43762300  0.34568900  0.38172400  1
  O  O51  1  0.67993600  0.97956700  0.48475400  1
  O  O52  1  0.71246800  0.51464900  0.50455500  1
  O  O53  1  0.28281500  0.73098200  0.07809300  1
  O  O54  1  0.31624400  0.19468100  0.06206300  1
  O  O55  1  0.78753200  0.51464900  0.00455500  1
  O  O56  1  0.43316200  0.86813200  0.19091500  1
  O  O57  1  0.78281500  0.26901800  0.42190700  1
  O  O58  1  0.24042700  0.33616300  0.79883900  1
  O  O59  1  0.75957300  0.66383700  0.20116100  1
  O  O60  1  0.56237700  0.65431100  0.61827600  1
  O  O61  1  0.11562100  0.19347300  0.15390700  1
  O  O62  1  0.06237700  0.34568900  0.88172400  1
  O  O63  1  0.17993600  0.02043300  0.01524600  1
