# generated using pymatgen
data_MnB4O7
_symmetry_space_group_name_H-M   'P 1'
_cell_length_a   6.43544000
_cell_length_b   8.30243324
_cell_length_c   8.30217047
_cell_angle_alpha   78.36459566
_cell_angle_beta   110.67159263
_cell_angle_gamma   110.66851619
_symmetry_Int_Tables_number   1
_chemical_formula_structural   MnB4O7
_chemical_formula_sum   'Mn4 B16 O28'
_cell_volume   386.80494775
_cell_formula_units_Z   4
loop_
 _symmetry_equiv_pos_site_id
 _symmetry_equiv_pos_as_xyz
  1  'x, y, z'
loop_
 _atom_site_type_symbol
 _atom_site_label
 _atom_site_symmetry_multiplicity
 _atom_site_fract_x
 _atom_site_fract_y
 _atom_site_fract_z
 _atom_site_occupancy
  Mn  Mn0  1  0.77763300  0.51380800  0.26382100  1
  Mn  Mn1  1  0.22237400  0.48619300  0.73618600  1
  Mn  Mn2  1  0.77759000  0.01379900  0.76379400  1
  Mn  Mn3  1  0.22240600  0.98620400  0.23620100  1
  B  B4  1  0.32361700  0.66745000  0.41742100  1
  B  B5  1  0.32359600  0.16742800  0.91743000  1
  B  B6  1  0.91512800  0.21316700  0.46319500  1
  B  B7  1  0.91513800  0.71319400  0.96319400  1
  B  B8  1  0.08487400  0.78683500  0.53680400  1
  B  B9  1  0.08486200  0.28680500  0.03680700  1
  B  B10  1  0.67638300  0.33254900  0.58257800  1
  B  B11  1  0.67640400  0.83257100  0.08257000  1
  B  B12  1  0.70678300  0.14659100  0.14659400  1
  B  B13  1  0.70680000  0.64660900  0.64660500  1
  B  B14  1  0.29319800  0.35339000  0.35339500  1
  B  B15  1  0.29321400  0.85340700  0.85340700  1
  B  B16  1  0.29320500  0.10339700  0.60340100  1
  B  B17  1  0.29320600  0.60340600  0.10339900  1
  B  B18  1  0.70679300  0.89660200  0.39659700  1
  B  B19  1  0.70679500  0.39659400  0.89660300  1
  O  O20  1  0.90072200  0.32532700  0.57539700  1
  O  O21  1  0.90072600  0.82532600  0.07540100  1
  O  O22  1  0.09927800  0.67467400  0.42460300  1
  O  O23  1  0.09927000  0.17467400  0.92460000  1
  O  O24  1  0.24281100  0.03066100  0.78065300  1
  O  O25  1  0.24280800  0.53065800  0.28065400  1
  O  O26  1  0.18868400  0.25359000  0.50359200  1
  O  O27  1  0.18868800  0.75358800  0.00359100  1
  O  O28  1  0.81132000  0.74641100  0.49640800  1
  O  O29  1  0.81130900  0.24641100  0.99640600  1
  O  O30  1  0.75719200  0.96934300  0.21934900  1
  O  O31  1  0.75719000  0.46934100  0.71934200  1
  O  O32  1  0.18973300  0.96574700  0.49005400  1
  O  O33  1  0.18973700  0.46575500  0.99005600  1
  O  O34  1  0.54420400  0.16729800  0.64296900  1
  O  O35  1  0.54419300  0.66728800  0.14297300  1
  O  O36  1  0.18972600  0.74004600  0.71574400  1
  O  O37  1  0.18973500  0.24005000  0.21574800  1
  O  O38  1  0.45579900  0.83270300  0.35703400  1
  O  O39  1  0.45580500  0.33271100  0.85702800  1
  O  O40  1  0.81027000  0.03425500  0.50994400  1
  O  O41  1  0.81026300  0.53424600  0.00994600  1
  O  O42  1  0.45579200  0.60702900  0.58270300  1
  O  O43  1  0.45579300  0.10702800  0.08270600  1
  O  O44  1  0.54421100  0.39297100  0.41729500  1
  O  O45  1  0.54420100  0.89296900  0.91729100  1
  O  O46  1  0.81027500  0.25995400  0.28425900  1
  O  O47  1  0.81026500  0.75994700  0.78425000  1
