# generated using pymatgen
data_Nd4Ti9O24
_symmetry_space_group_name_H-M   'P 1'
_cell_length_a   19.25178352
_cell_length_b   19.16134667
_cell_length_c   10.16954340
_cell_angle_alpha   75.14034843
_cell_angle_beta   74.15764139
_cell_angle_gamma   30.70201018
_symmetry_Int_Tables_number   1
_chemical_formula_structural   Nd4Ti9O24
_chemical_formula_sum   'Nd16 Ti36 O96'
_cell_volume   1840.82984973
_cell_formula_units_Z   4
loop_
 _symmetry_equiv_pos_site_id
 _symmetry_equiv_pos_as_xyz
  1  'x, y, z'
loop_
 _atom_site_type_symbol
 _atom_site_label
 _atom_site_symmetry_multiplicity
 _atom_site_fract_x
 _atom_site_fract_y
 _atom_site_fract_z
 _atom_site_occupancy
  Nd  Nd0  1  0.49826400  0.50918700  0.79942800  1
  Nd  Nd1  1  0.75173600  0.74081300  0.45057200  1
  Nd  Nd2  1  0.35731400  0.35731400  0.64268600  1
  Nd  Nd3  1  0.79942800  0.19312100  0.49826400  1
  Nd  Nd4  1  0.19312100  0.79942800  0.50918700  1
  Nd  Nd5  1  0.74081300  0.75173600  0.05687900  1
  Nd  Nd6  1  0.12876000  0.12876000  0.87124000  1
  Nd  Nd7  1  0.05687900  0.45057200  0.74081300  1
  Nd  Nd8  1  0.60731400  0.60731400  0.89268600  1
  Nd  Nd9  1  0.64268600  0.64268600  0.35731400  1
  Nd  Nd10  1  0.37876000  0.37876000  0.12124000  1
  Nd  Nd11  1  0.50918700  0.49826400  0.19312100  1
  Nd  Nd12  1  0.89268600  0.89268600  0.60731400  1
  Nd  Nd13  1  0.87124000  0.87124000  0.12876000  1
  Nd  Nd14  1  0.45057200  0.05687900  0.75173600  1
  Nd  Nd15  1  0.12124000  0.12124000  0.37876000  1
  Ti  Ti16  1  0.62079000  0.05363100  0.44057900  1
  Ti  Ti17  1  0.44057900  0.88500000  0.62079000  1
  Ti  Ti18  1  0.62921000  0.19636900  0.80942100  1
  Ti  Ti19  1  0.05092600  0.54101200  0.18554900  1
  Ti  Ti20  1  0.70898800  0.19907400  0.02748700  1
  Ti  Ti21  1  0.91131000  0.42901800  0.58743100  1
  Ti  Ti22  1  0.93857300  0.98049900  0.80878900  1
  Ti  Ti23  1  0.18554900  0.22251300  0.05092600  1
  Ti  Ti24  1  0.02748700  0.06445100  0.70898800  1
  Ti  Ti25  1  0.33869000  0.82098200  0.66256900  1
  Ti  Ti26  1  0.05363100  0.62079000  0.88500000  1
  Ti  Ti27  1  0.54489000  0.54489000  0.45511000  1
  Ti  Ti28  1  0.98049900  0.93857300  0.27213900  1
  Ti  Ti29  1  0.66256900  0.17775900  0.33869000  1
  Ti  Ti30  1  0.80878900  0.27213900  0.93857300  1
  Ti  Ti31  1  0.45511000  0.45511000  0.54489000  1
  Ti  Ti32  1  0.88500000  0.44057900  0.05363100  1
  Ti  Ti33  1  0.07224100  0.58743100  0.42901800  1
  Ti  Ti34  1  0.82098200  0.33869000  0.17775900  1
  Ti  Ti35  1  0.19907400  0.70898800  0.06445100  1
  Ti  Ti36  1  0.19636900  0.62921000  0.36500000  1
  Ti  Ti37  1  0.54101200  0.05092600  0.22251300  1
  Ti  Ti38  1  0.70511000  0.70511000  0.79489000  1
  Ti  Ti39  1  0.80942100  0.36500000  0.62921100  1
  Ti  Ti40  1  0.31142700  0.26950100  0.44121100  1
  Ti  Ti41  1  0.42901800  0.91131000  0.07224100  1
  Ti  Ti42  1  0.58743100  0.07224100  0.91131000  1
  Ti  Ti43  1  0.79489000  0.79489000  0.70511000  1
  Ti  Ti44  1  0.27213900  0.80878900  0.98049900  1
  Ti  Ti45  1  0.36500000  0.80942100  0.19636900  1
  Ti  Ti46  1  0.26950100  0.31142700  0.97786100  1
  Ti  Ti47  1  0.22251300  0.18554900  0.54101200  1
  Ti  Ti48  1  0.17775900  0.66256900  0.82098200  1
  Ti  Ti49  1  0.97786100  0.44121100  0.26950100  1
  Ti  Ti50  1  0.44121100  0.97786100  0.31142700  1
  Ti  Ti51  1  0.06445100  0.02748700  0.19907400  1
  O  O52  1  0.98523700  0.01866300  0.34498300  1
  O  O53  1  0.49460300  0.67082400  0.32064900  1
  O  O54  1  0.77293700  0.46708400  0.21240500  1
  O  O55  1  0.85731100  0.56167600  0.65232500  1
  O  O56  1  0.16870300  0.98596000  0.57130700  1
  O  O57  1  0.26404000  0.08129700  0.97596900  1
  O  O58  1  0.42489700  0.70767900  0.82655000  1
  O  O59  1  0.82510300  0.54232100  0.42345000  1
  O  O60  1  0.17064000  0.91644000  0.82609200  1
  O  O61  1  0.42345000  0.20912600  0.82510300  1
  O  O62  1  0.46708400  0.77293700  0.54757300  1
  O  O63  1  0.75539700  0.57917600  0.92935100  1
  O  O64  1  0.58497000  0.31331700  0.88367000  1
  O  O65  1  0.82655000  0.04087400  0.42489700  1
  O  O66  1  0.03195600  0.36633000  0.93668300  1
  O  O67  1  0.54757300  0.21240500  0.46708400  1
  O  O68  1  0.79726200  0.04738900  0.95320600  1
  O  O69  1  0.16317300  0.42390800  0.33356000  1
  O  O70  1  0.57917600  0.75539700  0.73607700  1
  O  O71  1  0.21240500  0.54757300  0.77293700  1
  O  O72  1  0.41905600  0.68982800  0.09612500  1
  O  O73  1  0.32064900  0.51392300  0.49460300  1
  O  O74  1  0.20214300  0.95320600  0.04738900  1
  O  O75  1  0.73248800  0.02411700  0.30148600  1
  O  O76  1  0.88367000  0.21804400  0.58497000  1
  O  O77  1  0.20912600  0.42345000  0.54232100  1
  O  O78  1  0.02411700  0.73248800  0.94190900  1
  O  O79  1  0.97596900  0.67869300  0.26404000  1
  O  O80  1  0.01866300  0.98523700  0.65111700  1
  O  O81  1  0.91644000  0.17064000  0.08682700  1
  O  O82  1  0.30809100  0.94851400  0.22588300  1
  O  O83  1  0.95320600  0.20214300  0.79726200  1
  O  O84  1  0.78291600  0.47706300  0.70242700  1
  O  O85  1  0.34498300  0.65111700  0.98523700  1
  O  O86  1  0.70767900  0.42489700  0.04087400  1
  O  O87  1  0.66503000  0.93668300  0.36633000  1
  O  O88  1  0.54232100  0.82510300  0.20912600  1
  O  O89  1  0.33356000  0.07936000  0.16317300  1
  O  O90  1  0.45500900  0.15387500  0.56017200  1
  O  O91  1  0.51751200  0.22588300  0.94851400  1
  O  O92  1  0.82609200  0.08682700  0.17064000  1
  O  O93  1  0.83094400  0.56017200  0.15387500  1
  O  O94  1  0.83795000  0.66205000  0.83795000  1
  O  O95  1  0.98596000  0.16870300  0.27403100  1
  O  O96  1  0.65232500  0.92868800  0.85731100  1
  O  O97  1  0.23133700  0.26476300  0.59888300  1
  O  O98  1  0.67082400  0.49460300  0.51392300  1
  O  O99  1  0.87390000  0.12610000  0.87390000  1
  O  O100  1  0.12390000  0.37610000  0.12390000  1
  O  O101  1  0.47706300  0.78291600  0.03759500  1
  O  O102  1  0.79499100  0.09612500  0.68982800  1
  O  O103  1  0.59888300  0.90501700  0.23133700  1
  O  O104  1  0.07936000  0.33356000  0.42390800  1
  O  O105  1  0.36633000  0.03195600  0.66503000  1
  O  O106  1  0.94851400  0.30809100  0.51751200  1
  O  O107  1  0.08682700  0.82609200  0.91644000  1
  O  O108  1  0.92868800  0.65232500  0.56167600  1
  O  O109  1  0.04738900  0.79726200  0.20214300  1
  O  O110  1  0.58795000  0.41205000  0.58795000  1
  O  O111  1  0.94190900  0.30148600  0.02411700  1
  O  O112  1  0.39268900  0.68832400  0.59767500  1
  O  O113  1  0.37610000  0.12390000  0.37610000  1
  O  O114  1  0.65111700  0.34498300  0.01866300  1
  O  O115  1  0.29679400  0.04785700  0.45273800  1
  O  O116  1  0.04785700  0.29679400  0.20261100  1
  O  O117  1  0.73607700  0.92935100  0.57917600  1
  O  O118  1  0.56017200  0.83094400  0.45500900  1
  O  O119  1  0.51392300  0.32064900  0.67082400  1
  O  O120  1  0.56167600  0.85731100  0.92868800  1
  O  O121  1  0.90501700  0.59888300  0.26476300  1
  O  O122  1  0.67869300  0.97596900  0.08129700  1
  O  O123  1  0.31331700  0.58497000  0.21804400  1
  O  O124  1  0.93668300  0.66503000  0.03195600  1
  O  O125  1  0.12610000  0.87390000  0.12610000  1
  O  O126  1  0.66205000  0.83795000  0.66205000  1
  O  O127  1  0.30148600  0.94190900  0.73248800  1
  O  O128  1  0.70242700  0.03759500  0.78291600  1
  O  O129  1  0.21804400  0.88367000  0.31331700  1
  O  O130  1  0.26476300  0.23133700  0.90501700  1
  O  O131  1  0.08129700  0.26404000  0.67869300  1
  O  O132  1  0.03759500  0.70242700  0.47706300  1
  O  O133  1  0.92935100  0.73607700  0.75539700  1
  O  O134  1  0.68982800  0.41905600  0.79499100  1
  O  O135  1  0.42390800  0.16317300  0.07936000  1
  O  O136  1  0.41205000  0.58795000  0.41205000  1
  O  O137  1  0.09612500  0.79499100  0.41905600  1
  O  O138  1  0.22588200  0.51751200  0.30809100  1
  O  O139  1  0.45273800  0.20261100  0.29679400  1
  O  O140  1  0.04087400  0.82655000  0.70767900  1
  O  O141  1  0.68832400  0.39268900  0.32131200  1
  O  O142  1  0.27403100  0.57130700  0.98596000  1
  O  O143  1  0.59767500  0.32131200  0.39268900  1
  O  O144  1  0.20261100  0.45273800  0.04785700  1
  O  O145  1  0.32131200  0.59767500  0.68832400  1
  O  O146  1  0.15387500  0.45500900  0.83094400  1
  O  O147  1  0.57130700  0.27403100  0.16870300  1
