# generated using pymatgen
data_K2MoH2(CO4)2
_symmetry_space_group_name_H-M   'P 1'
_cell_length_a   12.94994600
_cell_length_b   7.66104500
_cell_length_c   8.84385996
_cell_angle_alpha   86.03069518
_cell_angle_beta   90.00000000
_cell_angle_gamma   90.00000000
_symmetry_Int_Tables_number   1
_chemical_formula_structural   K2MoH2(CO4)2
_chemical_formula_sum   'K8 Mo4 H8 C8 O32'
_cell_volume   875.29576003
_cell_formula_units_Z   4
loop_
 _symmetry_equiv_pos_site_id
 _symmetry_equiv_pos_as_xyz
  1  'x, y, z'
loop_
 _atom_site_type_symbol
 _atom_site_label
 _atom_site_symmetry_multiplicity
 _atom_site_fract_x
 _atom_site_fract_y
 _atom_site_fract_z
 _atom_site_occupancy
  K  K0  1  0.88846100  0.68637800  0.89520400  1
  K  K1  1  0.11153900  0.31362200  0.10479600  1
  K  K2  1  0.01445200  0.77490400  0.36088100  1
  K  K3  1  0.48554800  0.27490400  0.36088100  1
  K  K4  1  0.98554800  0.22509600  0.63911900  1
  K  K5  1  0.61153900  0.18637800  0.89520400  1
  K  K6  1  0.51445200  0.72509600  0.63911900  1
  K  K7  1  0.38846100  0.81362200  0.10479600  1
  Mo  Mo8  1  0.76499500  0.93901400  0.55530700  1
  Mo  Mo9  1  0.73500500  0.43901400  0.55530700  1
  Mo  Mo10  1  0.26499500  0.56098600  0.44469300  1
  Mo  Mo11  1  0.23500500  0.06098600  0.44469300  1
  H  H12  1  0.37986600  0.23840000  0.04598800  1
  H  H13  1  0.87986600  0.26160000  0.95401200  1
  H  H14  1  0.38532700  0.43439300  0.99495800  1
  H  H15  1  0.11467300  0.93439300  0.99495800  1
  H  H16  1  0.88532700  0.06560700  0.00504200  1
  H  H17  1  0.12013400  0.73840000  0.04598800  1
  H  H18  1  0.62013400  0.76160000  0.95401200  1
  H  H19  1  0.61467300  0.56560700  0.00504200  1
  C  C20  1  0.24775400  0.57199100  0.79213300  1
  C  C21  1  0.74775400  0.92800900  0.20786700  1
  C  C22  1  0.36383200  0.03271900  0.73741200  1
  C  C23  1  0.13616800  0.53271900  0.73741200  1
  C  C24  1  0.25224600  0.07199100  0.79213300  1
  C  C25  1  0.63616800  0.96728100  0.26258800  1
  C  C26  1  0.86383200  0.46728100  0.26258800  1
  C  C27  1  0.75224600  0.42800900  0.20786700  1
  O  O28  1  0.60791900  0.37888500  0.61178800  1
  O  O29  1  0.22068700  0.82265900  0.47708100  1
  O  O30  1  0.12570400  0.52982100  0.59259600  1
  O  O31  1  0.39208100  0.62111500  0.38821200  1
  O  O32  1  0.93412800  0.49860800  0.16828900  1
  O  O33  1  0.56587200  0.99860800  0.16828900  1
  O  O34  1  0.18461900  0.08861700  0.68601900  1
  O  O35  1  0.06587200  0.50139200  0.83171100  1
  O  O36  1  0.69122200  0.92322600  0.72306700  1
  O  O37  1  0.62570400  0.97017900  0.40740400  1
  O  O38  1  0.92736600  0.16206900  0.95884600  1
  O  O39  1  0.23474300  0.08103200  0.93073100  1
  O  O40  1  0.89208100  0.87888500  0.61178800  1
  O  O41  1  0.80877800  0.42322600  0.72306700  1
  O  O42  1  0.27931300  0.32265900  0.47708100  1
  O  O43  1  0.73474300  0.41896800  0.06926900  1
  O  O44  1  0.57263400  0.66206900  0.95884600  1
  O  O45  1  0.19122200  0.57677400  0.27693300  1
  O  O46  1  0.30877800  0.07677400  0.27693300  1
  O  O47  1  0.26525700  0.58103200  0.93073100  1
  O  O48  1  0.81538100  0.91138300  0.31398100  1
  O  O49  1  0.87429600  0.47017900  0.40740400  1
  O  O50  1  0.31538100  0.58861700  0.68601900  1
  O  O51  1  0.37429600  0.02982100  0.59259600  1
  O  O52  1  0.10791900  0.12111500  0.38821200  1
  O  O53  1  0.43412800  0.00139200  0.83171100  1
  O  O54  1  0.72068700  0.67734100  0.52291900  1
  O  O55  1  0.68461900  0.41138300  0.31398100  1
  O  O56  1  0.76525700  0.91896800  0.06926900  1
  O  O57  1  0.77931300  0.17734100  0.52291900  1
  O  O58  1  0.42736600  0.33793100  0.04115400  1
  O  O59  1  0.07263400  0.83793100  0.04115400  1
