# generated using pymatgen
data_YNiSO7
_symmetry_space_group_name_H-M   'P 1'
_cell_length_a   15.79844111
_cell_length_b   6.13508901
_cell_length_c   6.66635401
_cell_angle_alpha   89.99544949
_cell_angle_beta   89.99223859
_cell_angle_gamma   89.99302033
_symmetry_Int_Tables_number   1
_chemical_formula_structural   YNiSO7
_chemical_formula_sum   'Y4 Ni4 S4 O28'
_cell_volume   646.13529954
_cell_formula_units_Z   4
loop_
 _symmetry_equiv_pos_site_id
 _symmetry_equiv_pos_as_xyz
  1  'x, y, z'
loop_
 _atom_site_type_symbol
 _atom_site_label
 _atom_site_symmetry_multiplicity
 _atom_site_fract_x
 _atom_site_fract_y
 _atom_site_fract_z
 _atom_site_occupancy
  Y  Y0  1  0.94044500  0.76699700  0.32482400  1
  Y  Y1  1  0.55952700  0.23328900  0.82476200  1
  Y  Y2  1  0.44042100  0.73333100  0.67532900  1
  Y  Y3  1  0.05962400  0.26694800  0.17524700  1
  Ni  Ni4  1  0.98224500  0.51912200  0.79914000  1
  Ni  Ni5  1  0.51793100  0.48130000  0.29919500  1
  Ni  Ni6  1  0.48197900  0.98132000  0.20091000  1
  Ni  Ni7  1  0.01779800  0.01920400  0.70098500  1
  S  S8  1  0.10884900  0.82596500  0.02921600  1
  S  S9  1  0.39099900  0.17413700  0.52924700  1
  S  S10  1  0.60890000  0.67406600  0.97086100  1
  S  S11  1  0.89128100  0.32595100  0.47078100  1
  O  O12  1  0.31020100  0.61415600  0.89474000  1
  O  O13  1  0.18984600  0.38510300  0.39524900  1
  O  O14  1  0.81028200  0.88616100  0.10502800  1
  O  O15  1  0.68975200  0.11527100  0.60396400  1
  O  O16  1  0.29210800  0.50358900  0.04323700  1
  O  O17  1  0.20732400  0.49648700  0.54364500  1
  O  O18  1  0.79243100  0.99468100  0.95509000  1
  O  O19  1  0.70802400  0.00189000  0.45742400  1
  O  O20  1  0.05819500  0.27957400  0.82286800  1
  O  O21  1  0.44191800  0.72076200  0.32288500  1
  O  O22  1  0.55798200  0.22074700  0.17723800  1
  O  O23  1  0.94188700  0.77953900  0.67724600  1
  O  O24  1  0.16692500  0.01435700  0.07686300  1
  O  O25  1  0.33301700  0.98562400  0.57728800  1
  O  O26  1  0.66690000  0.48552900  0.92290500  1
  O  O27  1  0.83317400  0.51439100  0.42338200  1
  O  O28  1  0.10623100  0.78412600  0.80259000  1
  O  O29  1  0.39348300  0.21566900  0.30257100  1
  O  O30  1  0.60640800  0.71566600  0.19751700  1
  O  O31  1  0.89392200  0.28381900  0.69739100  1
  O  O32  1  0.98541200  0.43844500  0.44825200  1
  O  O33  1  0.51471000  0.56193400  0.94835400  1
  O  O34  1  0.48520700  0.06200300  0.55175000  1
  O  O35  1  0.01469200  0.93840100  0.05181500  1
  O  O36  1  0.96759200  0.51944500  0.07664100  1
  O  O37  1  0.53240000  0.48076500  0.57670400  1
  O  O38  1  0.46753500  0.98078900  0.92340400  1
  O  O39  1  0.03244500  0.01944600  0.42346200  1
