# generated using pymatgen
data_Rb5CeNi2(NO2)12
_symmetry_space_group_name_H-M   'P 1'
_cell_length_a   10.96219500
_cell_length_b   10.96219500
_cell_length_c   10.96219500
_cell_angle_alpha   90.00000000
_cell_angle_beta   90.00000000
_cell_angle_gamma   90.00000000
_symmetry_Int_Tables_number   1
_chemical_formula_structural   Rb5CeNi2(NO2)12
_chemical_formula_sum   'Rb10 Ce2 Ni4 N24 O48'
_cell_volume   1317.32389516
_cell_formula_units_Z   2
loop_
 _symmetry_equiv_pos_site_id
 _symmetry_equiv_pos_as_xyz
  1  'x, y, z'
loop_
 _atom_site_type_symbol
 _atom_site_label
 _atom_site_symmetry_multiplicity
 _atom_site_fract_x
 _atom_site_fract_y
 _atom_site_fract_z
 _atom_site_occupancy
  Rb  Rb0  1  0.25000000  0.25000000  0.75000000  1
  Rb  Rb1  1  0.25000000  0.75000000  0.25000000  1
  Rb  Rb2  1  0.00000000  0.50000000  0.50000000  1
  Rb  Rb3  1  0.50000000  0.00000000  0.00000000  1
  Rb  Rb4  1  0.50000000  0.00000000  0.50000000  1
  Rb  Rb5  1  0.75000000  0.75000000  0.75000000  1
  Rb  Rb6  1  0.50000000  0.50000000  0.00000000  1
  Rb  Rb7  1  0.00000000  0.50000000  0.00000000  1
  Rb  Rb8  1  0.75000000  0.25000000  0.25000000  1
  Rb  Rb9  1  0.00000000  0.00000000  0.50000000  1
  Ce  Ce10  1  0.00000000  0.00000000  0.00000000  1
  Ce  Ce11  1  0.50000000  0.50000000  0.50000000  1
  Ni  Ni12  1  0.75000000  0.75000000  0.25000000  1
  Ni  Ni13  1  0.25000000  0.75000000  0.75000000  1
  Ni  Ni14  1  0.75000000  0.25000000  0.75000000  1
  Ni  Ni15  1  0.25000000  0.25000000  0.25000000  1
  N  N16  1  0.25669700  0.25757800  0.44152500  1
  N  N17  1  0.55847500  0.74330300  0.25757800  1
  N  N18  1  0.44152500  0.74330300  0.74242200  1
  N  N19  1  0.25757800  0.55847500  0.74330300  1
  N  N20  1  0.74330300  0.74242200  0.44152500  1
  N  N21  1  0.75757800  0.05847500  0.75669700  1
  N  N22  1  0.05847500  0.75669700  0.75757800  1
  N  N23  1  0.55847500  0.25669700  0.74242200  1
  N  N24  1  0.25757800  0.44152500  0.25669700  1
  N  N25  1  0.75669700  0.24242200  0.94152500  1
  N  N26  1  0.74242200  0.55847500  0.25669700  1
  N  N27  1  0.24330300  0.24242200  0.05847500  1
  N  N28  1  0.25669700  0.74242200  0.55847500  1
  N  N29  1  0.75757800  0.94152500  0.24330300  1
  N  N30  1  0.44152500  0.25669700  0.25757800  1
  N  N31  1  0.24242200  0.94152500  0.75669700  1
  N  N32  1  0.24242200  0.05847500  0.24330300  1
  N  N33  1  0.94152500  0.75669700  0.24242200  1
  N  N34  1  0.74242200  0.44152500  0.74330300  1
  N  N35  1  0.74330300  0.25757800  0.55847500  1
  N  N36  1  0.24330300  0.75757800  0.94152500  1
  N  N37  1  0.75669700  0.75757800  0.05847500  1
  N  N38  1  0.94152500  0.24330300  0.75757800  1
  N  N39  1  0.05847500  0.24330300  0.24242200  1
  O  O40  1  0.26626700  0.00011200  0.66149300  1
  O  O41  1  0.76626700  0.50011200  0.83850700  1
  O  O42  1  0.16149300  0.76626700  0.49988800  1
  O  O43  1  0.99988800  0.33850700  0.26626700  1
  O  O44  1  0.66149300  0.26626700  0.00011200  1
  O  O45  1  0.99778700  0.85070700  0.78926300  1
  O  O46  1  0.14929300  0.78926300  0.00221300  1
  O  O47  1  0.28926300  0.50221300  0.35070700  1
  O  O48  1  0.33850700  0.73373300  0.00011200  1
  O  O49  1  0.21073700  0.99778700  0.14929300  1
  O  O50  1  0.83850700  0.76626700  0.50011200  1
  O  O51  1  0.14929300  0.21073700  0.99778700  1
  O  O52  1  0.49988800  0.16149300  0.76626700  1
  O  O53  1  0.64929300  0.28926300  0.49778700  1
  O  O54  1  0.21073700  0.00221300  0.85070700  1
  O  O55  1  0.66149300  0.73373300  0.99988800  1
  O  O56  1  0.64929300  0.71073700  0.50221300  1
  O  O57  1  0.00011200  0.66149300  0.26626700  1
  O  O58  1  0.83850700  0.23373300  0.49988800  1
  O  O59  1  0.85070700  0.21073700  0.00221300  1
  O  O60  1  0.71073700  0.50221300  0.64929300  1
  O  O61  1  0.00011200  0.33850700  0.73373300  1
  O  O62  1  0.99778700  0.14929300  0.21073700  1
  O  O63  1  0.49988800  0.83850700  0.23373300  1
  O  O64  1  0.76626700  0.49988800  0.16149300  1
  O  O65  1  0.00221300  0.14929300  0.78926300  1
  O  O66  1  0.16149300  0.23373300  0.50011200  1
  O  O67  1  0.73373300  0.00011200  0.33850700  1
  O  O68  1  0.33850700  0.26626700  0.99988800  1
  O  O69  1  0.71073700  0.49778700  0.35070700  1
  O  O70  1  0.50221300  0.35070700  0.28926300  1
  O  O71  1  0.35070700  0.28926300  0.50221300  1
  O  O72  1  0.99988800  0.66149300  0.73373300  1
  O  O73  1  0.49778700  0.64929300  0.28926300  1
  O  O74  1  0.50011200  0.83850700  0.76626700  1
  O  O75  1  0.26626700  0.99988800  0.33850700  1
  O  O76  1  0.50221300  0.64929300  0.71073700  1
  O  O77  1  0.50011200  0.16149300  0.23373300  1
  O  O78  1  0.73373300  0.99988800  0.66149300  1
  O  O79  1  0.23373300  0.49988800  0.83850700  1
  O  O80  1  0.85070700  0.78926300  0.99778700  1
  O  O81  1  0.00221300  0.85070700  0.21073700  1
  O  O82  1  0.78926300  0.00221300  0.14929300  1
  O  O83  1  0.35070700  0.71073700  0.49778700  1
  O  O84  1  0.23373300  0.50011200  0.16149300  1
  O  O85  1  0.28926300  0.49778700  0.64929300  1
  O  O86  1  0.49778700  0.35070700  0.71073700  1
  O  O87  1  0.78926300  0.99778700  0.85070700  1
