# generated using pymatgen
data_CdHg4C6S6(Br2N3)2
_symmetry_space_group_name_H-M   'P 1'
_cell_length_a   15.24002789
_cell_length_b   12.39695364
_cell_length_c   10.00049776
_cell_angle_alpha   85.04045818
_cell_angle_beta   54.13516413
_cell_angle_gamma   40.82437769
_symmetry_Int_Tables_number   1
_chemical_formula_structural   CdHg4C6S6(Br2N3)2
_chemical_formula_sum   'Cd1 Hg4 C6 S6 Br4 N6'
_cell_volume   739.79234862
_cell_formula_units_Z   1
loop_
 _symmetry_equiv_pos_site_id
 _symmetry_equiv_pos_as_xyz
  1  'x, y, z'
loop_
 _atom_site_type_symbol
 _atom_site_label
 _atom_site_symmetry_multiplicity
 _atom_site_fract_x
 _atom_site_fract_y
 _atom_site_fract_z
 _atom_site_occupancy
  Cd  Cd0  1  0.01516900  0.98483100  0.98483100  1
  Hg  Hg1  1  0.18199400  0.43563100  0.52237800  1
  Hg  Hg2  1  0.56436900  0.81800600  0.14000400  1
  Hg  Hg3  1  0.47762200  0.14000400  0.81800600  1
  Hg  Hg4  1  0.85999600  0.52237800  0.43563100  1
  C  C5  1  0.67458400  0.47440500  0.07233400  1
  C  C6  1  0.52559500  0.32541600  0.22132300  1
  C  C7  1  0.77867700  0.07233400  0.47440500  1
  C  C8  1  0.24150200  0.53385300  0.75849800  1
  C  C9  1  0.46614700  0.75849800  0.53385300  1
  C  C10  1  0.92766600  0.22132300  0.32541600  1
  S  S11  1  0.46151600  0.72542300  0.16602000  1
  S  S12  1  0.27457700  0.53848400  0.35295900  1
  S  S13  1  0.83398000  0.35295900  0.53848400  1
  S  S14  1  0.30436200  0.35054500  0.69563800  1
  S  S15  1  0.64945500  0.69563800  0.35054500  1
  S  S16  1  0.64704100  0.16602000  0.72542300  1
  Br  Br17  1  0.39216700  0.01268000  0.91502100  1
  Br  Br18  1  0.08497900  0.31986800  0.60783300  1
  Br  Br19  1  0.98732000  0.60783300  0.31986800  1
  Br  Br20  1  0.68013200  0.91502100  0.01268000  1
  N  N21  1  0.19772800  0.66380200  0.80227200  1
  N  N22  1  0.82260500  0.29527100  0.00586500  1
  N  N23  1  0.99413500  0.12374200  0.17739500  1
  N  N24  1  0.87625800  0.00586500  0.29527100  1
  N  N25  1  0.33619800  0.80227200  0.66380200  1
  N  N26  1  0.70472900  0.17739500  0.12374200  1
