# generated using pymatgen
data_LaMnO3
_symmetry_space_group_name_H-M   'P 1'
_cell_length_a   5.97148532
_cell_length_b   5.43342909
_cell_length_c   10.41317900
_cell_angle_alpha   90.00000000
_cell_angle_beta   90.00000000
_cell_angle_gamma   61.57895617
_symmetry_Int_Tables_number   1
_chemical_formula_structural   LaMnO3
_chemical_formula_sum   'La4 Mn4 O12'
_cell_volume   297.14103004
_cell_formula_units_Z   4
loop_
 _symmetry_equiv_pos_site_id
 _symmetry_equiv_pos_as_xyz
  1  'x, y, z'
loop_
 _atom_site_type_symbol
 _atom_site_label
 _atom_site_symmetry_multiplicity
 _atom_site_fract_x
 _atom_site_fract_y
 _atom_site_fract_z
 _atom_site_occupancy
  La  La0  1  0.47605700  0.01831500  0.32822900  1
  La  La1  1  0.02394300  0.98168500  0.82822900  1
  La  La2  1  0.97605700  0.01831500  0.17177100  1
  La  La3  1  0.52394300  0.98168500  0.67177100  1
  Mn  Mn4  1  0.00000000  0.00000000  0.50000000  1
  Mn  Mn5  1  0.00000000  0.50000000  0.00000000  1
  Mn  Mn6  1  0.50000000  0.00000000  0.00000000  1
  Mn  Mn7  1  0.50000000  0.50000000  0.50000000  1
  O  O8  1  0.75212400  0.25244100  0.62191100  1
  O  O9  1  0.80088600  0.71189400  0.85758000  1
  O  O10  1  0.72813500  0.17861100  0.99334800  1
  O  O11  1  0.24787600  0.74755900  0.37808900  1
  O  O12  1  0.19911400  0.28810600  0.14242000  1
  O  O13  1  0.77186500  0.82138900  0.49334800  1
  O  O14  1  0.25212400  0.25244100  0.87808900  1
  O  O15  1  0.30088600  0.71189400  0.64242000  1
  O  O16  1  0.27186500  0.82138900  0.00665200  1
  O  O17  1  0.22813500  0.17861100  0.50665200  1
  O  O18  1  0.74787600  0.74755900  0.12191100  1
  O  O19  1  0.69911400  0.28810600  0.35758000  1
