# generated using pymatgen
data_NaV6O11
_symmetry_space_group_name_H-M   'P 1'
_cell_length_a   5.91421480
_cell_length_b   5.91421480
_cell_length_c   13.28001600
_cell_angle_alpha   90.00000000
_cell_angle_beta   90.00000000
_cell_angle_gamma   120.79969469
_symmetry_Int_Tables_number   1
_chemical_formula_structural   NaV6O11
_chemical_formula_sum   'Na2 V12 O22'
_cell_volume   398.99463282
_cell_formula_units_Z   2
loop_
 _symmetry_equiv_pos_site_id
 _symmetry_equiv_pos_as_xyz
  1  'x, y, z'
loop_
 _atom_site_type_symbol
 _atom_site_label
 _atom_site_symmetry_multiplicity
 _atom_site_fract_x
 _atom_site_fract_y
 _atom_site_fract_z
 _atom_site_occupancy
  Na  Na0  1  0.66371900  0.33628100  0.23459400  1
  Na  Na1  1  0.33628100  0.66371900  0.73459400  1
  V  V2  1  0.49892100  0.99928200  0.00009400  1
  V  V3  1  0.66923700  0.33076300  0.75252400  1
  V  V4  1  0.00071800  0.50107900  0.00009400  1
  V  V5  1  0.99813400  0.00186600  0.85380000  1
  V  V6  1  0.00067800  0.99932200  0.14554300  1
  V  V7  1  0.99932200  0.00067800  0.64554300  1
  V  V8  1  0.49885600  0.50114400  0.00007900  1
  V  V9  1  0.33076300  0.66923700  0.25252400  1
  V  V10  1  0.50107900  0.00071800  0.50009400  1
  V  V11  1  0.50114400  0.49885600  0.50007900  1
  V  V12  1  0.00186600  0.99813400  0.35380000  1
  V  V13  1  0.99928200  0.49892100  0.50009400  1
  O  O14  1  0.17424100  0.82575900  0.92417200  1
  O  O15  1  0.30201500  0.15737200  0.75078500  1
  O  O16  1  0.67232400  0.32767600  0.58812200  1
  O  O17  1  0.34527300  0.16302300  0.42307400  1
  O  O18  1  0.16302300  0.34527300  0.92307400  1
  O  O19  1  0.32879200  0.67120800  0.41222200  1
  O  O20  1  0.17683500  0.82316500  0.57830000  1
  O  O21  1  0.16724600  0.34772500  0.57837100  1
  O  O22  1  0.67120800  0.32879200  0.91222200  1
  O  O23  1  0.34772500  0.16724600  0.07837100  1
  O  O24  1  0.84013000  0.15987000  0.74999500  1
  O  O25  1  0.83697700  0.65472700  0.42307400  1
  O  O26  1  0.82316500  0.17683500  0.07830000  1
  O  O27  1  0.82575900  0.17424100  0.42417200  1
  O  O28  1  0.32767600  0.67232400  0.08812200  1
  O  O29  1  0.69798500  0.84262800  0.25078500  1
  O  O30  1  0.83275400  0.65227500  0.07837100  1
  O  O31  1  0.84262800  0.69798500  0.75078500  1
  O  O32  1  0.15987000  0.84013000  0.24999500  1
  O  O33  1  0.15737200  0.30201500  0.25078500  1
  O  O34  1  0.65472700  0.83697700  0.92307400  1
  O  O35  1  0.65227500  0.83275400  0.57837100  1
