# generated using pymatgen
data_Dy(PO3)3
_symmetry_space_group_name_H-M   'P 1'
_cell_length_a   8.00741809
_cell_length_b   8.00741809
_cell_length_c   10.26427004
_cell_angle_alpha   57.14020921
_cell_angle_beta   57.14020921
_cell_angle_gamma   51.18244634
_symmetry_Int_Tables_number   1
_chemical_formula_structural   Dy(PO3)3
_chemical_formula_sum   'Dy2 P6 O18'
_cell_volume   409.60694561
_cell_formula_units_Z   2
loop_
 _symmetry_equiv_pos_site_id
 _symmetry_equiv_pos_as_xyz
  1  'x, y, z'
loop_
 _atom_site_type_symbol
 _atom_site_label
 _atom_site_symmetry_multiplicity
 _atom_site_fract_x
 _atom_site_fract_y
 _atom_site_fract_z
 _atom_site_occupancy
  Dy  Dy0  1  0.20601700  0.68891300  0.75438600  1
  Dy  Dy1  1  0.68891300  0.20601700  0.25438600  1
  P  P2  1  0.18652200  0.38819900  0.59588400  1
  P  P3  1  0.62282100  0.78258500  0.98754800  1
  P  P4  1  0.19461500  0.99201300  0.92108600  1
  P  P5  1  0.38819900  0.18652200  0.09588400  1
  P  P6  1  0.78258500  0.62282100  0.48754800  1
  P  P7  1  0.99201300  0.19461500  0.42108600  1
  O  O8  1  0.18838600  0.15443400  0.25582000  1
  O  O9  1  0.35126500  0.30136600  0.45232600  1
  O  O10  1  0.93355000  0.53264100  0.59001100  1
  O  O11  1  0.44839100  0.92260600  0.88892200  1
  O  O12  1  0.52126400  0.22724900  0.12581000  1
  O  O13  1  0.30136600  0.35126500  0.95232600  1
  O  O14  1  0.84330400  0.77141900  0.86324700  1
  O  O15  1  0.80765500  0.19199400  0.41883700  1
  O  O16  1  0.22724900  0.52126400  0.62581000  1
  O  O17  1  0.03459500  0.08224100  0.06341500  1
  O  O18  1  0.61661500  0.56614000  0.10760800  1
  O  O19  1  0.77141900  0.84330400  0.36324700  1
  O  O20  1  0.19199400  0.80765500  0.91883700  1
  O  O21  1  0.56614000  0.61661500  0.60760800  1
  O  O22  1  0.15443400  0.18838600  0.75582000  1
  O  O23  1  0.08224100  0.03459500  0.56341500  1
  O  O24  1  0.92260600  0.44839100  0.38892200  1
  O  O25  1  0.53264100  0.93355000  0.09001100  1
