# generated using pymatgen
data_Fe2WC10(SeO5)2
_symmetry_space_group_name_H-M   'P 1'
_cell_length_a   7.16829400
_cell_length_b   9.62934892
_cell_length_c   14.18161614
_cell_angle_alpha   82.61209207
_cell_angle_beta   82.52416149
_cell_angle_gamma   86.23640184
_symmetry_Int_Tables_number   1
_chemical_formula_structural   Fe2WC10(SeO5)2
_chemical_formula_sum   'Fe4 W2 C20 Se4 O20'
_cell_volume   961.33051287
_cell_formula_units_Z   2
loop_
 _symmetry_equiv_pos_site_id
 _symmetry_equiv_pos_as_xyz
  1  'x, y, z'
loop_
 _atom_site_type_symbol
 _atom_site_label
 _atom_site_symmetry_multiplicity
 _atom_site_fract_x
 _atom_site_fract_y
 _atom_site_fract_z
 _atom_site_occupancy
  Fe  Fe0  1  0.28554600  0.00608200  0.27342300  1
  Fe  Fe1  1  0.35704500  0.32602100  0.36369300  1
  Fe  Fe2  1  0.71445400  0.99391800  0.72657700  1
  Fe  Fe3  1  0.64295500  0.67397900  0.63630700  1
  W  W4  1  0.60539800  0.72881800  0.83186400  1
  W  W5  1  0.39460200  0.27118200  0.16813600  1
  C  C6  1  0.63021000  0.38758400  0.13744600  1
  C  C7  1  0.43077200  0.58945400  0.62620600  1
  C  C8  1  0.56660300  0.15587500  0.07532700  1
  C  C9  1  0.43339700  0.84412500  0.92467300  1
  C  C10  1  0.90794100  0.04479700  0.78309500  1
  C  C11  1  0.21424700  0.48717700  0.36532800  1
  C  C12  1  0.71851200  0.52763200  0.86091600  1
  C  C13  1  0.56922800  0.41054600  0.37379400  1
  C  C14  1  0.28148800  0.47236800  0.13908400  1
  C  C15  1  0.78005700  0.75438000  0.93243400  1
  C  C16  1  0.36979000  0.61241600  0.86255400  1
  C  C17  1  0.55416400  0.12782400  0.77426000  1
  C  C18  1  0.78575300  0.51282300  0.63467200  1
  C  C19  1  0.30461800  0.25240300  0.48447100  1
  C  C20  1  0.77133600  0.07934000  0.60941700  1
  C  C21  1  0.69538200  0.74759700  0.51552900  1
  C  C22  1  0.44583600  0.87217600  0.22574000  1
  C  C23  1  0.09205900  0.95520300  0.21690500  1
  C  C24  1  0.21994300  0.24562000  0.06756600  1
  C  C25  1  0.22866400  0.92066000  0.39058300  1
  Se  Se26  1  0.10979300  0.22066400  0.30205200  1
  Se  Se27  1  0.45562200  0.87322800  0.68836400  1
  Se  Se28  1  0.54437800  0.12677200  0.31163600  1
  Se  Se29  1  0.89020700  0.77933600  0.69794800  1
  O  O30  1  0.22130000  0.58604300  0.12052500  1
  O  O31  1  0.66377800  0.09493400  0.02095200  1
  O  O32  1  0.29497300  0.53610900  0.61738800  1
  O  O33  1  0.87740900  0.40936200  0.63327600  1
  O  O34  1  0.23719800  0.54625800  0.87988100  1
  O  O35  1  0.12259100  0.59063800  0.36672400  1
  O  O36  1  0.03401100  0.07604300  0.81754000  1
  O  O37  1  0.54541700  0.78307600  0.19756700  1
  O  O38  1  0.96598900  0.92395700  0.18246000  1
  O  O39  1  0.72765300  0.79702000  0.43660500  1
  O  O40  1  0.33622200  0.90506600  0.97904800  1
  O  O41  1  0.87898600  0.76894500  0.98847500  1
  O  O42  1  0.27234700  0.20298000  0.56339500  1
  O  O43  1  0.19390000  0.86690400  0.46834800  1
  O  O44  1  0.45458300  0.21692400  0.80243300  1
  O  O45  1  0.80610000  0.13309600  0.53165200  1
  O  O46  1  0.12101400  0.23105500  0.01152500  1
  O  O47  1  0.76280200  0.45374200  0.12011900  1
  O  O48  1  0.70502700  0.46389100  0.38261200  1
  O  O49  1  0.77870000  0.41395700  0.87947500  1
