# generated using pymatgen
data_Ca3Mg(SiO4)2
_symmetry_space_group_name_H-M   'P 1'
_cell_length_a   5.26933700
_cell_length_b   9.96782500
_cell_length_c   13.67008202
_cell_angle_alpha   82.28048542
_cell_angle_beta   90.00000000
_cell_angle_gamma   90.00000000
_symmetry_Int_Tables_number   1
_chemical_formula_structural   Ca3Mg(SiO4)2
_chemical_formula_sum   'Ca12 Mg4 Si8 O32'
_cell_volume   711.49813594
_cell_formula_units_Z   4
loop_
 _symmetry_equiv_pos_site_id
 _symmetry_equiv_pos_as_xyz
  1  'x, y, z'
loop_
 _atom_site_type_symbol
 _atom_site_label
 _atom_site_symmetry_multiplicity
 _atom_site_fract_x
 _atom_site_fract_y
 _atom_site_fract_z
 _atom_site_occupancy
  Ca  Ca0  1  0.25898100  0.92884900  0.40461700  1
  Ca  Ca1  1  0.24740400  0.26117500  0.97781300  1
  Ca  Ca2  1  0.26887900  0.52416500  0.62145100  1
  Ca  Ca3  1  0.23112100  0.52416500  0.12145100  1
  Ca  Ca4  1  0.76887900  0.47583500  0.87854900  1
  Ca  Ca5  1  0.74740400  0.73882500  0.52218700  1
  Ca  Ca6  1  0.75898100  0.07115100  0.09538300  1
  Ca  Ca7  1  0.24101900  0.92884900  0.90461700  1
  Ca  Ca8  1  0.73112100  0.47583500  0.37854900  1
  Ca  Ca9  1  0.74101900  0.07115100  0.59538300  1
  Ca  Ca10  1  0.25259600  0.26117500  0.47781300  1
  Ca  Ca11  1  0.75259600  0.73882500  0.02218700  1
  Mg  Mg12  1  0.73317500  0.82823900  0.78829800  1
  Mg  Mg13  1  0.76682500  0.82823900  0.28829800  1
  Mg  Mg14  1  0.26682500  0.17176100  0.21170200  1
  Mg  Mg15  1  0.23317500  0.17176100  0.71170200  1
  Si  Si16  1  0.78831600  0.11006200  0.36220000  1
  Si  Si17  1  0.72992600  0.37565100  0.64021800  1
  Si  Si18  1  0.71168400  0.11006200  0.86220000  1
  Si  Si19  1  0.21168400  0.88993800  0.63780000  1
  Si  Si20  1  0.77007400  0.37565100  0.14021800  1
  Si  Si21  1  0.22992600  0.62434900  0.85978200  1
  Si  Si22  1  0.27007400  0.62434900  0.35978200  1
  Si  Si23  1  0.28831600  0.88993800  0.13780000  1
  O  O24  1  0.98387500  0.68897800  0.36782300  1
  O  O25  1  0.59274500  0.85299900  0.15747600  1
  O  O26  1  0.82452300  0.22099100  0.92961000  1
  O  O27  1  0.61849100  0.42769300  0.73872500  1
  O  O28  1  0.38150900  0.57230700  0.26127500  1
  O  O29  1  0.48290200  0.74065400  0.38196400  1
  O  O30  1  0.20862400  0.04291400  0.56822000  1
  O  O31  1  0.51612500  0.68897800  0.86782300  1
  O  O32  1  0.01709800  0.74065400  0.88196400  1
  O  O33  1  0.22784100  0.48944100  0.94541100  1
  O  O34  1  0.17547700  0.77900900  0.07039000  1
  O  O35  1  0.10823700  0.91923300  0.23115200  1
  O  O36  1  0.70862400  0.95708600  0.93178000  1
  O  O37  1  0.90725500  0.85299900  0.65747600  1
  O  O38  1  0.48387500  0.31102200  0.13217700  1
  O  O39  1  0.29137600  0.04291400  0.06822000  1
  O  O40  1  0.79137600  0.95708600  0.43178000  1
  O  O41  1  0.51709800  0.25934600  0.61803600  1
  O  O42  1  0.27215900  0.48944100  0.44541100  1
  O  O43  1  0.60823700  0.08076700  0.26884800  1
  O  O44  1  0.39176300  0.91923300  0.73115200  1
  O  O45  1  0.09274500  0.14700100  0.34252400  1
  O  O46  1  0.40725500  0.14700100  0.84252400  1
  O  O47  1  0.88150900  0.42769300  0.23872500  1
  O  O48  1  0.77215900  0.51055900  0.05458900  1
  O  O49  1  0.01612500  0.31102200  0.63217700  1
  O  O50  1  0.67547700  0.22099100  0.42961000  1
  O  O51  1  0.11849100  0.57230700  0.76127500  1
  O  O52  1  0.98290200  0.25934600  0.11803600  1
  O  O53  1  0.89176300  0.08076700  0.76884800  1
  O  O54  1  0.72784100  0.51055900  0.55458900  1
  O  O55  1  0.32452300  0.77900900  0.57039000  1
