# generated using pymatgen
data_SiO2
_symmetry_space_group_name_H-M   'P 1'
_cell_length_a   13.31919502
_cell_length_b   13.31919502
_cell_length_c   13.31919502
_cell_angle_alpha   142.94506818
_cell_angle_beta   113.61257798
_cell_angle_gamma   78.54440921
_symmetry_Int_Tables_number   1
_chemical_formula_structural   SiO2
_chemical_formula_sum   'Si24 O48'
_cell_volume   1272.84977763
_cell_formula_units_Z   24
loop_
 _symmetry_equiv_pos_site_id
 _symmetry_equiv_pos_as_xyz
  1  'x, y, z'
loop_
 _atom_site_type_symbol
 _atom_site_label
 _atom_site_symmetry_multiplicity
 _atom_site_fract_x
 _atom_site_fract_y
 _atom_site_fract_z
 _atom_site_occupancy
  Si  Si0  1  0.62568100  0.87362900  0.37905000  1
  Si  Si1  1  0.23183000  0.86617300  0.74294300  1
  Si  Si2  1  0.76212100  0.33035500  0.06823400  1
  Si  Si3  1  0.37955400  0.94299500  0.06344100  1
  Si  Si4  1  0.00542100  0.12637100  0.25205200  1
  Si  Si5  1  0.62568100  0.24663200  0.75205200  1
  Si  Si6  1  0.23787900  0.30611300  0.56823400  1
  Si  Si7  1  0.62044600  0.68388800  0.56344100  1
  Si  Si8  1  0.62323000  0.86617300  0.13434400  1
  Si  Si9  1  0.62323000  0.48888700  0.75705700  1
  Si  Si10  1  0.76212100  0.69388700  0.43176600  1
  Si  Si11  1  0.37431900  0.12637100  0.62095000  1
  Si  Si12  1  0.76817000  0.51111300  0.63434400  1
  Si  Si13  1  0.62044600  0.05700500  0.93655900  1
  Si  Si14  1  0.37431900  0.75336800  0.24794800  1
  Si  Si15  1  0.23183000  0.48888700  0.36565600  1
  Si  Si16  1  0.37677000  0.13382700  0.86565600  1
  Si  Si17  1  0.37955400  0.31611200  0.43655900  1
  Si  Si18  1  0.99457900  0.24663200  0.12095000  1
  Si  Si19  1  0.99457900  0.87362900  0.74794800  1
  Si  Si20  1  0.23787900  0.66964500  0.93176600  1
  Si  Si21  1  0.76817000  0.13382700  0.25705700  1
  Si  Si22  1  0.37677000  0.51111300  0.24294300  1
  Si  Si23  1  0.00542100  0.75336800  0.87905000  1
  O  O24  1  0.28336200  0.65590100  0.05261800  1
  O  O25  1  0.71663800  0.34409900  0.94738200  1
  O  O26  1  0.28118500  0.00000000  0.78118500  1
  O  O27  1  0.64267800  0.34905900  0.73527500  1
  O  O28  1  0.73638000  0.48638000  0.25000000  1
  O  O29  1  0.60143600  0.85143600  0.75000000  1
  O  O30  1  0.50053900  0.56826300  0.38850300  1
  O  O31  1  0.10328300  0.23074400  0.44738200  1
  O  O32  1  0.36513900  0.32773500  0.03740400  1
  O  O33  1  0.35732200  0.09259700  0.70638100  1
  O  O34  1  0.49946100  0.43173700  0.61149700  1
  O  O35  1  0.79033000  0.32773500  0.46259600  1
  O  O36  1  0.64506000  0.05488100  0.59018000  1
  O  O37  1  0.28336200  0.23074400  0.62746100  1
  O  O38  1  0.88621600  0.09259700  0.23527500  1
  O  O39  1  0.96470100  0.05488100  0.90982000  1
  O  O40  1  0.10328300  0.65590100  0.87253900  1
  O  O41  1  0.71881500  0.00000000  0.21881500  1
  O  O42  1  0.28118500  0.50000000  0.28118500  1
  O  O43  1  0.88621600  0.65094100  0.79361900  1
  O  O44  1  0.49946100  0.88796400  0.06772400  1
  O  O45  1  0.71663800  0.76925600  0.37253900  1
  O  O46  1  0.30076100  0.84909400  0.04833400  1
  O  O47  1  0.50000000  0.23924300  0.73924300  1
  O  O48  1  0.89671700  0.76925600  0.55261800  1
  O  O49  1  0.35494000  0.94511900  0.40982000  1
  O  O50  1  0.39856400  0.14856400  0.25000000  1
  O  O51  1  0.00000000  0.76075700  0.76075700  1
  O  O52  1  0.00000000  0.23924300  0.23924300  1
  O  O53  1  0.69923900  0.15090600  0.95166600  1
  O  O54  1  0.30076100  0.25242700  0.45166600  1
  O  O55  1  0.89671700  0.34409900  0.12746100  1
  O  O56  1  0.64267800  0.90740300  0.29361900  1
  O  O57  1  0.67976000  0.56826300  0.56772400  1
  O  O58  1  0.50000000  0.76075700  0.26075700  1
  O  O59  1  0.63486100  0.67226500  0.96259600  1
  O  O60  1  0.20967000  0.67226500  0.53740400  1
  O  O61  1  0.03529900  0.94511900  0.09018000  1
  O  O62  1  0.26362000  0.51362000  0.75000000  1
  O  O63  1  0.35732200  0.65094100  0.26472500  1
  O  O64  1  0.32024000  0.43173700  0.43227600  1
  O  O65  1  0.11378400  0.90740300  0.76472500  1
  O  O66  1  0.11378400  0.34905900  0.20638100  1
  O  O67  1  0.71881500  0.50000000  0.71881500  1
  O  O68  1  0.69923900  0.74757300  0.54833400  1
  O  O69  1  0.67976000  0.11203600  0.11149700  1
  O  O70  1  0.50053900  0.11203600  0.93227600  1
  O  O71  1  0.32024000  0.88796400  0.88850300  1
