# generated using pymatgen
data_VHO3
_symmetry_space_group_name_H-M   'P 1'
_cell_length_a   5.04567140
_cell_length_b   8.77232200
_cell_length_c   7.99829471
_cell_angle_alpha   90.00000000
_cell_angle_beta   105.06244997
_cell_angle_gamma   90.00000000
_symmetry_Int_Tables_number   1
_chemical_formula_structural   VHO3
_chemical_formula_sum   'V6 H6 O18'
_cell_volume   341.85945458
_cell_formula_units_Z   6
loop_
 _symmetry_equiv_pos_site_id
 _symmetry_equiv_pos_as_xyz
  1  'x, y, z'
loop_
 _atom_site_type_symbol
 _atom_site_label
 _atom_site_symmetry_multiplicity
 _atom_site_fract_x
 _atom_site_fract_y
 _atom_site_fract_z
 _atom_site_occupancy
  V  V0  1  0.47558200  0.44134200  0.18282300  1
  V  V1  1  0.52441800  0.94134200  0.81717700  1
  V  V2  1  0.52712400  0.55277100  0.81831000  1
  V  V3  1  0.47287600  0.05277100  0.18169000  1
  V  V4  1  0.94310000  0.24666200  0.07532600  1
  V  V5  1  0.05690000  0.74666200  0.92467400  1
  H  H6  1  0.09581800  0.15738400  0.59203100  1
  H  H7  1  0.83677600  0.24321900  0.43476800  1
  H  H8  1  0.08805600  0.33983500  0.58267200  1
  H  H9  1  0.90418200  0.65738400  0.40796900  1
  H  H10  1  0.16322400  0.74321900  0.56523200  1
  H  H11  1  0.91194400  0.83983500  0.41732800  1
  O  O12  1  0.67759300  0.40632900  0.00275200  1
  O  O13  1  0.32240700  0.90632900  0.99724800  1
  O  O14  1  0.32577400  0.58884900  0.00001800  1
  O  O15  1  0.67422600  0.08884900  0.99998200  1
  O  O16  1  0.16170200  0.39421900  0.22999300  1
  O  O17  1  0.83829800  0.89421900  0.77000700  1
  O  O18  1  0.84152200  0.59957300  0.77033200  1
  O  O19  1  0.15847800  0.09957300  0.22966800  1
  O  O20  1  0.64260400  0.24595600  0.25793800  1
  O  O21  1  0.35739600  0.74595600  0.74206200  1
  O  O22  1  0.11867900  0.24646600  0.93057500  1
  O  O23  1  0.88132100  0.74646600  0.06942500  1
  O  O24  1  0.64913000  0.54933400  0.34110500  1
  O  O25  1  0.35087000  0.04933400  0.65889500  1
  O  O26  1  0.35604200  0.44397400  0.66069100  1
  O  O27  1  0.64395800  0.94397400  0.33930900  1
  O  O28  1  0.96311300  0.24727600  0.56114000  1
  O  O29  1  0.03688700  0.74727600  0.43886000  1
