# generated using pymatgen
data_TiZn(BiO3)2
_symmetry_space_group_name_H-M   'P 1'
_cell_length_a   6.20107272
_cell_length_b   6.20107272
_cell_length_c   6.20107272
_cell_angle_alpha   129.36286177
_cell_angle_beta   129.36286177
_cell_angle_gamma   74.42741035
_symmetry_Int_Tables_number   1
_chemical_formula_structural   TiZn(BiO3)2
_chemical_formula_sum   'Ti1 Zn1 Bi2 O6'
_cell_volume   138.91922705
_cell_formula_units_Z   1
loop_
 _symmetry_equiv_pos_site_id
 _symmetry_equiv_pos_as_xyz
  1  'x, y, z'
loop_
 _atom_site_type_symbol
 _atom_site_label
 _atom_site_symmetry_multiplicity
 _atom_site_fract_x
 _atom_site_fract_y
 _atom_site_fract_z
 _atom_site_occupancy
  Ti  Ti0  1  0.80056900  0.80056900  0.00000000  1
  Zn  Zn1  1  0.26832200  0.26832200  0.00000000  1
  Bi  Bi2  1  0.99971800  0.49971800  0.50000000  1
  Bi  Bi3  1  0.49971800  0.99971800  0.50000000  1
  O  O4  1  0.07558900  0.07558900  0.00000000  1
  O  O5  1  0.61946100  0.61946100  0.00000000  1
  O  O6  1  0.61280900  0.11099800  0.00000000  1
  O  O7  1  0.61280900  0.61280900  0.50181100  1
  O  O8  1  0.11099800  0.61280900  0.00000000  1
  O  O9  1  0.11099800  0.11099800  0.49818900  1
