# generated using pymatgen
data_RbS
_symmetry_space_group_name_H-M   'P 1'
_cell_length_a   6.13435167
_cell_length_b   6.13435167
_cell_length_c   6.13435167
_cell_angle_alpha   131.11278362
_cell_angle_beta   111.66295995
_cell_angle_gamma   88.47062930
_symmetry_Int_Tables_number   1
_chemical_formula_structural   RbS
_chemical_formula_sum   'Rb2 S2'
_cell_volume   153.74739254
_cell_formula_units_Z   2
loop_
 _symmetry_equiv_pos_site_id
 _symmetry_equiv_pos_as_xyz
  1  'x, y, z'
loop_
 _atom_site_type_symbol
 _atom_site_label
 _atom_site_symmetry_multiplicity
 _atom_site_fract_x
 _atom_site_fract_y
 _atom_site_fract_z
 _atom_site_occupancy
  Rb  Rb0  1  0.77741900  0.27741900  0.50000000  1
  Rb  Rb1  1  0.22258100  0.72258100  0.50000000  1
  S  S2  1  0.15474200  0.00000000  0.15474200  1
  S  S3  1  0.84525800  0.00000000  0.84525800  1
