# generated using pymatgen
data_TlVH6SO9
_symmetry_space_group_name_H-M   'P 1'
_cell_length_a   10.06049800
_cell_length_b   6.29528000
_cell_length_c   6.75886668
_cell_angle_alpha   72.24682373
_cell_angle_beta   90.00000000
_cell_angle_gamma   90.00000000
_symmetry_Int_Tables_number   1
_chemical_formula_structural   TlVH6SO9
_chemical_formula_sum   'Tl2 V2 H12 S2 O18'
_cell_volume   407.67884362
_cell_formula_units_Z   2
loop_
 _symmetry_equiv_pos_site_id
 _symmetry_equiv_pos_as_xyz
  1  'x, y, z'
loop_
 _atom_site_type_symbol
 _atom_site_label
 _atom_site_symmetry_multiplicity
 _atom_site_fract_x
 _atom_site_fract_y
 _atom_site_fract_z
 _atom_site_occupancy
  Tl  Tl0  1  0.65349600  0.68028000  0.82029800  1
  Tl  Tl1  1  0.15349600  0.31972000  0.17970200  1
  V  V2  1  0.99846400  0.62039700  0.62082500  1
  V  V3  1  0.49846400  0.37960300  0.37917500  1
  H  H4  1  0.20628400  0.77880900  0.30869300  1
  H  H5  1  0.26247200  0.47270500  0.65337300  1
  H  H6  1  0.57426600  0.18045500  0.81905900  1
  H  H7  1  0.84975400  0.96764400  0.30839600  1
  H  H8  1  0.34975400  0.03235600  0.69160400  1
  H  H9  1  0.34320300  0.89097700  0.92606400  1
  H  H10  1  0.76357600  0.30896900  0.26304400  1
  H  H11  1  0.07426600  0.81954500  0.18094100  1
  H  H12  1  0.76247200  0.52729500  0.34662700  1
  H  H13  1  0.26357600  0.69103100  0.73695600  1
  H  H14  1  0.70628400  0.22119100  0.69130700  1
  H  H15  1  0.84320300  0.10902300  0.07393600  1
  S  S16  1  0.49803100  0.91746800  0.26585500  1
  S  S17  1  0.99803100  0.08253200  0.73414500  1
  O  O18  1  0.11443100  0.72181400  0.31022300  1
  O  O19  1  0.94300100  0.54396100  0.86207000  1
  O  O20  1  0.44300100  0.45603900  0.13793000  1
  O  O21  1  0.04147600  0.93815700  0.60241200  1
  O  O22  1  0.20682700  0.56604100  0.71639100  1
  O  O23  1  0.70682700  0.43395900  0.28360900  1
  O  O24  1  0.85428400  0.06081100  0.77776600  1
  O  O25  1  0.54147600  0.06184300  0.39758800  1
  O  O26  1  0.85711500  0.12198500  0.21336300  1
  O  O27  1  0.02903100  0.31533900  0.59134600  1
  O  O28  1  0.85959300  0.67895300  0.47370900  1
  O  O29  1  0.35959300  0.32104700  0.52629100  1
  O  O30  1  0.35428400  0.93918900  0.22223400  1
  O  O31  1  0.07779700  0.03152700  0.92382300  1
  O  O32  1  0.57779700  0.96847300  0.07617700  1
  O  O33  1  0.52903100  0.68466100  0.40865400  1
  O  O34  1  0.35711500  0.87801500  0.78663700  1
  O  O35  1  0.61443100  0.27818600  0.68977700  1
