# generated using pymatgen
data_ZnC8(NCl2)2
_symmetry_space_group_name_H-M   'P 1'
_cell_length_a   9.69208900
_cell_length_b   11.93502200
_cell_length_c   15.94776400
_cell_angle_alpha   90.00000000
_cell_angle_beta   90.00000000
_cell_angle_gamma   90.00000000
_symmetry_Int_Tables_number   1
_chemical_formula_structural   ZnC8(NCl2)2
_chemical_formula_sum   'Zn4 C32 N8 Cl16'
_cell_volume   1844.76231232
_cell_formula_units_Z   4
loop_
 _symmetry_equiv_pos_site_id
 _symmetry_equiv_pos_as_xyz
  1  'x, y, z'
loop_
 _atom_site_type_symbol
 _atom_site_label
 _atom_site_symmetry_multiplicity
 _atom_site_fract_x
 _atom_site_fract_y
 _atom_site_fract_z
 _atom_site_occupancy
  Zn  Zn0  1  0.25000000  0.75530800  0.08775000  1
  Zn  Zn1  1  0.25000000  0.25530800  0.41225000  1
  Zn  Zn2  1  0.75000000  0.24469200  0.91225000  1
  Zn  Zn3  1  0.75000000  0.74469200  0.58775000  1
  C  C4  1  0.25000000  0.63596600  0.36317500  1
  C  C5  1  0.25000000  0.13596600  0.13682500  1
  C  C6  1  0.75000000  0.36403400  0.63682500  1
  C  C7  1  0.75000000  0.86403400  0.86317500  1
  C  C8  1  0.25000000  0.63948000  0.52075100  1
  C  C9  1  0.25000000  0.13948000  0.97924900  1
  C  C10  1  0.75000000  0.36052000  0.47924900  1
  C  C11  1  0.75000000  0.86052000  0.02075100  1
  C  C12  1  0.32001500  0.63884800  0.28734800  1
  C  C13  1  0.17998500  0.13884800  0.21265200  1
  C  C14  1  0.82001500  0.36115200  0.71265200  1
  C  C15  1  0.67998500  0.86115200  0.78734800  1
  C  C16  1  0.67998500  0.36115200  0.71265200  1
  C  C17  1  0.82001500  0.86115200  0.78734800  1
  C  C18  1  0.17998500  0.63884800  0.28734800  1
  C  C19  1  0.32001500  0.13884800  0.21265200  1
  C  C20  1  0.25000000  0.99598400  0.71251700  1
  C  C21  1  0.25000000  0.49598400  0.78748300  1
  C  C22  1  0.75000000  0.00401600  0.28748300  1
  C  C23  1  0.75000000  0.50401600  0.21251700  1
  C  C24  1  0.25000000  0.97561400  0.62555100  1
  C  C25  1  0.25000000  0.47561400  0.87444900  1
  C  C26  1  0.75000000  0.02438600  0.37444900  1
  C  C27  1  0.75000000  0.52438600  0.12555100  1
  C  C28  1  0.35657800  0.93759200  0.57285800  1
  C  C29  1  0.14342200  0.43759200  0.92714200  1
  C  C30  1  0.85657800  0.06240800  0.42714200  1
  C  C31  1  0.64342200  0.56240800  0.07285800  1
  C  C32  1  0.64342200  0.06240800  0.42714200  1
  C  C33  1  0.85657800  0.56240800  0.07285800  1
  C  C34  1  0.14342200  0.93759200  0.57285800  1
  C  C35  1  0.35657800  0.43759200  0.92714200  1
  N  N36  1  0.25000000  0.63233400  0.44573000  1
  N  N37  1  0.25000000  0.13233400  0.05427000  1
  N  N38  1  0.75000000  0.36766600  0.55427000  1
  N  N39  1  0.75000000  0.86766600  0.94573000  1
  N  N40  1  0.25000000  0.02030700  0.78346000  1
  N  N41  1  0.25000000  0.52030700  0.71654000  1
  N  N42  1  0.75000000  0.97969300  0.21654000  1
  N  N43  1  0.75000000  0.47969300  0.28346000  1
  Cl  Cl44  1  0.25000000  0.46169500  0.02961500  1
  Cl  Cl45  1  0.25000000  0.96169500  0.47038500  1
  Cl  Cl46  1  0.75000000  0.53830500  0.97038500  1
  Cl  Cl47  1  0.75000000  0.03830500  0.52961500  1
  Cl  Cl48  1  0.07251500  0.73352500  0.17805500  1
  Cl  Cl49  1  0.42748500  0.23352500  0.32194500  1
  Cl  Cl50  1  0.57251500  0.26647500  0.82194500  1
  Cl  Cl51  1  0.92748500  0.76647500  0.67805500  1
  Cl  Cl52  1  0.92748500  0.26647500  0.82194500  1
  Cl  Cl53  1  0.57251500  0.76647500  0.67805500  1
  Cl  Cl54  1  0.42748500  0.73352500  0.17805500  1
  Cl  Cl55  1  0.07251500  0.23352500  0.32194500  1
  Cl  Cl56  1  0.25000000  0.80200200  0.95893000  1
  Cl  Cl57  1  0.25000000  0.30200200  0.54107000  1
  Cl  Cl58  1  0.75000000  0.19799800  0.04107000  1
  Cl  Cl59  1  0.75000000  0.69799800  0.45893000  1
