# generated using pymatgen
data_BaCaVP2O9
_symmetry_space_group_name_H-M   'P 1'
_cell_length_a   7.16020300
_cell_length_b   7.41048500
_cell_length_c   14.64780113
_cell_angle_alpha   78.37814640
_cell_angle_beta   90.00000000
_cell_angle_gamma   90.00000000
_symmetry_Int_Tables_number   1
_chemical_formula_structural   BaCaVP2O9
_chemical_formula_sum   'Ba4 Ca4 V4 P8 O36'
_cell_volume   761.28657442
_cell_formula_units_Z   4
loop_
 _symmetry_equiv_pos_site_id
 _symmetry_equiv_pos_as_xyz
  1  'x, y, z'
loop_
 _atom_site_type_symbol
 _atom_site_label
 _atom_site_symmetry_multiplicity
 _atom_site_fract_x
 _atom_site_fract_y
 _atom_site_fract_z
 _atom_site_occupancy
  Ba  Ba0  1  0.23411000  0.62145900  0.42742100  1
  Ba  Ba1  1  0.76589000  0.37854100  0.57257900  1
  Ba  Ba2  1  0.73411000  0.37854100  0.07257900  1
  Ba  Ba3  1  0.26589000  0.62145900  0.92742100  1
  Ca  Ca4  1  0.01910500  0.81158300  0.66186300  1
  Ca  Ca5  1  0.51910500  0.18841700  0.83813700  1
  Ca  Ca6  1  0.48089500  0.81158300  0.16186300  1
  Ca  Ca7  1  0.98089500  0.18841700  0.33813700  1
  V  V8  1  0.51529500  0.84402000  0.66591100  1
  V  V9  1  0.48470500  0.15598000  0.33408900  1
  V  V10  1  0.98470500  0.84402000  0.16591100  1
  V  V11  1  0.01529500  0.15598000  0.83408900  1
  P  P12  1  0.72595900  0.87932200  0.50182000  1
  P  P13  1  0.22595900  0.12067800  0.99818000  1
  P  P14  1  0.22344600  0.46227800  0.19848200  1
  P  P15  1  0.77404100  0.87932200  0.00182000  1
  P  P16  1  0.72344600  0.53772200  0.30151800  1
  P  P17  1  0.27655400  0.46227800  0.69848200  1
  P  P18  1  0.77655400  0.53772200  0.80151800  1
  P  P19  1  0.27404100  0.12067800  0.49818000  1
  O  O20  1  0.68081700  0.33889400  0.28106000  1
  O  O21  1  0.91657700  0.78340400  0.50536200  1
  O  O22  1  0.31918300  0.66110600  0.71894000  1
  O  O23  1  0.72298100  0.98826300  0.58523300  1
  O  O24  1  0.79693600  0.02097800  0.90827800  1
  O  O25  1  0.21525000  0.34768500  0.79667400  1
  O  O26  1  0.81918300  0.33889400  0.78106000  1
  O  O27  1  0.06124700  0.25816400  0.97362400  1
  O  O28  1  0.38082100  0.49670200  0.12595700  1
  O  O29  1  0.11917900  0.49670200  0.62595700  1
  O  O30  1  0.58342300  0.78340400  0.00536200  1
  O  O31  1  0.71525000  0.65231500  0.70332600  1
  O  O32  1  0.18081700  0.66110600  0.21894000  1
  O  O33  1  0.20306400  0.97902200  0.09172200  1
  O  O34  1  0.28475000  0.34768500  0.29667400  1
  O  O35  1  0.97151300  0.95630300  0.25308600  1
  O  O36  1  0.61917900  0.50329800  0.87404300  1
  O  O37  1  0.88082100  0.50329800  0.37404300  1
  O  O38  1  0.08342300  0.21659600  0.49463800  1
  O  O39  1  0.52848700  0.95630300  0.75308600  1
  O  O40  1  0.93875300  0.74183600  0.02637600  1
  O  O41  1  0.95167600  0.63329000  0.82660400  1
  O  O42  1  0.70306400  0.02097800  0.40827800  1
  O  O43  1  0.29693600  0.97902200  0.59172200  1
  O  O44  1  0.22298100  0.01173700  0.91476700  1
  O  O45  1  0.78475000  0.65231500  0.20332600  1
  O  O46  1  0.02848700  0.04369700  0.74691400  1
  O  O47  1  0.47151300  0.04369700  0.24691400  1
  O  O48  1  0.41657700  0.21659600  0.99463800  1
  O  O49  1  0.27701900  0.01173700  0.41476700  1
  O  O50  1  0.04832400  0.36671000  0.17339600  1
  O  O51  1  0.77701900  0.98826300  0.08523300  1
  O  O52  1  0.43875300  0.25816400  0.47362400  1
  O  O53  1  0.45167600  0.36671000  0.67339600  1
  O  O54  1  0.56124700  0.74183600  0.52637600  1
  O  O55  1  0.54832400  0.63329000  0.32660400  1
