data_image0
_chemical_formula_structural       Ge6Tm2
_chemical_formula_sum              "Ge6 Tm2"
_cell_length_a       3.90504
_cell_length_b       4.00962
_cell_length_c       10.5315
_cell_angle_alpha    79.026
_cell_angle_beta     90
_cell_angle_gamma    90

_space_group_name_H-M_alt    "P 1"
_space_group_IT_number       1

loop_
  _space_group_symop_operation_xyz
  'x, y, z'

loop_
  _atom_site_type_symbol
  _atom_site_label
  _atom_site_symmetry_multiplicity
  _atom_site_fract_x
  _atom_site_fract_y
  _atom_site_fract_z
  _atom_site_occupancy
  Ge  Ge1       1.0  0.75000  0.46000  0.08060  1.0000
  Ge  Ge2       1.0  0.25000  0.31200  0.37700  1.0000
  Ge  Ge3       1.0  0.75000  0.81000  0.38100  1.0000
  Ge  Ge4       1.0  0.25000  0.19000  0.61900  1.0000
  Ge  Ge5       1.0  0.75000  0.68800  0.62300  1.0000
  Ge  Ge6       1.0  0.25000  0.54000  0.91900  1.0000
  Tm  Tm1       1.0  0.25000  0.91800  0.16300  1.0000
  Tm  Tm2       1.0  0.75000  0.08170  0.83700  1.0000
