# generated using pymatgen
data_GaN5O14
_symmetry_space_group_name_H-M   'P 1'
_cell_length_a   7.42006048
_cell_length_b   7.42006048
_cell_length_c   7.42006048
_cell_angle_alpha   100.26526915
_cell_angle_beta   100.26526915
_cell_angle_gamma   130.05992341
_symmetry_Int_Tables_number   1
_chemical_formula_structural   GaN5O14
_chemical_formula_sum   'Ga1 N5 O14'
_cell_volume   283.44990027
_cell_formula_units_Z   1
loop_
 _symmetry_equiv_pos_site_id
 _symmetry_equiv_pos_as_xyz
  1  'x, y, z'
loop_
 _atom_site_type_symbol
 _atom_site_label
 _atom_site_symmetry_multiplicity
 _atom_site_fract_x
 _atom_site_fract_y
 _atom_site_fract_z
 _atom_site_occupancy
  Ga  Ga0  1  0.00000000  0.00000000  0.00000000  1
  N  N1  1  0.55840200  0.56355500  0.69042300  1
  N  N2  1  0.43644500  0.12686800  0.99484700  1
  N  N3  1  0.87313200  0.86797800  0.30957700  1
  N  N4  1  0.13202200  0.44159800  0.00515300  1
  N  N5  1  0.25000000  0.75000000  0.50000000  1
  O  O6  1  0.09245900  0.34187100  0.83172700  1
  O  O7  1  0.56023100  0.10532800  0.92120500  1
  O  O8  1  0.89467200  0.81587700  0.45490300  1
  O  O9  1  0.01181500  0.88171800  0.20489900  1
  O  O10  1  0.73926700  0.90754100  0.24941200  1
  O  O11  1  0.18412300  0.63902600  0.07879500  1
  O  O12  1  0.11828200  0.32318100  0.13009700  1
  O  O13  1  0.67681900  0.80691600  0.79510100  1
  O  O14  1  0.36097400  0.43976900  0.54509700  1
  O  O15  1  0.06815700  0.56815700  0.50000000  1
  O  O16  1  0.19308400  0.98818500  0.86990300  1
  O  O17  1  0.65812900  0.48985500  0.75058800  1
  O  O18  1  0.51014500  0.26073300  0.16827300  1
  O  O19  1  0.43184300  0.93184300  0.50000000  1
