# generated using pymatgen
data_GdAg(PO3)4
_symmetry_space_group_name_H-M   'P 1'
_cell_length_a   13.28863600
_cell_length_b   7.34467700
_cell_length_c   12.31234855
_cell_angle_alpha   53.77385987
_cell_angle_beta   90.00000000
_cell_angle_gamma   90.00000000
_symmetry_Int_Tables_number   1
_chemical_formula_structural   GdAg(PO3)4
_chemical_formula_sum   'Gd4 Ag4 P16 O48'
_cell_volume   969.39572263
_cell_formula_units_Z   4
loop_
 _symmetry_equiv_pos_site_id
 _symmetry_equiv_pos_as_xyz
  1  'x, y, z'
loop_
 _atom_site_type_symbol
 _atom_site_label
 _atom_site_symmetry_multiplicity
 _atom_site_fract_x
 _atom_site_fract_y
 _atom_site_fract_z
 _atom_site_occupancy
  Gd  Gd0  1  0.21875700  0.53360300  0.47829400  1
  Gd  Gd1  1  0.78124300  0.46639700  0.52170600  1
  Gd  Gd2  1  0.71875700  0.46639700  0.02170600  1
  Gd  Gd3  1  0.28124300  0.53360300  0.97829400  1
  Ag  Ag4  1  0.77768300  0.06537600  0.43503600  1
  Ag  Ag5  1  0.27768300  0.93462400  0.06496400  1
  Ag  Ag6  1  0.72231700  0.06537600  0.93503600  1
  Ag  Ag7  1  0.22231700  0.93462400  0.56496400  1
  P  P8  1  0.59116200  0.44110000  0.29552400  1
  P  P9  1  0.90883800  0.44110000  0.79552400  1
  P  P10  1  0.62625800  0.65562600  0.69670300  1
  P  P11  1  0.37374200  0.34437400  0.30329700  1
  P  P12  1  0.10100900  0.00614500  0.74809900  1
  P  P13  1  0.40883800  0.55890000  0.70447600  1
  P  P14  1  0.87374200  0.65562600  0.19670300  1
  P  P15  1  0.60100900  0.99385500  0.75190100  1
  P  P16  1  0.61395400  0.88842400  0.23768900  1
  P  P17  1  0.89899100  0.99385500  0.25190100  1
  P  P18  1  0.11395400  0.11157600  0.26231100  1
  P  P19  1  0.38604600  0.11157600  0.76231100  1
  P  P20  1  0.12625800  0.34437400  0.80329700  1
  P  P21  1  0.09116200  0.55890000  0.20447600  1
  P  P22  1  0.39899100  0.00614500  0.24809900  1
  P  P23  1  0.88604600  0.88842400  0.73768900  1
  O  O24  1  0.13267200  0.51885400  0.65373700  1
  O  O25  1  0.63267200  0.48114600  0.84626300  1
  O  O26  1  0.97994500  0.64064800  0.13924800  1
  O  O27  1  0.60825000  0.80746000  0.90058500  1
  O  O28  1  0.18840100  0.21956900  0.14937800  1
  O  O29  1  0.16551900  0.79923000  0.80307700  1
  O  O30  1  0.88913400  0.38083100  0.70029000  1
  O  O31  1  0.89175000  0.80746000  0.40058500  1
  O  O32  1  0.86732800  0.48114600  0.34626300  1
  O  O33  1  0.61086600  0.38083100  0.20029000  1
  O  O34  1  0.87771700  0.90479500  0.16202500  1
  O  O35  1  0.16176100  0.64608400  0.08784300  1
  O  O36  1  0.52005500  0.64064800  0.63924800  1
  O  O37  1  0.66176100  0.35391600  0.41215700  1
  O  O38  1  0.64421000  0.10254600  0.10520800  1
  O  O39  1  0.11086600  0.61916900  0.29971000  1
  O  O40  1  0.62228300  0.90479500  0.66202500  1
  O  O41  1  0.39175000  0.19254000  0.09941500  1
  O  O42  1  0.58005200  0.71285700  0.20627400  1
  O  O43  1  0.14421000  0.89745400  0.39479200  1
  O  O44  1  0.66551900  0.20077000  0.69692300  1
  O  O45  1  0.81159900  0.78043100  0.85062200  1
  O  O46  1  0.41994800  0.28714300  0.79372600  1
  O  O47  1  0.12228300  0.09520500  0.83797500  1
  O  O48  1  0.29276400  0.33242100  0.39265600  1
  O  O49  1  0.10825000  0.19254000  0.59941500  1
  O  O50  1  0.98689700  0.92318600  0.79437400  1
  O  O51  1  0.47994500  0.35935200  0.36075200  1
  O  O52  1  0.68840100  0.78043100  0.35062200  1
  O  O53  1  0.38913400  0.61916900  0.79971000  1
  O  O54  1  0.02005500  0.35935200  0.86075200  1
  O  O55  1  0.35579000  0.89745400  0.89479200  1
  O  O56  1  0.36732800  0.51885400  0.15373700  1
  O  O57  1  0.85579000  0.10254600  0.60520800  1
  O  O58  1  0.08005200  0.28714300  0.29372600  1
  O  O59  1  0.33448100  0.79923000  0.30307700  1
  O  O60  1  0.31159900  0.21956900  0.64937800  1
  O  O61  1  0.37771700  0.09520500  0.33797500  1
  O  O62  1  0.83823900  0.35391600  0.91215700  1
  O  O63  1  0.70723600  0.66757900  0.60734400  1
  O  O64  1  0.48689700  0.07681400  0.70562600  1
  O  O65  1  0.79276400  0.66757900  0.10734400  1
  O  O66  1  0.51310300  0.92318600  0.29437400  1
  O  O67  1  0.01310300  0.07681400  0.20562600  1
  O  O68  1  0.91994800  0.71285700  0.70627400  1
  O  O69  1  0.83448100  0.20077000  0.19692300  1
  O  O70  1  0.20723600  0.33242100  0.89265600  1
  O  O71  1  0.33823900  0.64608400  0.58784300  1
