# generated using pymatgen
data_UO11
_symmetry_space_group_name_H-M   'P 1'
_cell_length_a   5.95731700
_cell_length_b   7.10869461
_cell_length_c   8.20950294
_cell_angle_alpha   107.15992931
_cell_angle_beta   103.61979132
_cell_angle_gamma   101.41969550
_symmetry_Int_Tables_number   1
_chemical_formula_structural   UO11
_chemical_formula_sum   'U1 O11'
_cell_volume   309.16305650
_cell_formula_units_Z   1
loop_
 _symmetry_equiv_pos_site_id
 _symmetry_equiv_pos_as_xyz
  1  'x, y, z'
loop_
 _atom_site_type_symbol
 _atom_site_label
 _atom_site_symmetry_multiplicity
 _atom_site_fract_x
 _atom_site_fract_y
 _atom_site_fract_z
 _atom_site_occupancy
  U  U0  1  0.98450600  0.01509400  0.03673700  1
  O  O1  1  0.69241200  0.02672200  0.92190800  1
  O  O2  1  0.27933600  0.98881600  0.12242800  1
  O  O3  1  0.13868400  0.15565500  0.77515800  1
  O  O4  1  0.21022200  0.30253700  0.92236300  1
  O  O5  1  0.84783600  0.83168800  0.21109000  1
  O  O6  1  0.80424700  0.68915800  0.05439300  1
  O  O7  1  0.09464400  0.58681600  0.72078900  1
  O  O8  1  0.83559100  0.39378400  0.28176700  1
  O  O9  1  0.04143900  0.28249300  0.25974100  1
  O  O10  1  0.94195100  0.68011900  0.73580600  1
  O  O11  1  0.70713200  0.33011800  0.36482000  1
