# generated using pymatgen
data_V3O8
_symmetry_space_group_name_H-M   'P 1'
_cell_length_a   3.68336800
_cell_length_b   17.39361800
_cell_length_c   9.48081000
_cell_angle_alpha   90.00000000
_cell_angle_beta   90.00000000
_cell_angle_gamma   90.00000000
_symmetry_Int_Tables_number   1
_chemical_formula_structural   V3O8
_chemical_formula_sum   'V12 O32'
_cell_volume   607.40796391
_cell_formula_units_Z   4
loop_
 _symmetry_equiv_pos_site_id
 _symmetry_equiv_pos_as_xyz
  1  'x, y, z'
loop_
 _atom_site_type_symbol
 _atom_site_label
 _atom_site_symmetry_multiplicity
 _atom_site_fract_x
 _atom_site_fract_y
 _atom_site_fract_z
 _atom_site_occupancy
  V  V0  1  0.25000000  0.54401900  0.37311900  1
  V  V1  1  0.25000000  0.04401900  0.12688200  1
  V  V2  1  0.75000000  0.45598100  0.62688100  1
  V  V3  1  0.75000000  0.95598100  0.87311900  1
  V  V4  1  0.25000000  0.34787100  0.44839800  1
  V  V5  1  0.25000000  0.84787100  0.05160200  1
  V  V6  1  0.75000000  0.65212900  0.55160200  1
  V  V7  1  0.75000000  0.15212900  0.94839800  1
  V  V8  1  0.25000000  0.94852100  0.40998100  1
  V  V9  1  0.25000000  0.44852100  0.09001900  1
  V  V10  1  0.75000000  0.05147900  0.59001900  1
  V  V11  1  0.75000000  0.55147900  0.90998100  1
  O  O12  1  0.25000000  0.45817800  0.57217100  1
  O  O13  1  0.25000000  0.95817800  0.92782900  1
  O  O14  1  0.75000000  0.54182200  0.42782900  1
  O  O15  1  0.75000000  0.04182200  0.07217100  1
  O  O16  1  0.25000000  0.59485300  0.23046100  1
  O  O17  1  0.25000000  0.09485300  0.26953900  1
  O  O18  1  0.75000000  0.40514700  0.76953900  1
  O  O19  1  0.75000000  0.90514700  0.73046100  1
  O  O20  1  0.25000000  0.61991400  0.52944300  1
  O  O21  1  0.25000000  0.11991400  0.97055700  1
  O  O22  1  0.75000000  0.38008600  0.47055700  1
  O  O23  1  0.75000000  0.88008600  0.02944300  1
  O  O24  1  0.25000000  0.44540600  0.28565400  1
  O  O25  1  0.25000000  0.94540600  0.21434600  1
  O  O26  1  0.75000000  0.55459400  0.71434600  1
  O  O27  1  0.75000000  0.05459400  0.78565400  1
  O  O28  1  0.25000000  0.28184700  0.31971000  1
  O  O29  1  0.25000000  0.78184700  0.18029000  1
  O  O30  1  0.75000000  0.71815300  0.68029000  1
  O  O31  1  0.75000000  0.21815300  0.81971000  1
  O  O32  1  0.25000000  0.27980000  0.57521200  1
  O  O33  1  0.25000000  0.77980000  0.92478800  1
  O  O34  1  0.75000000  0.72020000  0.42478800  1
  O  O35  1  0.75000000  0.22020000  0.07521200  1
  O  O36  1  0.25000000  0.02001800  0.57398500  1
  O  O37  1  0.25000000  0.52001800  0.92601500  1
  O  O38  1  0.75000000  0.97998200  0.42601500  1
  O  O39  1  0.75000000  0.47998200  0.07398500  1
  O  O40  1  0.25000000  0.86108300  0.46228500  1
  O  O41  1  0.25000000  0.36108300  0.03771500  1
  O  O42  1  0.75000000  0.13891700  0.53771500  1
  O  O43  1  0.75000000  0.63891700  0.96228500  1
