# generated using pymatgen
data_NaTeH12(CO)3
_symmetry_space_group_name_H-M   'P 1'
_cell_length_a   8.59139360
_cell_length_b   8.59139360
_cell_length_c   13.71329100
_cell_angle_alpha   90.00000000
_cell_angle_beta   90.00000000
_cell_angle_gamma   119.99999695
_symmetry_Int_Tables_number   1
_chemical_formula_structural   NaTeH12(CO)3
_chemical_formula_sum   'Na4 Te4 H48 C12 O12'
_cell_volume   876.59617092
_cell_formula_units_Z   4
loop_
 _symmetry_equiv_pos_site_id
 _symmetry_equiv_pos_as_xyz
  1  'x, y, z'
loop_
 _atom_site_type_symbol
 _atom_site_label
 _atom_site_symmetry_multiplicity
 _atom_site_fract_x
 _atom_site_fract_y
 _atom_site_fract_z
 _atom_site_occupancy
  Na  Na0  1  0.00000000  0.00000000  0.25000000  1
  Na  Na1  1  0.00000000  0.00000000  0.00000000  1
  Na  Na2  1  0.00000000  0.00000000  0.75000000  1
  Na  Na3  1  0.00000000  0.00000000  0.50000000  1
  Te  Te4  1  0.33333300  0.66666700  0.85155800  1
  Te  Te5  1  0.66666700  0.33333300  0.14844200  1
  Te  Te6  1  0.33333300  0.66666700  0.64844200  1
  Te  Te7  1  0.66666700  0.33333300  0.35155800  1
  H  H8  1  0.69108500  0.54623000  0.54954300  1
  H  H9  1  0.30891500  0.45377000  0.45045700  1
  H  H10  1  0.14485500  0.45377000  0.04954300  1
  H  H11  1  0.63998500  0.90885300  0.10429900  1
  H  H12  1  0.36001500  0.09114700  0.89570100  1
  H  H13  1  0.54623000  0.85514500  0.45045700  1
  H  H14  1  0.14485500  0.69108500  0.45045700  1
  H  H15  1  0.28793800  0.82253400  0.17897900  1
  H  H16  1  0.17746600  0.46540300  0.17897900  1
  H  H17  1  0.73113200  0.63998500  0.89570100  1
  H  H18  1  0.17746600  0.71206200  0.32102100  1
  H  H19  1  0.46540300  0.28793800  0.82102100  1
  H  H20  1  0.09114700  0.73113200  0.10429900  1
  H  H21  1  0.90885300  0.63998500  0.60429900  1
  H  H22  1  0.73113200  0.09114700  0.60429900  1
  H  H23  1  0.26886800  0.36001500  0.10429900  1
  H  H24  1  0.45377000  0.14485500  0.54954300  1
  H  H25  1  0.71206200  0.53459700  0.67897900  1
  H  H26  1  0.36001500  0.26886800  0.60429900  1
  H  H27  1  0.53459700  0.71206200  0.17897900  1
  H  H28  1  0.69108500  0.14485500  0.95045700  1
  H  H29  1  0.76773300  0.10812700  0.36856000  1
  H  H30  1  0.65960600  0.89187300  0.86856000  1
  H  H31  1  0.53459700  0.82253400  0.32102100  1
  H  H32  1  0.34039400  0.10812700  0.13144000  1
  H  H33  1  0.34039400  0.23226700  0.36856000  1
  H  H34  1  0.89187300  0.65960600  0.36856000  1
  H  H35  1  0.26886800  0.90885300  0.39570100  1
  H  H36  1  0.09114700  0.36001500  0.39570100  1
  H  H37  1  0.10812700  0.76773300  0.86856000  1
  H  H38  1  0.23226700  0.89187300  0.63144000  1
  H  H39  1  0.89187300  0.23226700  0.13144000  1
  H  H40  1  0.85514500  0.30891500  0.54954300  1
  H  H41  1  0.46540300  0.17746600  0.67897900  1
  H  H42  1  0.82253400  0.28793800  0.67897900  1
  H  H43  1  0.30891500  0.85514500  0.04954300  1
  H  H44  1  0.76773300  0.65960600  0.13144000  1
  H  H45  1  0.85514500  0.54623000  0.95045700  1
  H  H46  1  0.23226700  0.34039400  0.86856000  1
  H  H47  1  0.65960600  0.76773300  0.63144000  1
  H  H48  1  0.45377000  0.30891500  0.95045700  1
  H  H49  1  0.28793800  0.46540300  0.32102100  1
  H  H50  1  0.10812700  0.34039400  0.63144000  1
  H  H51  1  0.82253400  0.53459700  0.82102100  1
  H  H52  1  0.63998500  0.73113200  0.39570100  1
  H  H53  1  0.54623000  0.69108500  0.04954300  1
  H  H54  1  0.71206200  0.17746600  0.82102100  1
  H  H55  1  0.90885300  0.26886800  0.89570100  1
  C  C56  1  0.38185100  0.15428800  0.61378200  1
  C  C57  1  0.77243700  0.61814900  0.61378200  1
  C  C58  1  0.22756300  0.84571200  0.11378200  1
  C  C59  1  0.15428800  0.38185100  0.11378200  1
  C  C60  1  0.61814900  0.84571200  0.38621800  1
  C  C61  1  0.15428800  0.77243700  0.38621800  1
  C  C62  1  0.22756300  0.38185100  0.38621800  1
  C  C63  1  0.38185100  0.22756300  0.88621800  1
  C  C64  1  0.77243700  0.15428800  0.88621800  1
  C  C65  1  0.84571200  0.22756300  0.61378200  1
  C  C66  1  0.84571200  0.61814900  0.88621800  1
  C  C67  1  0.61814900  0.77243700  0.11378200  1
  O  O68  1  0.20878200  0.99483800  0.62463300  1
  O  O69  1  0.79121800  0.78605600  0.12463300  1
  O  O70  1  0.00516200  0.79121800  0.87536700  1
  O  O71  1  0.99483800  0.20878200  0.12463300  1
  O  O72  1  0.78605600  0.79121800  0.62463300  1
  O  O73  1  0.78605600  0.99483800  0.87536700  1
  O  O74  1  0.21394400  0.20878200  0.37536700  1
  O  O75  1  0.21394400  0.00516200  0.12463300  1
  O  O76  1  0.00516200  0.21394400  0.62463300  1
  O  O77  1  0.20878200  0.21394400  0.87536700  1
  O  O78  1  0.79121800  0.00516200  0.37536700  1
  O  O79  1  0.99483800  0.78605600  0.37536700  1
