# generated using pymatgen
data_RbCrClO3
_symmetry_space_group_name_H-M   'P 1'
_cell_length_a   7.76475300
_cell_length_b   8.25631100
_cell_length_c   8.28627967
_cell_angle_alpha   89.29421546
_cell_angle_beta   90.00000000
_cell_angle_gamma   90.00000000
_symmetry_Int_Tables_number   1
_chemical_formula_structural   RbCrClO3
_chemical_formula_sum   'Rb4 Cr4 Cl4 O12'
_cell_volume   531.17830075
_cell_formula_units_Z   4
loop_
 _symmetry_equiv_pos_site_id
 _symmetry_equiv_pos_as_xyz
  1  'x, y, z'
loop_
 _atom_site_type_symbol
 _atom_site_label
 _atom_site_symmetry_multiplicity
 _atom_site_fract_x
 _atom_site_fract_y
 _atom_site_fract_z
 _atom_site_occupancy
  Rb  Rb0  1  0.14304800  0.36589400  0.18507300  1
  Rb  Rb1  1  0.35695200  0.86589400  0.18507300  1
  Rb  Rb2  1  0.85695200  0.63410600  0.81492700  1
  Rb  Rb3  1  0.64304800  0.13410600  0.81492700  1
  Cr  Cr4  1  0.87448500  0.87416200  0.22220400  1
  Cr  Cr5  1  0.12551500  0.12583800  0.77779600  1
  Cr  Cr6  1  0.62551500  0.37416200  0.22220400  1
  Cr  Cr7  1  0.37448500  0.62583800  0.77779600  1
  Cl  Cl8  1  0.77625000  0.36143800  0.44534400  1
  Cl  Cl9  1  0.22375000  0.63856200  0.55465600  1
  Cl  Cl10  1  0.72375000  0.86143800  0.44534400  1
  Cl  Cl11  1  0.27625000  0.13856200  0.55465600  1
  O  O12  1  0.49997400  0.53133000  0.22618100  1
  O  O13  1  0.73958200  0.88718600  0.07166500  1
  O  O14  1  0.99997400  0.96867000  0.77381900  1
  O  O15  1  0.99079100  0.71112000  0.20662900  1
  O  O16  1  0.23958200  0.61281400  0.92833500  1
  O  O17  1  0.49079100  0.78888000  0.79337100  1
  O  O18  1  0.00002600  0.03133000  0.22618100  1
  O  O19  1  0.50002600  0.46867000  0.77381900  1
  O  O20  1  0.00920900  0.28888000  0.79337100  1
  O  O21  1  0.50920900  0.21112000  0.20662900  1
  O  O22  1  0.26041800  0.11281400  0.92833500  1
  O  O23  1  0.76041800  0.38718600  0.07166500  1
