# generated using pymatgen
data_Ti3(BiO3)4
_symmetry_space_group_name_H-M   'P 1'
_cell_length_a   17.00772830
_cell_length_b   17.00772830
_cell_length_c   5.49599000
_cell_angle_alpha   89.91640359
_cell_angle_beta   89.91640359
_cell_angle_gamma   18.37192898
_symmetry_Int_Tables_number   1
_chemical_formula_structural   Ti3(BiO3)4
_chemical_formula_sum   'Ti6 Bi8 O24'
_cell_volume   501.07461222
_cell_formula_units_Z   2
loop_
 _symmetry_equiv_pos_site_id
 _symmetry_equiv_pos_as_xyz
  1  'x, y, z'
loop_
 _atom_site_type_symbol
 _atom_site_label
 _atom_site_symmetry_multiplicity
 _atom_site_fract_x
 _atom_site_fract_y
 _atom_site_fract_z
 _atom_site_occupancy
  Ti  Ti0  1  0.99731300  0.50656400  0.51921100  1
  Ti  Ti1  1  0.12502400  0.63164700  0.52852600  1
  Ti  Ti2  1  0.37267900  0.86890500  0.02389400  1
  Ti  Ti3  1  0.86890500  0.37267900  0.52389400  1
  Ti  Ti4  1  0.63164700  0.12502400  0.02852600  1
  Ti  Ti5  1  0.50656400  0.99731300  0.01921100  1
  Bi  Bi6  1  0.70013100  0.21938800  0.46038400  1
  Bi  Bi7  1  0.78541500  0.28795400  0.96798500  1
  Bi  Bi8  1  0.21938800  0.70013100  0.96038400  1
  Bi  Bi9  1  0.42808000  0.93792400  0.47499800  1
  Bi  Bi10  1  0.28795400  0.78541500  0.46798500  1
  Bi  Bi11  1  0.56263700  0.06983200  0.48215600  1
  Bi  Bi12  1  0.06983200  0.56263700  0.98215600  1
  Bi  Bi13  1  0.93792400  0.42808000  0.97499800  1
  O  O14  1  0.29982600  0.22525400  0.76832900  1
  O  O15  1  0.36360100  0.77412000  0.02947900  1
  O  O16  1  0.92800200  0.82359200  0.84746800  1
  O  O17  1  0.63908000  0.98106500  0.07167400  1
  O  O18  1  0.50101400  0.49774100  0.73706800  1
  O  O19  1  0.01477900  0.37438900  0.56626600  1
  O  O20  1  0.98106500  0.63908000  0.57167400  1
  O  O21  1  0.32749000  0.39419800  0.26915800  1
  O  O22  1  0.37438900  0.01477900  0.06626600  1
  O  O23  1  0.62240300  0.23920100  0.03949800  1
  O  O24  1  0.65795900  0.62037800  0.26921600  1
  O  O25  1  0.77412000  0.36360100  0.52947900  1
  O  O26  1  0.78940500  0.69821700  0.84614100  1
  O  O27  1  0.16357200  0.09178700  0.32286500  1
  O  O28  1  0.82359200  0.92800200  0.34746800  1
  O  O29  1  0.00091400  0.99732400  0.73338300  1
  O  O30  1  0.62037800  0.65795900  0.76921600  1
  O  O31  1  0.23920100  0.62240300  0.53949800  1
  O  O32  1  0.69821700  0.78940500  0.34614100  1
  O  O33  1  0.49774100  0.50101400  0.23706800  1
  O  O34  1  0.39419800  0.32749000  0.76915800  1
  O  O35  1  0.99732400  0.00091400  0.23338300  1
  O  O36  1  0.09178700  0.16357200  0.82286500  1
  O  O37  1  0.22525400  0.29982600  0.26832900  1
