# generated using pymatgen
data_Na5WNO4
_symmetry_space_group_name_H-M   'P 1'
_cell_length_a   5.78929102
_cell_length_b   5.78929102
_cell_length_c   10.77197500
_cell_angle_alpha   90.00000000
_cell_angle_beta   90.00000000
_cell_angle_gamma   119.33674410
_symmetry_Int_Tables_number   1
_chemical_formula_structural   Na5WNO4
_chemical_formula_sum   'Na10 W2 N2 O8'
_cell_volume   314.73183318
_cell_formula_units_Z   2
loop_
 _symmetry_equiv_pos_site_id
 _symmetry_equiv_pos_as_xyz
  1  'x, y, z'
loop_
 _atom_site_type_symbol
 _atom_site_label
 _atom_site_symmetry_multiplicity
 _atom_site_fract_x
 _atom_site_fract_y
 _atom_site_fract_z
 _atom_site_occupancy
  Na  Na0  1  0.46547800  0.83610700  0.75915500  1
  Na  Na1  1  0.17608200  0.79309000  0.00914600  1
  Na  Na2  1  0.82391800  0.20691000  0.50914600  1
  Na  Na3  1  0.16389300  0.53452200  0.25915500  1
  Na  Na4  1  0.42857700  0.42857700  0.02571400  1
  Na  Na5  1  0.57142300  0.57142300  0.52571400  1
  Na  Na6  1  0.83610700  0.46547800  0.75915500  1
  Na  Na7  1  0.20691000  0.82391800  0.50914600  1
  Na  Na8  1  0.79309000  0.17608200  0.00914600  1
  Na  Na9  1  0.53452200  0.16389300  0.25915500  1
  W  W10  1  0.20819700  0.20819700  0.74780800  1
  W  W11  1  0.79180300  0.79180300  0.24780800  1
  N  N12  1  0.09756000  0.09756000  0.22322000  1
  N  N13  1  0.90244000  0.90244000  0.72322000  1
  O  O14  1  0.18782200  0.46184400  0.63139700  1
  O  O15  1  0.81217800  0.53815600  0.13139700  1
  O  O16  1  0.14405800  0.41607200  0.87693100  1
  O  O17  1  0.53815600  0.81217800  0.13139700  1
  O  O18  1  0.46184400  0.18782200  0.63139700  1
  O  O19  1  0.41607200  0.14405800  0.87693100  1
  O  O20  1  0.58392800  0.85594200  0.37693100  1
  O  O21  1  0.85594200  0.58392800  0.37693100  1
