# generated using pymatgen
data_H9C3SeSN2Cl
_symmetry_space_group_name_H-M   'P 1'
_cell_length_a   5.69372000
_cell_length_b   8.30411046
_cell_length_c   9.20845305
_cell_angle_alpha   70.57323497
_cell_angle_beta   81.79354914
_cell_angle_gamma   77.67733674
_symmetry_Int_Tables_number   1
_chemical_formula_structural   H9C3SeSN2Cl
_chemical_formula_sum   'H18 C6 Se2 S2 N4 Cl2'
_cell_volume   399.92150289
_cell_formula_units_Z   2
loop_
 _symmetry_equiv_pos_site_id
 _symmetry_equiv_pos_as_xyz
  1  'x, y, z'
loop_
 _atom_site_type_symbol
 _atom_site_label
 _atom_site_symmetry_multiplicity
 _atom_site_fract_x
 _atom_site_fract_y
 _atom_site_fract_z
 _atom_site_occupancy
  H  H0  1  0.54804200  0.04574800  0.83745500  1
  H  H1  1  0.28589700  0.85655300  0.06741600  1
  H  H2  1  0.63017700  0.64676300  0.00092800  1
  H  H3  1  0.18079400  0.09230700  0.51532700  1
  H  H4  1  0.19802500  0.19709000  0.30650000  1
  H  H5  1  0.80197500  0.80291000  0.69350000  1
  H  H6  1  0.71410300  0.14344700  0.93258400  1
  H  H7  1  0.15797300  0.50529500  0.86709200  1
  H  H8  1  0.14156000  0.27602300  0.93283400  1
  H  H9  1  0.45195800  0.95425200  0.16254500  1
  H  H10  1  0.81920600  0.90769300  0.48467300  1
  H  H11  1  0.81392500  0.13527600  0.73955000  1
  H  H12  1  0.84202700  0.49470500  0.13290800  1
  H  H13  1  0.36982300  0.35323700  0.99907200  1
  H  H14  1  0.18607500  0.86472400  0.26045000  1
  H  H15  1  0.85844000  0.72397700  0.06716600  1
  H  H16  1  0.98388400  0.68874500  0.56630800  1
  H  H17  1  0.01611600  0.31125500  0.43369200  1
  C  C18  1  0.17515400  0.21505500  0.42019400  1
  C  C19  1  0.25991500  0.37240900  0.90363600  1
  C  C20  1  0.82484600  0.78494500  0.57980600  1
  C  C21  1  0.65705100  0.14588100  0.82232300  1
  C  C22  1  0.74008500  0.62759100  0.09636400  1
  C  C23  1  0.34294900  0.85411900  0.17767700  1
  Se  Se24  1  0.44738300  0.31028200  0.44039000  1
  Se  Se25  1  0.55261700  0.68971800  0.55961000  1
  S  S26  1  0.53319500  0.65023300  0.25634000  1
  S  S27  1  0.46680500  0.34976700  0.74366000  1
  N  N28  1  0.70584500  0.64460700  0.37663200  1
  N  N29  1  0.29415500  0.35539300  0.62336800  1
  N  N30  1  0.65566500  0.47696300  0.70032500  1
  N  N31  1  0.34433500  0.52303700  0.29967500  1
  Cl  Cl32  1  0.72036500  0.15606800  0.20492100  1
  Cl  Cl33  1  0.27963500  0.84393200  0.79507900  1
