# generated using pymatgen
data_LaBMoO6
_symmetry_space_group_name_H-M   'P 1'
_cell_length_a   4.19567100
_cell_length_b   10.42011300
_cell_length_c   24.02303940
_cell_angle_alpha   64.97672701
_cell_angle_beta   90.00000000
_cell_angle_gamma   90.00000000
_symmetry_Int_Tables_number   1
_chemical_formula_structural   LaBMoO6
_chemical_formula_sum   'La8 B8 Mo8 O48'
_cell_volume   951.68936573
_cell_formula_units_Z   8
loop_
 _symmetry_equiv_pos_site_id
 _symmetry_equiv_pos_as_xyz
  1  'x, y, z'
loop_
 _atom_site_type_symbol
 _atom_site_label
 _atom_site_symmetry_multiplicity
 _atom_site_fract_x
 _atom_site_fract_y
 _atom_site_fract_z
 _atom_site_occupancy
  La  La0  1  0.75604200  0.33401100  0.73466000  1
  La  La1  1  0.74395800  0.33401100  0.23466000  1
  La  La2  1  0.21221700  0.16673300  0.51580100  1
  La  La3  1  0.25604200  0.66598900  0.76534000  1
  La  La4  1  0.71221700  0.83326700  0.98419900  1
  La  La5  1  0.28778300  0.16673300  0.01580100  1
  La  La6  1  0.24395800  0.66598900  0.26534000  1
  La  La7  1  0.78778300  0.83326700  0.48419900  1
  B  B8  1  0.16601200  0.80691600  0.09536900  1
  B  B9  1  0.83398800  0.19308400  0.90463100  1
  B  B10  1  0.83374400  0.69496700  0.65388100  1
  B  B11  1  0.33374400  0.30503300  0.84611900  1
  B  B12  1  0.66601200  0.19308400  0.40463100  1
  B  B13  1  0.33398800  0.80691600  0.59536900  1
  B  B14  1  0.66625600  0.69496700  0.15388100  1
  B  B15  1  0.16625600  0.30503300  0.34611900  1
  Mo  Mo16  1  0.82430500  0.53419500  0.90976900  1
  Mo  Mo17  1  0.30094300  0.96479200  0.83976100  1
  Mo  Mo18  1  0.69905700  0.03520800  0.16023900  1
  Mo  Mo19  1  0.67569500  0.53419500  0.40976900  1
  Mo  Mo20  1  0.80094300  0.03520800  0.66023900  1
  Mo  Mo21  1  0.19905700  0.96479200  0.33976100  1
  Mo  Mo22  1  0.32430500  0.46580500  0.59023100  1
  Mo  Mo23  1  0.17569500  0.46580500  0.09023100  1
  O  O24  1  0.28320000  0.89603700  0.42345800  1
  O  O25  1  0.21680000  0.89603700  0.92345800  1
  O  O26  1  0.24705200  0.34936500  0.55483300  1
  O  O27  1  0.65807000  0.26812000  0.85096600  1
  O  O28  1  0.21568000  0.14969000  0.79146300  1
  O  O29  1  0.74705200  0.65063500  0.94516700  1
  O  O30  1  0.23908000  0.65072300  0.54159200  1
  O  O31  1  0.73517600  0.59034800  0.70660100  1
  O  O32  1  0.84193000  0.26812000  0.35096600  1
  O  O33  1  0.74207400  0.60265100  0.82608800  1
  O  O34  1  0.78432000  0.85031000  0.20853700  1
  O  O35  1  0.25213600  0.53252800  0.40221100  1
  O  O36  1  0.71568000  0.85031000  0.70853700  1
  O  O37  1  0.23517600  0.40965200  0.79339900  1
  O  O38  1  0.76975100  0.08869000  0.45688500  1
  O  O39  1  0.23024900  0.91131000  0.54311500  1
  O  O40  1  0.72330700  0.15213500  0.69551300  1
  O  O41  1  0.27669300  0.84786500  0.30448700  1
  O  O42  1  0.15807000  0.73188000  0.64903400  1
  O  O43  1  0.27602500  0.03439500  0.15239300  1
  O  O44  1  0.74786400  0.46747200  0.59778900  1
  O  O45  1  0.76482400  0.59034800  0.20660100  1
  O  O46  1  0.75213600  0.46747200  0.09778900  1
  O  O47  1  0.28432000  0.14969000  0.29146300  1
  O  O48  1  0.26482400  0.40965200  0.29339900  1
  O  O49  1  0.34193000  0.73188000  0.14903400  1
  O  O50  1  0.22330700  0.84786500  0.80448700  1
  O  O51  1  0.65813600  0.77028500  0.60030800  1
  O  O52  1  0.73908000  0.34927700  0.95840800  1
  O  O53  1  0.24786400  0.53252800  0.90221100  1
  O  O54  1  0.15813600  0.22971500  0.89969200  1
  O  O55  1  0.25294800  0.34936500  0.05483300  1
  O  O56  1  0.76092000  0.34927700  0.45840800  1
  O  O57  1  0.22397500  0.03439500  0.65239300  1
  O  O58  1  0.72397500  0.96560500  0.84760700  1
  O  O59  1  0.34186400  0.22971500  0.39969200  1
  O  O60  1  0.26092000  0.65072300  0.04159200  1
  O  O61  1  0.78320000  0.10396300  0.07654200  1
  O  O62  1  0.77602500  0.96560500  0.34760700  1
  O  O63  1  0.73024900  0.08869000  0.95688500  1
  O  O64  1  0.75294800  0.65063500  0.44516700  1
  O  O65  1  0.77669300  0.15213500  0.19551300  1
  O  O66  1  0.75792600  0.60265100  0.32608800  1
  O  O67  1  0.26975100  0.91131000  0.04311500  1
  O  O68  1  0.24207400  0.39734900  0.67391200  1
  O  O69  1  0.84186400  0.77028500  0.10030800  1
  O  O70  1  0.71680000  0.10396300  0.57654200  1
  O  O71  1  0.25792600  0.39734900  0.17391200  1
