# generated using pymatgen
data_V2CuP2O15
_symmetry_space_group_name_H-M   'P 1'
_cell_length_a   6.27768300
_cell_length_b   7.60247086
_cell_length_c   12.59676440
_cell_angle_alpha   104.23251415
_cell_angle_beta   90.94462894
_cell_angle_gamma   96.43618092
_symmetry_Int_Tables_number   1
_chemical_formula_structural   V2CuP2O15
_chemical_formula_sum   'V4 Cu2 P4 O30'
_cell_volume   578.46037203
_cell_formula_units_Z   2
loop_
 _symmetry_equiv_pos_site_id
 _symmetry_equiv_pos_as_xyz
  1  'x, y, z'
loop_
 _atom_site_type_symbol
 _atom_site_label
 _atom_site_symmetry_multiplicity
 _atom_site_fract_x
 _atom_site_fract_y
 _atom_site_fract_z
 _atom_site_occupancy
  V  V0  1  0.23822500  0.40886300  0.61266100  1
  V  V1  1  0.76177500  0.59113700  0.38733900  1
  V  V2  1  0.75780000  0.56534300  0.88543800  1
  V  V3  1  0.24220000  0.43465700  0.11456200  1
  Cu  Cu4  1  0.89094700  0.00845600  0.59247500  1
  Cu  Cu5  1  0.10905300  0.99154400  0.40752500  1
  P  P6  1  0.74739400  0.49452300  0.62434400  1
  P  P7  1  0.25260600  0.50547700  0.37565600  1
  P  P8  1  0.24736000  0.49330400  0.87433300  1
  P  P9  1  0.75264000  0.50669600  0.12566700  1
  O  O10  1  0.74489600  0.95524400  0.92042100  1
  O  O11  1  0.25510400  0.04475600  0.07957900  1
  O  O12  1  0.72707300  0.34763500  0.85628600  1
  O  O13  1  0.27292700  0.65236500  0.14371400  1
  O  O14  1  0.06595000  0.61950300  0.89086800  1
  O  O15  1  0.93405000  0.38049700  0.10913200  1
  O  O16  1  0.46413500  0.61889200  0.89391900  1
  O  O17  1  0.53586500  0.38110800  0.10608100  1
  O  O18  1  0.26265500  0.62841900  0.64594000  1
  O  O19  1  0.73734500  0.37158100  0.35406000  1
  O  O20  1  0.53203400  0.36659000  0.60232500  1
  O  O21  1  0.46796600  0.63341000  0.39767500  1
  O  O22  1  0.76050700  0.61624300  0.74341300  1
  O  O23  1  0.23949300  0.38375700  0.25658700  1
  O  O24  1  0.63682400  0.96375400  0.64841700  1
  O  O25  1  0.36317600  0.03624600  0.35158300  1
  O  O26  1  0.92549100  0.05076900  0.73618000  1
  O  O27  1  0.07450900  0.94923100  0.26382000  1
  O  O28  1  0.16155900  0.08523100  0.55417700  1
  O  O29  1  0.83844100  0.91476900  0.44582300  1
  O  O30  1  0.22703700  0.37491500  0.45256500  1
  O  O31  1  0.77296300  0.62508500  0.54743500  1
  O  O32  1  0.92464700  0.36478500  0.60594200  1
  O  O33  1  0.07535300  0.63521500  0.39405800  1
  O  O34  1  0.23364000  0.36489400  0.75727800  1
  O  O35  1  0.76636000  0.63510600  0.24272200  1
  O  O36  1  0.77193100  0.62938600  0.04310300  1
  O  O37  1  0.22806900  0.37061400  0.95689700  1
  O  O38  1  0.58889400  0.99087100  0.87419500  1
  O  O39  1  0.41110600  0.00912900  0.12580500  1
