# generated using pymatgen
data_H2CO2
_symmetry_space_group_name_H-M   'P 1'
_cell_length_a   3.74693500
_cell_length_b   5.45115100
_cell_length_c   10.52962800
_cell_angle_alpha   90.00000000
_cell_angle_beta   90.00000000
_cell_angle_gamma   90.00000000
_symmetry_Int_Tables_number   1
_chemical_formula_structural   H2CO2
_chemical_formula_sum   'H8 C4 O8'
_cell_volume   215.06879407
_cell_formula_units_Z   4
loop_
 _symmetry_equiv_pos_site_id
 _symmetry_equiv_pos_as_xyz
  1  'x, y, z'
loop_
 _atom_site_type_symbol
 _atom_site_label
 _atom_site_symmetry_multiplicity
 _atom_site_fract_x
 _atom_site_fract_y
 _atom_site_fract_z
 _atom_site_occupancy
  H  H0  1  0.07223400  0.31452500  0.60475100  1
  H  H1  1  0.53824100  0.36161800  0.35008600  1
  H  H2  1  0.96175900  0.36161800  0.85008600  1
  H  H3  1  0.03824100  0.86161800  0.14991400  1
  H  H4  1  0.57223400  0.81452500  0.89524900  1
  H  H5  1  0.92776600  0.81452500  0.39524900  1
  H  H6  1  0.42776600  0.31452500  0.10475100  1
  H  H7  1  0.46175900  0.86161800  0.64991400  1
  C  C8  1  0.31415400  0.16384600  0.16164500  1
  C  C9  1  0.18584600  0.16384600  0.66164500  1
  C  C10  1  0.81415400  0.66384600  0.33835500  1
  C  C11  1  0.68584600  0.66384600  0.83835500  1
  O  O12  1  0.65277100  0.65295900  0.72110100  1
  O  O13  1  0.64538200  0.49970200  0.40663200  1
  O  O14  1  0.34722900  0.15295900  0.27889900  1
  O  O15  1  0.14538200  0.99970200  0.09336800  1
  O  O16  1  0.15277100  0.15295900  0.77889900  1
  O  O17  1  0.35461800  0.99970200  0.59336800  1
  O  O18  1  0.85461800  0.49970200  0.90663200  1
  O  O19  1  0.84722900  0.65295900  0.22110100  1
