# generated using pymatgen
data_Cr2F5
_symmetry_space_group_name_H-M   'P 1'
_cell_length_a   5.53412415
_cell_length_b   5.53412415
_cell_length_c   7.31259628
_cell_angle_alpha   68.03522096
_cell_angle_beta   68.03522096
_cell_angle_gamma   87.06473971
_symmetry_Int_Tables_number   1
_chemical_formula_structural   Cr2F5
_chemical_formula_sum   'Cr4 F10'
_cell_volume   191.59980322
_cell_formula_units_Z   2
loop_
 _symmetry_equiv_pos_site_id
 _symmetry_equiv_pos_as_xyz
  1  'x, y, z'
loop_
 _atom_site_type_symbol
 _atom_site_label
 _atom_site_symmetry_multiplicity
 _atom_site_fract_x
 _atom_site_fract_y
 _atom_site_fract_z
 _atom_site_occupancy
  Cr  Cr0  1  0.00000000  0.50000000  0.50000000  1
  Cr  Cr1  1  0.50000000  0.00000000  0.00000000  1
  Cr  Cr2  1  0.50000000  0.00000000  0.50000000  1
  Cr  Cr3  1  0.00000000  0.50000000  0.00000000  1
  F  F4  1  0.32398300  0.31446500  0.45927300  1
  F  F5  1  0.68553500  0.67601700  0.04072700  1
  F  F6  1  0.67601700  0.68553500  0.54072700  1
  F  F7  1  0.31446500  0.32398300  0.95927300  1
  F  F8  1  0.81566100  0.18433900  0.25000000  1
  F  F9  1  0.18433900  0.81566100  0.75000000  1
  F  F10  1  0.08988200  0.64121000  0.17837200  1
  F  F11  1  0.35879000  0.91011800  0.32162800  1
  F  F12  1  0.91011800  0.35879000  0.82162800  1
  F  F13  1  0.64121000  0.08988200  0.67837200  1
