# generated using pymatgen
data_VF3
_symmetry_space_group_name_H-M   'P 1'
_cell_length_a   9.59878643
_cell_length_b   7.49794572
_cell_length_c   5.45869712
_cell_angle_alpha   136.17352582
_cell_angle_beta   151.54836842
_cell_angle_gamma   34.86048586
_symmetry_Int_Tables_number   1
_chemical_formula_structural   VF3
_chemical_formula_sum   'V2 F6'
_cell_volume   106.98224625
_cell_formula_units_Z   2
loop_
 _symmetry_equiv_pos_site_id
 _symmetry_equiv_pos_as_xyz
  1  'x, y, z'
loop_
 _atom_site_type_symbol
 _atom_site_label
 _atom_site_symmetry_multiplicity
 _atom_site_fract_x
 _atom_site_fract_y
 _atom_site_fract_z
 _atom_site_occupancy
  V  V0  1  0.00000000  0.50000000  0.00000000  1
  V  V1  1  0.00000000  0.00000000  0.00000000  1
  F  F2  1  0.50196100  0.35858100  0.60191800  1
  F  F3  1  0.12372600  0.25000000  0.24745200  1
  F  F4  1  0.09995700  0.14141900  0.60191800  1
  F  F5  1  0.49803900  0.64141900  0.39808200  1
  F  F6  1  0.87627400  0.75000000  0.75254800  1
  F  F7  1  0.90004300  0.85858100  0.39808200  1
