# generated using pymatgen
data_AsS4N4F5
_symmetry_space_group_name_H-M   'P 1'
_cell_length_a   10.66100600
_cell_length_b   7.94344700
_cell_length_c   12.78974522
_cell_angle_alpha   69.08562348
_cell_angle_beta   90.00000000
_cell_angle_gamma   90.00000000
_symmetry_Int_Tables_number   1
_chemical_formula_structural   AsS4N4F5
_chemical_formula_sum   'As4 S16 N16 F20'
_cell_volume   1011.74111235
_cell_formula_units_Z   4
loop_
 _symmetry_equiv_pos_site_id
 _symmetry_equiv_pos_as_xyz
  1  'x, y, z'
loop_
 _atom_site_type_symbol
 _atom_site_label
 _atom_site_symmetry_multiplicity
 _atom_site_fract_x
 _atom_site_fract_y
 _atom_site_fract_z
 _atom_site_occupancy
  As  As0  1  0.18361300  0.63233900  0.78635400  1
  As  As1  1  0.81638700  0.36766100  0.21364600  1
  As  As2  1  0.31638700  0.63233900  0.28635400  1
  As  As3  1  0.68361300  0.36766100  0.71364600  1
  S  S4  1  0.85137300  0.96578900  0.60703600  1
  S  S5  1  0.45359400  0.69972700  0.87470000  1
  S  S6  1  0.42376900  0.82853000  0.64298200  1
  S  S7  1  0.32648300  0.17811400  0.64440500  1
  S  S8  1  0.82648300  0.82188600  0.85559500  1
  S  S9  1  0.14862700  0.03421100  0.39296400  1
  S  S10  1  0.95359400  0.30027300  0.62530000  1
  S  S11  1  0.07623100  0.82853000  0.14298200  1
  S  S12  1  0.04640600  0.69972700  0.37470000  1
  S  S13  1  0.67351700  0.82188600  0.35559500  1
  S  S14  1  0.17351700  0.17811400  0.14440500  1
  S  S15  1  0.92376900  0.17147000  0.85701800  1
  S  S16  1  0.35137300  0.03421100  0.89296400  1
  S  S17  1  0.64862700  0.96578900  0.10703600  1
  S  S18  1  0.54640600  0.30027300  0.12530000  1
  S  S19  1  0.57623100  0.17147000  0.35701800  1
  N  N20  1  0.35883500  0.71969300  0.76753200  1
  N  N21  1  0.10794400  0.03852800  0.10156200  1
  N  N22  1  0.39205600  0.03852800  0.60156200  1
  N  N23  1  0.60794400  0.96147200  0.39843800  1
  N  N24  1  0.57107500  0.14393900  0.07694300  1
  N  N25  1  0.92892500  0.14393900  0.57694300  1
  N  N26  1  0.64116500  0.28030700  0.23246800  1
  N  N27  1  0.85883500  0.28030700  0.73246800  1
  N  N28  1  0.07107500  0.85606100  0.42305700  1
  N  N29  1  0.20989900  0.11916500  0.27280600  1
  N  N30  1  0.14116500  0.71969300  0.26753200  1
  N  N31  1  0.42892500  0.85606100  0.92305700  1
  N  N32  1  0.89205600  0.96147200  0.89843800  1
  N  N33  1  0.70989900  0.88083500  0.22719400  1
  N  N34  1  0.29010100  0.11916500  0.77280600  1
  N  N35  1  0.79010100  0.88083500  0.72719400  1
  F  F36  1  0.23688500  0.42312300  0.88464800  1
  F  F37  1  0.52708600  0.44588100  0.69829900  1
  F  F38  1  0.79328600  0.44541700  0.32641000  1
  F  F39  1  0.26311500  0.42312300  0.38464800  1
  F  F40  1  0.20671400  0.55458300  0.67359000  1
  F  F41  1  0.36635200  0.84584300  0.18821200  1
  F  F42  1  0.83647100  0.28466000  0.10233500  1
  F  F43  1  0.63364800  0.15415700  0.81178800  1
  F  F44  1  0.86635200  0.15415700  0.31178800  1
  F  F45  1  0.29328600  0.55458300  0.17359000  1
  F  F46  1  0.47291400  0.55411900  0.30170100  1
  F  F47  1  0.16352900  0.71534000  0.89766500  1
  F  F48  1  0.13364800  0.84584300  0.68821200  1
  F  F49  1  0.33647100  0.71534000  0.39766500  1
  F  F50  1  0.02708600  0.55411900  0.80170100  1
  F  F51  1  0.97291400  0.44588100  0.19829900  1
  F  F52  1  0.76311500  0.57687700  0.11535200  1
  F  F53  1  0.66352900  0.28466000  0.60233500  1
  F  F54  1  0.70671400  0.44541700  0.82641000  1
  F  F55  1  0.73688500  0.57687700  0.61535200  1
