# generated using pymatgen
data_Cr8O21
_symmetry_space_group_name_H-M   'P 1'
_cell_length_a   5.52256400
_cell_length_b   6.68618147
_cell_length_c   12.25835524
_cell_angle_alpha   105.06643019
_cell_angle_beta   89.64152848
_cell_angle_gamma   101.87581635
_symmetry_Int_Tables_number   1
_chemical_formula_structural   Cr8O21
_chemical_formula_sum   'Cr8 O21'
_cell_volume   427.18872472
_cell_formula_units_Z   1
loop_
 _symmetry_equiv_pos_site_id
 _symmetry_equiv_pos_as_xyz
  1  'x, y, z'
loop_
 _atom_site_type_symbol
 _atom_site_label
 _atom_site_symmetry_multiplicity
 _atom_site_fract_x
 _atom_site_fract_y
 _atom_site_fract_z
 _atom_site_occupancy
  Cr  Cr0  1  0.29312400  0.66549000  0.89503700  1
  Cr  Cr1  1  0.70687600  0.33451000  0.10496300  1
  Cr  Cr2  1  0.65229800  0.12711500  0.74602500  1
  Cr  Cr3  1  0.34770200  0.87288500  0.25397500  1
  Cr  Cr4  1  0.15179700  0.14386800  0.93164500  1
  Cr  Cr5  1  0.84820300  0.85613200  0.06835500  1
  Cr  Cr6  1  0.27047700  0.26422900  0.47341100  1
  Cr  Cr7  1  0.72952300  0.73577100  0.52658900  1
  O  O8  1  0.61764700  0.95696700  0.60586100  1
  O  O9  1  0.38235300  0.04303300  0.39413900  1
  O  O10  1  0.81828600  0.78341200  0.40966800  1
  O  O11  1  0.18171400  0.21658800  0.59033200  1
  O  O12  1  0.73017100  0.36888700  0.74420800  1
  O  O13  1  0.26982900  0.63111300  0.25579200  1
  O  O14  1  0.91184100  0.16038400  0.05741800  1
  O  O15  1  0.08815900  0.83961600  0.94258200  1
  O  O16  1  0.30382100  0.61544700  0.76120200  1
  O  O17  1  0.69617900  0.38455300  0.23879800  1
  O  O18  1  0.42459700  0.21258000  0.04771900  1
  O  O19  1  0.57540300  0.78742000  0.95228100  1
  O  O20  1  0.38528200  0.08855800  0.80980300  1
  O  O21  1  0.61471800  0.91144200  0.19019700  1
  O  O22  1  0.96218500  0.71162000  0.59386400  1
  O  O23  1  0.03781500  0.28838000  0.40613600  1
  O  O24  1  0.19750600  0.44563000  0.93715600  1
  O  O25  1  0.80249400  0.55437000  0.06284400  1
  O  O26  1  0.13084900  0.93151800  0.18208000  1
  O  O27  1  0.86915100  0.06848200  0.81792000  1
  O  O28  1  0.50000000  0.50000000  0.50000000  1
