# generated using pymatgen
data_Hg2MoO4
_symmetry_space_group_name_H-M   'P 1'
_cell_length_a   7.49797151
_cell_length_b   7.49797151
_cell_length_c   5.05743481
_cell_angle_alpha   75.01753684
_cell_angle_beta   75.01753684
_cell_angle_gamma   106.83005847
_symmetry_Int_Tables_number   1
_chemical_formula_structural   Hg2MoO4
_chemical_formula_sum   'Hg4 Mo2 O8'
_cell_volume   245.21435073
_cell_formula_units_Z   2
loop_
 _symmetry_equiv_pos_site_id
 _symmetry_equiv_pos_as_xyz
  1  'x, y, z'
loop_
 _atom_site_type_symbol
 _atom_site_label
 _atom_site_symmetry_multiplicity
 _atom_site_fract_x
 _atom_site_fract_y
 _atom_site_fract_z
 _atom_site_occupancy
  Hg  Hg0  1  0.53353800  0.75373100  0.52089700  1
  Hg  Hg1  1  0.24626900  0.46646200  0.97910300  1
  Hg  Hg2  1  0.46646200  0.24626900  0.47910300  1
  Hg  Hg3  1  0.75373100  0.53353800  0.02089700  1
  Mo  Mo4  1  0.09850500  0.90149500  0.25000000  1
  Mo  Mo5  1  0.90149500  0.09850500  0.75000000  1
  O  O6  1  0.66947200  0.05177100  0.69907100  1
  O  O7  1  0.33052800  0.94822900  0.30092900  1
  O  O8  1  0.18280700  0.08863500  0.85494300  1
  O  O9  1  0.08863500  0.18280700  0.35494300  1
  O  O10  1  0.05177100  0.66947200  0.19907100  1
  O  O11  1  0.91136500  0.81719300  0.64505700  1
  O  O12  1  0.81719300  0.91136500  0.14505700  1
  O  O13  1  0.94822900  0.33052800  0.80092900  1
