# generated using pymatgen
data_TlHCO2
_symmetry_space_group_name_H-M   'P 1'
_cell_length_a   6.07319200
_cell_length_b   7.14380800
_cell_length_c   8.06035000
_cell_angle_alpha   90.00000000
_cell_angle_beta   90.00000000
_cell_angle_gamma   90.00000000
_symmetry_Int_Tables_number   1
_chemical_formula_structural   TlHCO2
_chemical_formula_sum   'Tl4 H4 C4 O8'
_cell_volume   349.70406882
_cell_formula_units_Z   4
loop_
 _symmetry_equiv_pos_site_id
 _symmetry_equiv_pos_as_xyz
  1  'x, y, z'
loop_
 _atom_site_type_symbol
 _atom_site_label
 _atom_site_symmetry_multiplicity
 _atom_site_fract_x
 _atom_site_fract_y
 _atom_site_fract_z
 _atom_site_occupancy
  Tl  Tl0  1  0.46679300  0.50778100  0.00642700  1
  Tl  Tl1  1  0.96679300  0.99221900  0.50642700  1
  Tl  Tl2  1  0.03320700  0.00778100  0.00642700  1
  Tl  Tl3  1  0.53320700  0.49221900  0.50642700  1
  H  H4  1  0.49256700  0.93587400  0.75849800  1
  H  H5  1  0.50743300  0.06412600  0.25849800  1
  H  H6  1  0.99256700  0.56412600  0.25849800  1
  H  H7  1  0.00743300  0.43587400  0.75849800  1
  C  C8  1  0.00070700  0.40828600  0.25975700  1
  C  C9  1  0.99929300  0.59171400  0.75975700  1
  C  C10  1  0.50070700  0.09171400  0.75975700  1
  C  C11  1  0.49929300  0.90828600  0.25975700  1
  O  O12  1  0.84422400  0.32155000  0.33119000  1
  O  O13  1  0.34422400  0.17845000  0.83119000  1
  O  O14  1  0.65577600  0.82155000  0.33119000  1
  O  O15  1  0.15577600  0.67845000  0.83119000  1
  O  O16  1  0.16483200  0.33143700  0.18962800  1
  O  O17  1  0.33516800  0.83143700  0.18962800  1
  O  O18  1  0.83516800  0.66856300  0.68962800  1
  O  O19  1  0.66483200  0.16856300  0.68962800  1
