# generated using pymatgen
data_SNClO
_symmetry_space_group_name_H-M   'P 1'
_cell_length_a   7.88663300
_cell_length_b   10.51263400
_cell_length_c   12.05511000
_cell_angle_alpha   90.00000000
_cell_angle_beta   90.00000000
_cell_angle_gamma   90.00000000
_symmetry_Int_Tables_number   1
_chemical_formula_structural   SNClO
_chemical_formula_sum   'S12 N12 Cl12 O12'
_cell_volume   999.48056542
_cell_formula_units_Z   12
loop_
 _symmetry_equiv_pos_site_id
 _symmetry_equiv_pos_as_xyz
  1  'x, y, z'
loop_
 _atom_site_type_symbol
 _atom_site_label
 _atom_site_symmetry_multiplicity
 _atom_site_fract_x
 _atom_site_fract_y
 _atom_site_fract_z
 _atom_site_occupancy
  S  S0  1  0.40254100  0.51972100  0.25000000  1
  S  S1  1  0.86946800  0.86861100  0.63504000  1
  S  S2  1  0.59745900  0.48027900  0.75000000  1
  S  S3  1  0.13053200  0.13138900  0.36496000  1
  S  S4  1  0.36946800  0.63138900  0.86496000  1
  S  S5  1  0.09745900  0.01972100  0.75000000  1
  S  S6  1  0.63053200  0.36861100  0.36496000  1
  S  S7  1  0.90254100  0.98027900  0.25000000  1
  S  S8  1  0.13053200  0.13138900  0.13504000  1
  S  S9  1  0.36946800  0.63138900  0.63504000  1
  S  S10  1  0.86946800  0.86861100  0.86496000  1
  S  S11  1  0.63053200  0.36861100  0.13504000  1
  N  N12  1  0.53797500  0.54967700  0.64018100  1
  N  N13  1  0.67915400  0.30486000  0.25000000  1
  N  N14  1  0.03797500  0.95032300  0.64018100  1
  N  N15  1  0.17915400  0.19514000  0.25000000  1
  N  N16  1  0.53797500  0.54967700  0.85981900  1
  N  N17  1  0.03797500  0.95032300  0.85981900  1
  N  N18  1  0.46202500  0.45032300  0.35981900  1
  N  N19  1  0.32084600  0.69514000  0.75000000  1
  N  N20  1  0.96202500  0.04967700  0.14018100  1
  N  N21  1  0.96202500  0.04967700  0.35981900  1
  N  N22  1  0.46202500  0.45032300  0.14018100  1
  N  N23  1  0.82084600  0.80486000  0.75000000  1
  Cl  Cl24  1  0.67857000  0.99252200  0.59856800  1
  Cl  Cl25  1  0.98232600  0.19356300  0.75000000  1
  Cl  Cl26  1  0.82143000  0.49252200  0.09856800  1
  Cl  Cl27  1  0.17857000  0.50747800  0.90143200  1
  Cl  Cl28  1  0.01767400  0.80643700  0.25000000  1
  Cl  Cl29  1  0.17857000  0.50747800  0.59856800  1
  Cl  Cl30  1  0.51767400  0.69356300  0.25000000  1
  Cl  Cl31  1  0.32143000  0.00747800  0.09856800  1
  Cl  Cl32  1  0.32143000  0.00747800  0.40143200  1
  Cl  Cl33  1  0.48232600  0.30643700  0.75000000  1
  Cl  Cl34  1  0.67857000  0.99252200  0.90143200  1
  Cl  Cl35  1  0.82143000  0.49252200  0.40143200  1
  O  O36  1  0.72402700  0.95814300  0.25000000  1
  O  O37  1  0.62477700  0.27715700  0.04779300  1
  O  O38  1  0.12477700  0.22284300  0.45220700  1
  O  O39  1  0.37522300  0.72284300  0.95220700  1
  O  O40  1  0.22402700  0.54185700  0.25000000  1
  O  O41  1  0.12477700  0.22284300  0.04779300  1
  O  O42  1  0.27597300  0.04185700  0.75000000  1
  O  O43  1  0.37522300  0.72284300  0.54779300  1
  O  O44  1  0.87522300  0.77715700  0.54779300  1
  O  O45  1  0.87522300  0.77715700  0.95220700  1
  O  O46  1  0.62477700  0.27715700  0.45220700  1
  O  O47  1  0.77597300  0.45814300  0.75000000  1
