# generated using pymatgen
data_H9C5NO5
_symmetry_space_group_name_H-M   'P 1'
_cell_length_a   8.29119800
_cell_length_b   7.60818900
_cell_length_c   13.72780607
_cell_angle_alpha   61.83591646
_cell_angle_beta   90.00000000
_cell_angle_gamma   90.00000000
_symmetry_Int_Tables_number   1
_chemical_formula_structural   H9C5NO5
_chemical_formula_sum   'H36 C20 N4 O20'
_cell_volume   763.43321478
_cell_formula_units_Z   4
loop_
 _symmetry_equiv_pos_site_id
 _symmetry_equiv_pos_as_xyz
  1  'x, y, z'
loop_
 _atom_site_type_symbol
 _atom_site_label
 _atom_site_symmetry_multiplicity
 _atom_site_fract_x
 _atom_site_fract_y
 _atom_site_fract_z
 _atom_site_occupancy
  H  H0  1  0.90121100  0.07813700  0.82773200  1
  H  H1  1  0.85455100  0.90062900  0.56198600  1
  H  H2  1  0.77214500  0.13384600  0.23660900  1
  H  H3  1  0.15016200  0.01709800  0.98575400  1
  H  H4  1  0.72785500  0.13384600  0.73660900  1
  H  H5  1  0.59878900  0.07813700  0.32773200  1
  H  H6  1  0.05389000  0.60891200  0.72350700  1
  H  H7  1  0.36428600  0.39398700  0.55429600  1
  H  H8  1  0.61094200  0.74361500  0.86369900  1
  H  H9  1  0.96403100  0.49917300  0.39861700  1
  H  H10  1  0.83859900  0.53735300  0.14842200  1
  H  H11  1  0.16140100  0.46264700  0.85157800  1
  H  H12  1  0.84983800  0.98290200  0.01424600  1
  H  H13  1  0.53596900  0.49917300  0.89861700  1
  H  H14  1  0.86428600  0.60601300  0.94570400  1
  H  H15  1  0.38905800  0.25638500  0.13630100  1
  H  H16  1  0.55389000  0.39108800  0.77649300  1
  H  H17  1  0.34983800  0.01709800  0.48575400  1
  H  H18  1  0.63571400  0.60601300  0.44570400  1
  H  H19  1  0.65016200  0.98290200  0.51424600  1
  H  H20  1  0.14544900  0.09937100  0.43801400  1
  H  H21  1  0.44611000  0.60891200  0.22350700  1
  H  H22  1  0.13571400  0.39398700  0.05429600  1
  H  H23  1  0.66140100  0.53735300  0.64842200  1
  H  H24  1  0.35455100  0.09937100  0.93801400  1
  H  H25  1  0.27214500  0.86615400  0.26339100  1
  H  H26  1  0.22785500  0.86615400  0.76339100  1
  H  H27  1  0.46403100  0.50082700  0.10138300  1
  H  H28  1  0.09878900  0.92186300  0.17226800  1
  H  H29  1  0.03596900  0.50082700  0.60138300  1
  H  H30  1  0.11094200  0.25638500  0.63630100  1
  H  H31  1  0.40121100  0.92186300  0.67226800  1
  H  H32  1  0.33859900  0.46264700  0.35157800  1
  H  H33  1  0.88905800  0.74361500  0.36369900  1
  H  H34  1  0.94611000  0.39108800  0.27649300  1
  H  H35  1  0.64544900  0.90062900  0.06198600  1
  C  C36  1  0.28074900  0.85321100  0.69343900  1
  C  C37  1  0.21925100  0.85321100  0.19343900  1
  C  C38  1  0.78074900  0.14678900  0.80656100  1
  C  C39  1  0.77940900  0.01710400  0.49903700  1
  C  C40  1  0.31229800  0.68267800  0.50074500  1
  C  C41  1  0.22059100  0.98289600  0.50096300  1
  C  C42  1  0.66496900  0.47545200  0.73885100  1
  C  C43  1  0.81229800  0.31732200  0.99925500  1
  C  C44  1  0.83503100  0.47545200  0.23885100  1
  C  C45  1  0.14118000  0.40164500  0.62996800  1
  C  C46  1  0.35882000  0.40164500  0.12996800  1
  C  C47  1  0.72059100  0.01710400  0.99903700  1
  C  C48  1  0.68770200  0.31732200  0.49925500  1
  C  C49  1  0.27940900  0.98289600  0.00096300  1
  C  C50  1  0.71925100  0.14678900  0.30656100  1
  C  C51  1  0.64118000  0.59835500  0.87003200  1
  C  C52  1  0.85882000  0.59835500  0.37003200  1
  C  C53  1  0.16496900  0.52454800  0.76114900  1
  C  C54  1  0.18770200  0.68267800  0.00074500  1
  C  C55  1  0.33503100  0.52454800  0.26114900  1
  N  N56  1  0.72820400  0.51355400  0.44870900  1
  N  N57  1  0.22820400  0.48644600  0.05129100  1
  N  N58  1  0.77179600  0.51355400  0.94870900  1
  N  N59  1  0.27179600  0.48644600  0.55129100  1
  O  O60  1  0.68534000  0.19815400  0.00531000  1
  O  O61  1  0.68276900  0.63773500  0.75977600  1
  O  O62  1  0.31723100  0.36226500  0.24022400  1
  O  O63  1  0.30401500  0.65296300  0.71778300  1
  O  O64  1  0.81466000  0.19815400  0.50531000  1
  O  O65  1  0.82931000  0.03924100  0.39601400  1
  O  O66  1  0.55412000  0.25121800  0.54094400  1
  O  O67  1  0.17069000  0.96075900  0.60398600  1
  O  O68  1  0.31466000  0.80184600  0.99469000  1
  O  O69  1  0.18534000  0.80184600  0.49469000  1
  O  O70  1  0.18276900  0.36226500  0.74022400  1
  O  O71  1  0.44588000  0.74878200  0.45905600  1
  O  O72  1  0.32931000  0.96075900  0.10398600  1
  O  O73  1  0.19598500  0.65296300  0.21778300  1
  O  O74  1  0.81723100  0.63773500  0.25977600  1
  O  O75  1  0.05412000  0.74878200  0.95905600  1
  O  O76  1  0.69598500  0.34703700  0.28221700  1
  O  O77  1  0.94588000  0.25121800  0.04094400  1
  O  O78  1  0.80401500  0.34703700  0.78221700  1
  O  O79  1  0.67069000  0.03924100  0.89601400  1
