# generated using pymatgen
data_Ta6S
_symmetry_space_group_name_H-M   'P 1'
_cell_length_a   5.28159346
_cell_length_b   7.57393013
_cell_length_c   7.57901114
_cell_angle_alpha   113.81047562
_cell_angle_beta   98.40741611
_cell_angle_gamma   109.04374877
_symmetry_Int_Tables_number   1
_chemical_formula_structural   Ta6S
_chemical_formula_sum   'Ta12 S2'
_cell_volume   248.28348959
_cell_formula_units_Z   2
loop_
 _symmetry_equiv_pos_site_id
 _symmetry_equiv_pos_as_xyz
  1  'x, y, z'
loop_
 _atom_site_type_symbol
 _atom_site_label
 _atom_site_symmetry_multiplicity
 _atom_site_fract_x
 _atom_site_fract_y
 _atom_site_fract_z
 _atom_site_occupancy
  Ta  Ta0  1  0.55807600  0.77510500  0.59043400  1
  Ta  Ta1  1  0.44192400  0.22489500  0.40956600  1
  Ta  Ta2  1  0.00274700  0.37168300  0.29520800  1
  Ta  Ta3  1  0.50000000  0.00000000  0.00000000  1
  Ta  Ta4  1  0.14941600  0.72103400  0.15031500  1
  Ta  Ta5  1  0.22877900  0.06436200  0.69192400  1
  Ta  Ta6  1  0.52779900  0.57515200  0.86320300  1
  Ta  Ta7  1  0.77122100  0.93563800  0.30807600  1
  Ta  Ta8  1  0.85058400  0.27896600  0.84968500  1
  Ta  Ta9  1  0.99725300  0.62831700  0.70479200  1
  Ta  Ta10  1  0.00000000  0.00000000  0.00000000  1
  Ta  Ta11  1  0.47220100  0.42484800  0.13679700  1
  S  S12  1  0.07487900  0.29962300  0.58459300  1
  S  S13  1  0.92512100  0.70037700  0.41540700  1
