# generated using pymatgen
data_Na2UF6
_symmetry_space_group_name_H-M   'P 1'
_cell_length_a   6.15980645
_cell_length_b   6.15980645
_cell_length_c   7.25583700
_cell_angle_alpha   90.00000000
_cell_angle_beta   90.00000000
_cell_angle_gamma   120.00000485
_symmetry_Int_Tables_number   1
_chemical_formula_structural   Na2UF6
_chemical_formula_sum   'Na4 U2 F12'
_cell_volume   238.42525787
_cell_formula_units_Z   2
loop_
 _symmetry_equiv_pos_site_id
 _symmetry_equiv_pos_as_xyz
  1  'x, y, z'
loop_
 _atom_site_type_symbol
 _atom_site_label
 _atom_site_symmetry_multiplicity
 _atom_site_fract_x
 _atom_site_fract_y
 _atom_site_fract_z
 _atom_site_occupancy
  Na  Na0  1  0.00000000  0.00000000  0.03157300  1
  Na  Na1  1  0.66666700  0.33333300  0.62677600  1
  Na  Na2  1  0.00000000  0.00000000  0.51351700  1
  Na  Na3  1  0.33333300  0.66666700  0.37911700  1
  U  U4  1  0.33333300  0.66666700  0.85857100  1
  U  U5  1  0.66666700  0.33333300  0.14208300  1
  F  F6  1  0.90388600  0.62089400  0.35178800  1
  F  F7  1  0.61035100  0.70053300  0.64482500  1
  F  F8  1  0.31442100  0.91653000  0.10877500  1
  F  F9  1  0.91842400  0.61454400  0.89493300  1
  F  F10  1  0.69612000  0.08157600  0.89493300  1
  F  F11  1  0.60211000  0.68557900  0.10877500  1
  F  F12  1  0.71700800  0.09611400  0.35178800  1
  F  F13  1  0.08347000  0.39789000  0.10877500  1
  F  F14  1  0.38545600  0.30388000  0.89493300  1
  F  F15  1  0.37910600  0.28299200  0.35178800  1
  F  F16  1  0.29946700  0.90981800  0.64482500  1
  F  F17  1  0.09018200  0.38964900  0.64482500  1
