# generated using pymatgen
data_K2Hg3S3O10
_symmetry_space_group_name_H-M   'P 1'
_cell_length_a   7.65286500
_cell_length_b   8.03130500
_cell_length_c   21.21282100
_cell_angle_alpha   90.00000000
_cell_angle_beta   90.00000000
_cell_angle_gamma   90.00000000
_symmetry_Int_Tables_number   1
_chemical_formula_structural   K2Hg3S3O10
_chemical_formula_sum   'K8 Hg12 S12 O40'
_cell_volume   1303.79286093
_cell_formula_units_Z   4
loop_
 _symmetry_equiv_pos_site_id
 _symmetry_equiv_pos_as_xyz
  1  'x, y, z'
loop_
 _atom_site_type_symbol
 _atom_site_label
 _atom_site_symmetry_multiplicity
 _atom_site_fract_x
 _atom_site_fract_y
 _atom_site_fract_z
 _atom_site_occupancy
  K  K0  1  0.36159900  0.36449600  0.55976800  1
  K  K1  1  0.13840100  0.86449600  0.44023200  1
  K  K2  1  0.63840100  0.63550400  0.44023200  1
  K  K3  1  0.86159900  0.13550400  0.55976800  1
  K  K4  1  0.63840100  0.63550400  0.05976800  1
  K  K5  1  0.86159900  0.13550400  0.94023200  1
  K  K6  1  0.13840100  0.86449600  0.05976800  1
  K  K7  1  0.36159900  0.36449600  0.94023200  1
  Hg  Hg8  1  0.72958700  0.72994900  0.82954200  1
  Hg  Hg9  1  0.05670100  0.41104600  0.75000000  1
  Hg  Hg10  1  0.77041300  0.22994900  0.17045800  1
  Hg  Hg11  1  0.44329900  0.91104600  0.25000000  1
  Hg  Hg12  1  0.27041300  0.27005100  0.32954200  1
  Hg  Hg13  1  0.22958700  0.77005100  0.82954200  1
  Hg  Hg14  1  0.27041300  0.27005100  0.17045800  1
  Hg  Hg15  1  0.77041300  0.22994900  0.32954200  1
  Hg  Hg16  1  0.55670100  0.08895400  0.75000000  1
  Hg  Hg17  1  0.22958700  0.77005100  0.67045800  1
  Hg  Hg18  1  0.72958700  0.72994900  0.67045800  1
  Hg  Hg19  1  0.94329900  0.58895400  0.25000000  1
  S  S20  1  0.99024300  0.88287400  0.25000000  1
  S  S21  1  0.86768800  0.58977400  0.91680500  1
  S  S22  1  0.13231200  0.41022600  0.08319500  1
  S  S23  1  0.63231200  0.08977400  0.41680500  1
  S  S24  1  0.86768800  0.58977400  0.58319500  1
  S  S25  1  0.13231200  0.41022600  0.41680500  1
  S  S26  1  0.63231200  0.08977400  0.08319500  1
  S  S27  1  0.36768800  0.91022600  0.58319500  1
  S  S28  1  0.50975700  0.38287400  0.75000000  1
  S  S29  1  0.00975700  0.11712600  0.75000000  1
  S  S30  1  0.36768800  0.91022600  0.91680500  1
  S  S31  1  0.49024300  0.61712600  0.25000000  1
  O  O32  1  0.08824800  0.92631100  0.19184800  1
  O  O33  1  0.47933500  0.99865000  0.10928800  1
  O  O34  1  0.58988700  0.82779300  0.75000000  1
  O  O35  1  0.91175200  0.07368900  0.80815200  1
  O  O36  1  0.08332700  0.28064900  0.03722400  1
  O  O37  1  0.26666900  0.52625900  0.05865600  1
  O  O38  1  0.41667300  0.78064900  0.96277600  1
  O  O39  1  0.91175200  0.07368900  0.69184800  1
  O  O40  1  0.58332700  0.21935100  0.46277600  1
  O  O41  1  0.08988700  0.67220700  0.75000000  1
  O  O42  1  0.97933500  0.50135000  0.10928800  1
  O  O43  1  0.08824800  0.92631100  0.30815200  1
  O  O44  1  0.91667300  0.71935100  0.53722400  1
  O  O45  1  0.52066500  0.00135000  0.89071200  1
  O  O46  1  0.41011300  0.17220700  0.25000000  1
  O  O47  1  0.23333100  0.02625900  0.55865600  1
  O  O48  1  0.58824800  0.57368900  0.19184800  1
  O  O49  1  0.73333100  0.47374100  0.55865600  1
  O  O50  1  0.02066500  0.49865000  0.89071200  1
  O  O51  1  0.52066500  0.00135000  0.60928800  1
  O  O52  1  0.68806000  0.45702500  0.75000000  1
  O  O53  1  0.41175200  0.42631100  0.80815200  1
  O  O54  1  0.47933500  0.99865000  0.39071200  1
  O  O55  1  0.73333100  0.47374100  0.94134400  1
  O  O56  1  0.76666900  0.97374100  0.05865600  1
  O  O57  1  0.02066500  0.49865000  0.60928800  1
  O  O58  1  0.18806000  0.04297500  0.75000000  1
  O  O59  1  0.41175200  0.42631100  0.69184800  1
  O  O60  1  0.58332700  0.21935100  0.03722400  1
  O  O61  1  0.91667300  0.71935100  0.96277600  1
  O  O62  1  0.91011300  0.32779300  0.25000000  1
  O  O63  1  0.26666900  0.52625900  0.44134400  1
  O  O64  1  0.08332700  0.28064900  0.46277600  1
  O  O65  1  0.41667300  0.78064900  0.53722400  1
  O  O66  1  0.58824800  0.57368900  0.30815200  1
  O  O67  1  0.81194000  0.95702500  0.25000000  1
  O  O68  1  0.23333100  0.02625900  0.94134400  1
  O  O69  1  0.76666900  0.97374100  0.44134400  1
  O  O70  1  0.97933500  0.50135000  0.39071200  1
  O  O71  1  0.31194000  0.54297500  0.25000000  1
