# generated using pymatgen
data_Al3Pb5F19
_symmetry_space_group_name_H-M   'P 1'
_cell_length_a   10.87716560
_cell_length_b   10.87716560
_cell_length_c   10.87716560
_cell_angle_alpha   96.48154467
_cell_angle_beta   96.48154467
_cell_angle_gamma   140.73560473
_symmetry_Int_Tables_number   1
_chemical_formula_structural   Al3Pb5F19
_chemical_formula_sum   'Al6 Pb10 F38'
_cell_volume   767.13648274
_cell_formula_units_Z   2
loop_
 _symmetry_equiv_pos_site_id
 _symmetry_equiv_pos_as_xyz
  1  'x, y, z'
loop_
 _atom_site_type_symbol
 _atom_site_label
 _atom_site_symmetry_multiplicity
 _atom_site_fract_x
 _atom_site_fract_y
 _atom_site_fract_z
 _atom_site_occupancy
  Al  Al0  1  0.75288100  0.75288100  0.00000000  1
  Al  Al1  1  0.24711900  0.24711900  0.00000000  1
  Al  Al2  1  0.67523800  0.15816000  0.83339800  1
  Al  Al3  1  0.32476200  0.84184000  0.16660200  1
  Al  Al4  1  0.84184000  0.67523800  0.51707800  1
  Al  Al5  1  0.15816000  0.32476200  0.48292200  1
  Pb  Pb6  1  0.08334400  0.75857000  0.84191300  1
  Pb  Pb7  1  0.91665600  0.24143000  0.15808700  1
  Pb  Pb8  1  0.44179600  0.28071000  0.72250600  1
  Pb  Pb9  1  0.55820400  0.71929000  0.27749400  1
  Pb  Pb10  1  0.24143000  0.08334400  0.32477400  1
  Pb  Pb11  1  0.28071000  0.55820400  0.83891400  1
  Pb  Pb12  1  0.75857000  0.91665600  0.67522600  1
  Pb  Pb13  1  0.75000000  0.25000000  0.50000000  1
  Pb  Pb14  1  0.71929000  0.44179600  0.16108600  1
  Pb  Pb15  1  0.25000000  0.75000000  0.50000000  1
  F  F16  1  0.57692600  0.93414100  0.85677300  1
  F  F17  1  0.61106900  0.04740700  0.65847700  1
  F  F18  1  0.26438000  0.25722400  0.52160400  1
  F  F19  1  0.95259300  0.61106900  0.56366200  1
  F  F20  1  0.42307400  0.06585900  0.14322700  1
  F  F21  1  0.69729700  0.86196300  0.06648400  1
  F  F22  1  0.27984600  0.42307400  0.35721500  1
  F  F23  1  0.73562000  0.74277600  0.47839600  1
  F  F24  1  0.30270300  0.13803700  0.93351600  1
  F  F25  1  0.13803700  0.20452000  0.83533400  1
  F  F26  1  0.87855400  0.42027600  0.29883000  1
  F  F27  1  0.57992400  0.97287400  0.20699600  1
  F  F28  1  0.12144600  0.57972400  0.70117000  1
  F  F29  1  0.23412200  0.62707200  0.20699600  1
  F  F30  1  0.86196300  0.79548000  0.16466600  1
  F  F31  1  0.06585900  0.92263200  0.64278500  1
  F  F32  1  0.57972400  0.87855400  0.45827700  1
  F  F33  1  0.97287400  0.76587800  0.39295000  1
  F  F34  1  0.42027600  0.12144600  0.54172300  1
  F  F35  1  0.02712600  0.23412200  0.60705000  1
  F  F36  1  0.93414100  0.07736800  0.35721500  1
  F  F37  1  0.20452000  0.36918700  0.06648400  1
  F  F38  1  0.25722400  0.73562000  0.99284500  1
  F  F39  1  0.76587800  0.37292800  0.79300400  1
  F  F40  1  0.92263200  0.27984700  0.85677300  1
  F  F41  1  0.74277600  0.26438000  0.00715500  1
  F  F42  1  0.00000000  0.00000000  0.00000000  1
  F  F43  1  0.38893100  0.95259300  0.34152300  1
  F  F44  1  0.42007600  0.02712600  0.79300400  1
  F  F45  1  0.07736800  0.72015400  0.14322700  1
  F  F46  1  0.79548000  0.63081300  0.93351600  1
  F  F47  1  0.62707200  0.42007600  0.39295000  1
  F  F48  1  0.04740700  0.38893100  0.43633800  1
  F  F49  1  0.36918700  0.30270300  0.16466600  1
  F  F50  1  0.72015400  0.57692600  0.64278500  1
  F  F51  1  0.37292800  0.57992400  0.60705000  1
  F  F52  1  0.50000000  0.50000000  0.00000000  1
  F  F53  1  0.63081300  0.69729700  0.83533400  1
