# generated using pymatgen
data_Sb2Te3MoC4(OF3)4
_symmetry_space_group_name_H-M   'P 1'
_cell_length_a   8.58574400
_cell_length_b   14.86645300
_cell_length_c   15.60340500
_cell_angle_alpha   90.00000000
_cell_angle_beta   90.00000000
_cell_angle_gamma   90.00000000
_symmetry_Int_Tables_number   1
_chemical_formula_structural   Sb2Te3MoC4(OF3)4
_chemical_formula_sum   'Sb8 Te12 Mo4 C16 O16 F48'
_cell_volume   1991.61174318
_cell_formula_units_Z   4
loop_
 _symmetry_equiv_pos_site_id
 _symmetry_equiv_pos_as_xyz
  1  'x, y, z'
loop_
 _atom_site_type_symbol
 _atom_site_label
 _atom_site_symmetry_multiplicity
 _atom_site_fract_x
 _atom_site_fract_y
 _atom_site_fract_z
 _atom_site_occupancy
  Sb  Sb0  1  0.75000000  0.44356800  0.34436600  1
  Sb  Sb1  1  0.75000000  0.05643200  0.84436600  1
  Sb  Sb2  1  0.25000000  0.94356800  0.15563400  1
  Sb  Sb3  1  0.75000000  0.74667700  0.53790200  1
  Sb  Sb4  1  0.75000000  0.75332300  0.03790200  1
  Sb  Sb5  1  0.25000000  0.55643200  0.65563400  1
  Sb  Sb6  1  0.25000000  0.24667700  0.96209800  1
  Sb  Sb7  1  0.25000000  0.25332300  0.46209800  1
  Te  Te8  1  0.75000000  0.44501100  0.62865700  1
  Te  Te9  1  0.08867600  0.68843100  0.28480800  1
  Te  Te10  1  0.41132400  0.81156900  0.78480800  1
  Te  Te11  1  0.58867600  0.31156900  0.71519200  1
  Te  Te12  1  0.75000000  0.05498900  0.12865700  1
  Te  Te13  1  0.41132400  0.68843100  0.28480800  1
  Te  Te14  1  0.91132400  0.31156900  0.71519200  1
  Te  Te15  1  0.91132400  0.18843100  0.21519200  1
  Te  Te16  1  0.08867600  0.81156900  0.78480800  1
  Te  Te17  1  0.25000000  0.94501100  0.87134300  1
  Te  Te18  1  0.25000000  0.55498900  0.37134300  1
  Te  Te19  1  0.58867600  0.18843100  0.21519200  1
  Mo  Mo20  1  0.75000000  0.44515600  0.81314400  1
  Mo  Mo21  1  0.25000000  0.94515600  0.68685600  1
  Mo  Mo22  1  0.25000000  0.55484400  0.18685600  1
  Mo  Mo23  1  0.75000000  0.05484400  0.31314400  1
  C  C24  1  0.54694500  0.01402500  0.36943600  1
  C  C25  1  0.45305500  0.51402500  0.13056400  1
  C  C26  1  0.25000000  0.08117200  0.70161200  1
  C  C27  1  0.25000000  0.62175400  0.07004900  1
  C  C28  1  0.75000000  0.58117200  0.79838800  1
  C  C29  1  0.75000000  0.91882800  0.29838800  1
  C  C30  1  0.04694500  0.51402500  0.13056400  1
  C  C31  1  0.25000000  0.41882800  0.20161200  1
  C  C32  1  0.54694500  0.48597500  0.86943600  1
  C  C33  1  0.95305500  0.01402500  0.36943600  1
  C  C34  1  0.45305500  0.98597500  0.63056400  1
  C  C35  1  0.04694500  0.98597500  0.63056400  1
  C  C36  1  0.75000000  0.12175400  0.42995100  1
  C  C37  1  0.25000000  0.87824600  0.57004900  1
  C  C38  1  0.95305500  0.48597500  0.86943600  1
  C  C39  1  0.75000000  0.37824600  0.92995100  1
  O  O40  1  0.43528500  0.50876500  0.90416400  1
  O  O41  1  0.25000000  0.84332600  0.50431100  1
  O  O42  1  0.75000000  0.15667400  0.49568900  1
  O  O43  1  0.93528500  0.49123500  0.09583600  1
  O  O44  1  0.93528500  0.00876500  0.59583600  1
  O  O45  1  0.56471500  0.49123500  0.09583600  1
  O  O46  1  0.75000000  0.65851600  0.79128400  1
  O  O47  1  0.25000000  0.15851600  0.70871600  1
  O  O48  1  0.75000000  0.34332600  0.99568900  1
  O  O49  1  0.43528500  0.99123500  0.40416400  1
  O  O50  1  0.06471500  0.50876500  0.90416400  1
  O  O51  1  0.75000000  0.84148400  0.29128400  1
  O  O52  1  0.06471500  0.99123500  0.40416400  1
  O  O53  1  0.56471500  0.00876500  0.59583600  1
  O  O54  1  0.25000000  0.65667400  0.00431100  1
  O  O55  1  0.25000000  0.34148400  0.20871600  1
  F  F56  1  0.59317600  0.10614400  0.76948800  1
  F  F57  1  0.59132000  0.78672100  0.95729400  1
  F  F58  1  0.25000000  0.66529700  0.59058100  1
  F  F59  1  0.90868000  0.78672100  0.95729400  1
  F  F60  1  0.40682400  0.60614400  0.73051200  1
  F  F61  1  0.09317600  0.60614400  0.73051200  1
  F  F62  1  0.25000000  0.12614400  0.91545800  1
  F  F63  1  0.75000000  0.94597700  0.77941100  1
  F  F64  1  0.91104500  0.00726200  0.91599200  1
  F  F65  1  0.40868000  0.28672100  0.54270600  1
  F  F66  1  0.08895500  0.50726200  0.58400800  1
  F  F67  1  0.25000000  0.37385600  0.41545800  1
  F  F68  1  0.75000000  0.62614400  0.58454200  1
  F  F69  1  0.25000000  0.44597700  0.72058900  1
  F  F70  1  0.91104500  0.49273800  0.41599200  1
  F  F71  1  0.25000000  0.13336800  0.50721100  1
  F  F72  1  0.09132000  0.21327900  0.04270600  1
  F  F73  1  0.58895500  0.00726200  0.91599200  1
  F  F74  1  0.40868000  0.21327900  0.04270600  1
  F  F75  1  0.40682400  0.89385600  0.23051200  1
  F  F76  1  0.09317600  0.89385600  0.23051200  1
  F  F77  1  0.90682400  0.10614400  0.76948800  1
  F  F78  1  0.75000000  0.33470300  0.40941900  1
  F  F79  1  0.09132000  0.28672100  0.54270600  1
  F  F80  1  0.25000000  0.83470300  0.09058100  1
  F  F81  1  0.25000000  0.05402300  0.22058900  1
  F  F82  1  0.59254400  0.78014500  0.62016700  1
  F  F83  1  0.90682400  0.39385600  0.26948800  1
  F  F84  1  0.90868000  0.71327900  0.45729400  1
  F  F85  1  0.25000000  0.36663200  0.00721100  1
  F  F86  1  0.90745600  0.71985500  0.12016700  1
  F  F87  1  0.75000000  0.16529700  0.90941900  1
  F  F88  1  0.90745600  0.78014500  0.62016700  1
  F  F89  1  0.40745600  0.28014500  0.87983300  1
  F  F90  1  0.08895500  0.99273800  0.08400800  1
  F  F91  1  0.09254400  0.21985500  0.37983300  1
  F  F92  1  0.59317600  0.39385600  0.26948800  1
  F  F93  1  0.59254400  0.71985500  0.12016700  1
  F  F94  1  0.75000000  0.87385600  0.08454200  1
  F  F95  1  0.75000000  0.55402300  0.27941100  1
  F  F96  1  0.41104500  0.99273800  0.08400800  1
  F  F97  1  0.75000000  0.86663200  0.49278900  1
  F  F98  1  0.58895500  0.49273800  0.41599200  1
  F  F99  1  0.40745600  0.21985500  0.37983300  1
  F  F100  1  0.75000000  0.63336800  0.99278900  1
  F  F101  1  0.41104500  0.50726200  0.58400800  1
  F  F102  1  0.09254400  0.28014500  0.87983300  1
  F  F103  1  0.59132000  0.71327900  0.45729400  1
