# generated using pymatgen
data_K4Ni(NO2)6
_symmetry_space_group_name_H-M   'P 1'
_cell_length_a   7.63635170
_cell_length_b   25.71925751
_cell_length_c   8.86383466
_cell_angle_alpha   84.89632233
_cell_angle_beta   64.48942177
_cell_angle_gamma   81.46389545
_symmetry_Int_Tables_number   1
_chemical_formula_structural   K4Ni(NO2)6
_chemical_formula_sum   'K16 Ni4 N24 O48'
_cell_volume   1553.12848447
_cell_formula_units_Z   4
loop_
 _symmetry_equiv_pos_site_id
 _symmetry_equiv_pos_as_xyz
  1  'x, y, z'
loop_
 _atom_site_type_symbol
 _atom_site_label
 _atom_site_symmetry_multiplicity
 _atom_site_fract_x
 _atom_site_fract_y
 _atom_site_fract_z
 _atom_site_occupancy
  K  K0  1  0.21371000  0.79780800  0.77490200  1
  K  K1  1  0.71362900  0.54770800  0.02495900  1
  K  K2  1  0.21372600  0.29775000  0.27490300  1
  K  K3  1  0.71361300  0.04773900  0.52495600  1
  K  K4  1  0.28636200  0.95230400  0.47505400  1
  K  K5  1  0.78627700  0.70223500  0.72508400  1
  K  K6  1  0.28639000  0.45224500  0.97505000  1
  K  K7  1  0.78629600  0.20220500  0.22509300  1
  K  K8  1  0.56608200  0.90569800  0.96203000  1
  K  K9  1  0.06600000  0.65561000  0.21221100  1
  K  K10  1  0.56613900  0.40556500  0.46205100  1
  K  K11  1  0.06600100  0.15559500  0.71221500  1
  K  K12  1  0.93395800  0.84446400  0.28778000  1
  K  K13  1  0.43389700  0.59436300  0.53794900  1
  K  K14  1  0.93401200  0.34433100  0.78781900  1
  K  K15  1  0.43389500  0.09437800  0.03795200  1
  Ni  Ni16  1  0.50008400  0.75004200  0.24980000  1
  Ni  Ni17  1  0.99992300  0.49995500  0.50017700  1
  Ni  Ni18  1  0.49987700  0.24995100  0.75027900  1
  Ni  Ni19  1  0.00011100  0.00004700  0.99974600  1
  N  N20  1  0.77944600  0.76761300  0.06626200  1
  N  N21  1  0.27945700  0.51768100  0.31627800  1
  N  N22  1  0.77949200  0.26769500  0.56625300  1
  N  N23  1  0.27950000  0.01764800  0.81622100  1
  N  N24  1  0.42078600  0.82862600  0.33728900  1
  N  N25  1  0.92069400  0.57870300  0.58731900  1
  N  N26  1  0.42057500  0.32877500  0.83737900  1
  N  N27  1  0.92069700  0.07869900  0.08733000  1
  N  N28  1  0.39030300  0.76949200  0.06445500  1
  N  N29  1  0.89029000  0.51952100  0.31444500  1
  N  N30  1  0.39030500  0.26951100  0.56437400  1
  N  N31  1  0.89029900  0.01950700  0.81440800  1
  N  N32  1  0.10969100  0.98048800  0.18562100  1
  N  N33  1  0.60971600  0.73048000  0.43555900  1
  N  N34  1  0.10969300  0.48050800  0.68553700  1
  N  N35  1  0.60970500  0.23049400  0.93559900  1
  N  N36  1  0.07942900  0.92123000  0.91261300  1
  N  N37  1  0.57930400  0.67129300  0.16268800  1
  N  N38  1  0.07922100  0.42138000  0.41270000  1
  N  N39  1  0.57929900  0.17129600  0.66268000  1
  N  N40  1  0.72049800  0.98230100  0.18374800  1
  N  N41  1  0.22055200  0.73232300  0.43372100  1
  N  N42  1  0.72054600  0.48238300  0.68373600  1
  N  N43  1  0.22051000  0.23235600  0.93378000  1
  O  O44  1  0.40544700  0.98324300  0.72168000  1
  O  O45  1  0.90545200  0.73322700  0.97163100  1
  O  O46  1  0.40557600  0.48326800  0.22160200  1
  O  O47  1  0.90554300  0.23327800  0.47161400  1
  O  O48  1  0.00507600  0.96399100  0.33103400  1
  O  O49  1  0.50501700  0.71400600  0.58103100  1
  O  O50  1  0.00493400  0.46408100  0.83109900  1
  O  O51  1  0.50498500  0.21402800  0.08105300  1
  O  O52  1  0.45790700  0.84292800  0.45209100  1
  O  O53  1  0.95782600  0.59299300  0.70211000  1
  O  O54  1  0.45784600  0.34307600  0.95205100  1
  O  O55  1  0.95786500  0.09297900  0.20210600  1
  O  O56  1  0.09443800  0.76673300  0.52841300  1
  O  O57  1  0.59453600  0.51677300  0.77835400  1
  O  O58  1  0.09456900  0.26675800  0.02833300  1
  O  O59  1  0.59444400  0.01672200  0.27837200  1
  O  O60  1  0.49506700  0.78593700  0.91892500  1
  O  O61  1  0.99498500  0.53597700  0.16894100  1
  O  O62  1  0.49492400  0.28602800  0.41899500  1
  O  O63  1  0.99501500  0.03595400  0.66892100  1
  O  O64  1  0.04217800  0.90694200  0.79791300  1
  O  O65  1  0.54215200  0.65698900  0.04792500  1
  O  O66  1  0.04211600  0.40709000  0.29787300  1
  O  O67  1  0.54211300  0.15700200  0.54792800  1
  O  O68  1  0.32348800  0.86203000  0.28056200  1
  O  O69  1  0.82352200  0.61210100  0.53057900  1
  O  O70  1  0.32351800  0.36216500  0.78057700  1
  O  O71  1  0.82348300  0.11210100  0.03061400  1
  O  O72  1  0.21820700  0.76189400  0.09539800  1
  O  O73  1  0.71811700  0.51194700  0.34542500  1
  O  O74  1  0.21814600  0.26195600  0.59534900  1
  O  O75  1  0.71820600  0.01190800  0.84543100  1
  O  O76  1  0.81939900  0.81447300  0.04287700  1
  O  O77  1  0.31939000  0.56450100  0.29284000  1
  O  O78  1  0.81940500  0.31450400  0.54283200  1
  O  O79  1  0.31942800  0.06448700  0.79279200  1
  O  O80  1  0.17647900  0.88783200  0.96939400  1
  O  O81  1  0.67648400  0.63790200  0.21944800  1
  O  O82  1  0.17650600  0.38796800  0.46941200  1
  O  O83  1  0.67652400  0.13790100  0.71941300  1
  O  O84  1  0.68058900  0.93549300  0.20720500  1
  O  O85  1  0.18061600  0.68550200  0.45712300  1
  O  O86  1  0.68059700  0.43552400  0.70716100  1
  O  O87  1  0.18057500  0.18551700  0.95717000  1
  O  O88  1  0.28187100  0.98804100  0.15458800  1
  O  O89  1  0.78186900  0.73805600  0.40463700  1
  O  O90  1  0.28180700  0.48810400  0.65454100  1
  O  O91  1  0.78177800  0.23809500  0.90463000  1
