# generated using pymatgen
data_SiO2
_symmetry_space_group_name_H-M   'P 1'
_cell_length_a   9.32174156
_cell_length_b   9.32174156
_cell_length_c   9.32174156
_cell_angle_alpha   109.47122063
_cell_angle_beta   109.47122063
_cell_angle_gamma   109.47122063
_symmetry_Int_Tables_number   1
_chemical_formula_structural   SiO2
_chemical_formula_sum   'Si12 O24'
_cell_volume   623.54712920
_cell_formula_units_Z   12
loop_
 _symmetry_equiv_pos_site_id
 _symmetry_equiv_pos_as_xyz
  1  'x, y, z'
loop_
 _atom_site_type_symbol
 _atom_site_label
 _atom_site_symmetry_multiplicity
 _atom_site_fract_x
 _atom_site_fract_y
 _atom_site_fract_z
 _atom_site_occupancy
  Si  Si0  1  0.87653800  0.50000000  0.12346200  1
  Si  Si1  1  0.50000000  0.37653800  0.62346200  1
  Si  Si2  1  0.50000000  0.12346200  0.87653800  1
  Si  Si3  1  0.62346200  0.50000000  0.37653800  1
  Si  Si4  1  0.12346200  0.24692300  0.62346200  1
  Si  Si5  1  0.12346200  0.87653800  0.50000000  1
  Si  Si6  1  0.37653800  0.62346200  0.50000000  1
  Si  Si7  1  0.62346200  0.12346200  0.24692300  1
  Si  Si8  1  0.87653800  0.37653800  0.75307700  1
  Si  Si9  1  0.24692300  0.62346200  0.12346200  1
  Si  Si10  1  0.75307700  0.87653800  0.37653800  1
  Si  Si11  1  0.37653800  0.75307700  0.87653800  1
  O  O12  1  0.41299500  0.91299500  0.82599000  1
  O  O13  1  0.50000000  0.58700500  0.41299500  1
  O  O14  1  0.00000000  0.36586400  0.63413600  1
  O  O15  1  0.36586400  0.36586400  0.73172900  1
  O  O16  1  0.08700500  0.58700500  0.17401000  1
  O  O17  1  0.82599000  0.41299500  0.91299500  1
  O  O18  1  0.91299500  0.08700500  0.50000000  1
  O  O19  1  0.50000000  0.91299500  0.08700500  1
  O  O20  1  0.17401000  0.08700500  0.58700500  1
  O  O21  1  0.63413600  0.26827100  0.63413600  1
  O  O22  1  0.41299500  0.50000000  0.58700500  1
  O  O23  1  0.36586400  0.63413600  0.00000000  1
  O  O24  1  0.36586400  0.00000000  0.63413600  1
  O  O25  1  0.63413600  0.00000000  0.36586400  1
  O  O26  1  0.08700500  0.50000000  0.91299500  1
  O  O27  1  0.91299500  0.82599000  0.41299500  1
  O  O28  1  0.00000000  0.63413600  0.36586400  1
  O  O29  1  0.58700500  0.41299500  0.50000000  1
  O  O30  1  0.36586400  0.73172900  0.36586400  1
  O  O31  1  0.73172900  0.36586400  0.36586400  1
  O  O32  1  0.58700500  0.17401000  0.08700500  1
  O  O33  1  0.63413600  0.36586400  0.00000000  1
  O  O34  1  0.63413600  0.63413600  0.26827100  1
  O  O35  1  0.26827100  0.63413600  0.63413600  1
