# generated using pymatgen
data_Hg3ClO
_symmetry_space_group_name_H-M   'P 1'
_cell_length_a   10.93778728
_cell_length_b   10.93778728
_cell_length_c   17.41277246
_cell_angle_alpha   71.24644952
_cell_angle_beta   71.24644952
_cell_angle_gamma   50.02856981
_symmetry_Int_Tables_number   1
_chemical_formula_structural   Hg3ClO
_chemical_formula_sum   'Hg36 Cl12 O12'
_cell_volume   1492.62805473
_cell_formula_units_Z   12
loop_
 _symmetry_equiv_pos_site_id
 _symmetry_equiv_pos_as_xyz
  1  'x, y, z'
loop_
 _atom_site_type_symbol
 _atom_site_label
 _atom_site_symmetry_multiplicity
 _atom_site_fract_x
 _atom_site_fract_y
 _atom_site_fract_z
 _atom_site_occupancy
  Hg  Hg0  1  0.81458500  0.50983600  0.65695000  1
  Hg  Hg1  1  0.25012600  0.28568000  0.61115500  1
  Hg  Hg2  1  0.39155000  0.62778700  0.82144300  1
  Hg  Hg3  1  0.04180400  0.09649600  0.20206900  1
  Hg  Hg4  1  0.36111000  0.44748100  0.03546000  1
  Hg  Hg5  1  0.05311600  0.28924100  0.82061900  1
  Hg  Hg6  1  0.20669300  0.46546000  0.86562400  1
  Hg  Hg7  1  0.71075900  0.94688400  0.67938100  1
  Hg  Hg8  1  0.12480000  0.84390900  0.50990200  1
  Hg  Hg9  1  0.63889000  0.55251900  0.96454000  1
  Hg  Hg10  1  0.74987400  0.71432000  0.38884500  1
  Hg  Hg11  1  0.49016400  0.18541500  0.84305000  1
  Hg  Hg12  1  0.28568000  0.25012600  0.11115500  1
  Hg  Hg13  1  0.90350400  0.95819600  0.29793100  1
  Hg  Hg14  1  0.15609100  0.87520000  0.99009800  1
  Hg  Hg15  1  0.87520000  0.15609100  0.49009800  1
  Hg  Hg16  1  0.28924100  0.05311600  0.32061900  1
  Hg  Hg17  1  0.94975500  0.71976600  0.02657500  1
  Hg  Hg18  1  0.95819600  0.90350400  0.79793100  1
  Hg  Hg19  1  0.44748100  0.36111000  0.53546000  1
  Hg  Hg20  1  0.28023400  0.05024500  0.47342500  1
  Hg  Hg21  1  0.55251900  0.63889000  0.46454000  1
  Hg  Hg22  1  0.05024500  0.28023400  0.97342500  1
  Hg  Hg23  1  0.79330700  0.53454000  0.13437600  1
  Hg  Hg24  1  0.09649600  0.04180400  0.70206900  1
  Hg  Hg25  1  0.62778700  0.39155000  0.32144300  1
  Hg  Hg26  1  0.84390900  0.12480000  0.00990200  1
  Hg  Hg27  1  0.37221300  0.60845000  0.67855700  1
  Hg  Hg28  1  0.71432000  0.74987400  0.88884500  1
  Hg  Hg29  1  0.46546000  0.20669300  0.36562400  1
  Hg  Hg30  1  0.18541500  0.49016400  0.34305000  1
  Hg  Hg31  1  0.94688400  0.71075900  0.17938100  1
  Hg  Hg32  1  0.71976600  0.94975500  0.52657500  1
  Hg  Hg33  1  0.53454000  0.79330700  0.63437600  1
  Hg  Hg34  1  0.50983600  0.81458500  0.15695000  1
  Hg  Hg35  1  0.60845000  0.37221300  0.17855700  1
  Cl  Cl36  1  0.95965600  0.33886600  0.51546100  1
  Cl  Cl37  1  0.61843700  0.05729900  0.21808700  1
  Cl  Cl38  1  0.04034400  0.66113400  0.48453900  1
  Cl  Cl39  1  0.64832700  0.27022600  0.65500800  1
  Cl  Cl40  1  0.72977400  0.35167300  0.84499200  1
  Cl  Cl41  1  0.05729900  0.61843700  0.71808700  1
  Cl  Cl42  1  0.35167300  0.72977400  0.34499200  1
  Cl  Cl43  1  0.33886600  0.95965600  0.01546100  1
  Cl  Cl44  1  0.38156300  0.94270100  0.78191300  1
  Cl  Cl45  1  0.66113400  0.04034400  0.98453900  1
  Cl  Cl46  1  0.27022600  0.64832700  0.15500800  1
  Cl  Cl47  1  0.94270100  0.38156300  0.28191300  1
  O  O48  1  0.29393700  0.04582900  0.19585500  1
  O  O49  1  0.64279500  0.37042100  0.44732700  1
  O  O50  1  0.95417100  0.70606300  0.30414500  1
  O  O51  1  0.35720500  0.62957900  0.55267300  1
  O  O52  1  0.37042100  0.64279500  0.94732700  1
  O  O53  1  0.70606300  0.95417100  0.80414500  1
  O  O54  1  0.69290300  0.98556200  0.40260400  1
  O  O55  1  0.01443800  0.30709700  0.09739600  1
  O  O56  1  0.04582900  0.29393700  0.69585500  1
  O  O57  1  0.98556200  0.69290300  0.90260400  1
  O  O58  1  0.30709700  0.01443800  0.59739600  1
  O  O59  1  0.62957900  0.35720500  0.05267300  1
