# generated using pymatgen
data_Rb5CeCu2(NO2)12
_symmetry_space_group_name_H-M   'P 1'
_cell_length_a   10.98676800
_cell_length_b   10.98676800
_cell_length_c   10.98676800
_cell_angle_alpha   90.00000000
_cell_angle_beta   90.00000000
_cell_angle_gamma   90.00000000
_symmetry_Int_Tables_number   1
_chemical_formula_structural   Rb5CeCu2(NO2)12
_chemical_formula_sum   'Rb10 Ce2 Cu4 N24 O48'
_cell_volume   1326.20255952
_cell_formula_units_Z   2
loop_
 _symmetry_equiv_pos_site_id
 _symmetry_equiv_pos_as_xyz
  1  'x, y, z'
loop_
 _atom_site_type_symbol
 _atom_site_label
 _atom_site_symmetry_multiplicity
 _atom_site_fract_x
 _atom_site_fract_y
 _atom_site_fract_z
 _atom_site_occupancy
  Rb  Rb0  1  0.25000000  0.25000000  0.75000000  1
  Rb  Rb1  1  0.25000000  0.75000000  0.25000000  1
  Rb  Rb2  1  0.00000000  0.50000000  0.50000000  1
  Rb  Rb3  1  0.50000000  0.00000000  0.00000000  1
  Rb  Rb4  1  0.50000000  0.00000000  0.50000000  1
  Rb  Rb5  1  0.75000000  0.75000000  0.75000000  1
  Rb  Rb6  1  0.50000000  0.50000000  0.00000000  1
  Rb  Rb7  1  0.00000000  0.50000000  0.00000000  1
  Rb  Rb8  1  0.75000000  0.25000000  0.25000000  1
  Rb  Rb9  1  0.00000000  0.00000000  0.50000000  1
  Ce  Ce10  1  0.00000000  0.00000000  0.00000000  1
  Ce  Ce11  1  0.50000000  0.50000000  0.50000000  1
  Cu  Cu12  1  0.75000000  0.75000000  0.25000000  1
  Cu  Cu13  1  0.25000000  0.75000000  0.75000000  1
  Cu  Cu14  1  0.75000000  0.25000000  0.75000000  1
  Cu  Cu15  1  0.25000000  0.25000000  0.25000000  1
  N  N16  1  0.25903000  0.25563800  0.44341700  1
  N  N17  1  0.55658300  0.74097000  0.25563800  1
  N  N18  1  0.44341700  0.74097000  0.74436200  1
  N  N19  1  0.25563800  0.55658300  0.74097000  1
  N  N20  1  0.74097000  0.74436200  0.44341700  1
  N  N21  1  0.75563800  0.05658300  0.75903000  1
  N  N22  1  0.05658300  0.75903000  0.75563800  1
  N  N23  1  0.55658300  0.25903000  0.74436200  1
  N  N24  1  0.25563800  0.44341700  0.25903000  1
  N  N25  1  0.75903000  0.24436200  0.94341700  1
  N  N26  1  0.74436200  0.55658300  0.25903000  1
  N  N27  1  0.24097000  0.24436200  0.05658300  1
  N  N28  1  0.25903000  0.74436200  0.55658300  1
  N  N29  1  0.75563800  0.94341700  0.24097000  1
  N  N30  1  0.44341700  0.25903000  0.25563800  1
  N  N31  1  0.24436200  0.94341700  0.75903000  1
  N  N32  1  0.24436200  0.05658300  0.24097000  1
  N  N33  1  0.94341700  0.75903000  0.24436200  1
  N  N34  1  0.74436200  0.44341700  0.74097000  1
  N  N35  1  0.74097000  0.25563800  0.55658300  1
  N  N36  1  0.24097000  0.75563800  0.94341700  1
  N  N37  1  0.75903000  0.75563800  0.05658300  1
  N  N38  1  0.94341700  0.24097000  0.75563800  1
  N  N39  1  0.05658300  0.24097000  0.24436200  1
  O  O40  1  0.25456200  0.00104400  0.66110500  1
  O  O41  1  0.75456200  0.50104400  0.83889500  1
  O  O42  1  0.16110500  0.75456200  0.49895600  1
  O  O43  1  0.99895600  0.33889500  0.25456200  1
  O  O44  1  0.66110500  0.25456200  0.00104400  1
  O  O45  1  0.00146600  0.85336200  0.21056100  1
  O  O46  1  0.14663800  0.21056100  0.99853400  1
  O  O47  1  0.71056100  0.49853400  0.35336200  1
  O  O48  1  0.33889500  0.74543800  0.00104400  1
  O  O49  1  0.78943900  0.00146600  0.14663800  1
  O  O50  1  0.83889500  0.75456200  0.50104400  1
  O  O51  1  0.14663800  0.78943900  0.00146600  1
  O  O52  1  0.49895600  0.16110500  0.75456200  1
  O  O53  1  0.64663800  0.71056100  0.50146600  1
  O  O54  1  0.78943900  0.99853400  0.85336200  1
  O  O55  1  0.66110500  0.74543800  0.99895600  1
  O  O56  1  0.64663800  0.28943900  0.49853400  1
  O  O57  1  0.00104400  0.66110500  0.25456200  1
  O  O58  1  0.83889500  0.24543800  0.49895600  1
  O  O59  1  0.85336200  0.78943900  0.99853400  1
  O  O60  1  0.28943900  0.49853400  0.64663800  1
  O  O61  1  0.00104400  0.33889500  0.74543800  1
  O  O62  1  0.00146600  0.14663800  0.78943900  1
  O  O63  1  0.49895600  0.83889500  0.24543800  1
  O  O64  1  0.75456200  0.49895600  0.16110500  1
  O  O65  1  0.99853400  0.14663800  0.21056100  1
  O  O66  1  0.16110500  0.24543800  0.50104400  1
  O  O67  1  0.74543800  0.00104400  0.33889500  1
  O  O68  1  0.33889500  0.25456200  0.99895600  1
  O  O69  1  0.28943900  0.50146600  0.35336200  1
  O  O70  1  0.49853400  0.35336200  0.71056100  1
  O  O71  1  0.35336200  0.71056100  0.49853400  1
  O  O72  1  0.99895600  0.66110500  0.74543800  1
  O  O73  1  0.50146600  0.64663800  0.71056100  1
  O  O74  1  0.50104400  0.83889500  0.75456200  1
  O  O75  1  0.25456200  0.99895600  0.33889500  1
  O  O76  1  0.49853400  0.64663800  0.28943900  1
  O  O77  1  0.50104400  0.16110500  0.24543800  1
  O  O78  1  0.74543800  0.99895600  0.66110500  1
  O  O79  1  0.24543800  0.49895600  0.83889500  1
  O  O80  1  0.85336200  0.21056100  0.00146600  1
  O  O81  1  0.99853400  0.85336200  0.78943900  1
  O  O82  1  0.21056100  0.99853400  0.14663800  1
  O  O83  1  0.35336200  0.28943900  0.50146600  1
  O  O84  1  0.24543800  0.50104400  0.16110500  1
  O  O85  1  0.71056100  0.50146600  0.64663800  1
  O  O86  1  0.50146600  0.35336200  0.28943900  1
  O  O87  1  0.21056100  0.00146600  0.85336200  1
