# generated using pymatgen
data_Yb3(SF2)2
_symmetry_space_group_name_H-M   'P 1'
_cell_length_a   9.83952403
_cell_length_b   9.83952403
_cell_length_c   9.83952403
_cell_angle_alpha   157.64389639
_cell_angle_beta   157.64389639
_cell_angle_gamma   31.82361528
_symmetry_Int_Tables_number   1
_chemical_formula_structural   Yb3(SF2)2
_chemical_formula_sum   'Yb3 S2 F4'
_cell_volume   137.71619417
_cell_formula_units_Z   1
loop_
 _symmetry_equiv_pos_site_id
 _symmetry_equiv_pos_as_xyz
  1  'x, y, z'
loop_
 _atom_site_type_symbol
 _atom_site_label
 _atom_site_symmetry_multiplicity
 _atom_site_fract_x
 _atom_site_fract_y
 _atom_site_fract_z
 _atom_site_occupancy
  Yb  Yb0  1  0.36220300  0.36220300  0.00000000  1
  Yb  Yb1  1  0.00000000  0.00000000  0.00000000  1
  Yb  Yb2  1  0.63779700  0.63779700  0.00000000  1
  S  S3  1  0.21711000  0.21711000  0.00000000  1
  S  S4  1  0.78289000  0.78289000  0.00000000  1
  F  F5  1  0.92992200  0.42992200  0.50000000  1
  F  F6  1  0.42992200  0.92992200  0.50000000  1
  F  F7  1  0.07007800  0.57007800  0.50000000  1
  F  F8  1  0.57007800  0.07007800  0.50000000  1
