# generated using pymatgen
data_SeS4N3Cl5
_symmetry_space_group_name_H-M   'P 1'
_cell_length_a   18.63156100
_cell_length_b   8.59612100
_cell_length_c   8.69106046
_cell_angle_alpha   77.32570315
_cell_angle_beta   90.00000000
_cell_angle_gamma   90.00000000
_symmetry_Int_Tables_number   1
_chemical_formula_structural   SeS4N3Cl5
_chemical_formula_sum   'Se4 S16 N12 Cl20'
_cell_volume   1358.03526190
_cell_formula_units_Z   4
loop_
 _symmetry_equiv_pos_site_id
 _symmetry_equiv_pos_as_xyz
  1  'x, y, z'
loop_
 _atom_site_type_symbol
 _atom_site_label
 _atom_site_symmetry_multiplicity
 _atom_site_fract_x
 _atom_site_fract_y
 _atom_site_fract_z
 _atom_site_occupancy
  Se  Se0  1  0.59225700  0.51383000  0.63428500  1
  Se  Se1  1  0.40774300  0.48617000  0.36571500  1
  Se  Se2  1  0.90774300  0.51383000  0.13428500  1
  Se  Se3  1  0.09225700  0.48617000  0.86571500  1
  S  S4  1  0.33685100  0.79297500  0.67908200  1
  S  S5  1  0.66314900  0.20702500  0.32091800  1
  S  S6  1  0.06115900  0.82195400  0.27809200  1
  S  S7  1  0.43884100  0.82195400  0.77809200  1
  S  S8  1  0.23620400  0.07976800  0.25897100  1
  S  S9  1  0.83685100  0.20702500  0.82091800  1
  S  S10  1  0.90509400  0.88130000  0.60231700  1
  S  S11  1  0.59490600  0.88130000  0.10231700  1
  S  S12  1  0.73620400  0.92023200  0.24102900  1
  S  S13  1  0.93884100  0.17804600  0.72190800  1
  S  S14  1  0.56115900  0.17804600  0.22190800  1
  S  S15  1  0.09490600  0.11870000  0.39768300  1
  S  S16  1  0.76379600  0.92023200  0.74102900  1
  S  S17  1  0.26379600  0.07976800  0.75897100  1
  S  S18  1  0.16314900  0.79297500  0.17908200  1
  S  S19  1  0.40509400  0.11870000  0.89768300  1
  N  N20  1  0.56019000  0.03078500  0.14374600  1
  N  N21  1  0.21715800  0.92721400  0.19902400  1
  N  N22  1  0.32349200  0.15260100  0.85169400  1
  N  N23  1  0.93981000  0.03078500  0.64374600  1
  N  N24  1  0.06019000  0.96921500  0.35625400  1
  N  N25  1  0.67650800  0.84739900  0.14830600  1
  N  N26  1  0.71715800  0.07278600  0.30097600  1
  N  N27  1  0.17650800  0.15260100  0.35169400  1
  N  N28  1  0.82349200  0.84739900  0.64830600  1
  N  N29  1  0.43981000  0.96921500  0.85625400  1
  N  N30  1  0.78284200  0.07278600  0.80097600  1
  N  N31  1  0.28284200  0.92721400  0.69902400  1
  Cl  Cl32  1  0.40988600  0.19757500  0.45603200  1
  Cl  Cl33  1  0.59079100  0.23130300  0.71972800  1
  Cl  Cl34  1  0.79002100  0.51185700  0.07738500  1
  Cl  Cl35  1  0.09079100  0.76869700  0.78027200  1
  Cl  Cl36  1  0.20997900  0.48814300  0.92261500  1
  Cl  Cl37  1  0.90920900  0.23130300  0.21972800  1
  Cl  Cl38  1  0.59011400  0.80242500  0.54396800  1
  Cl  Cl39  1  0.44109800  0.51817800  0.66115700  1
  Cl  Cl40  1  0.89466500  0.54088000  0.38783500  1
  Cl  Cl41  1  0.09011400  0.19757500  0.95603200  1
  Cl  Cl42  1  0.90988600  0.80242500  0.04396800  1
  Cl  Cl43  1  0.60533500  0.54088000  0.88783500  1
  Cl  Cl44  1  0.10533500  0.45912000  0.61216500  1
  Cl  Cl45  1  0.40920900  0.76869700  0.28027200  1
  Cl  Cl46  1  0.05890200  0.51817800  0.16115700  1
  Cl  Cl47  1  0.94109800  0.48182200  0.83884300  1
  Cl  Cl48  1  0.70997900  0.51185700  0.57738500  1
  Cl  Cl49  1  0.29002100  0.48814300  0.42261500  1
  Cl  Cl50  1  0.39466500  0.45912000  0.11216500  1
  Cl  Cl51  1  0.55890200  0.48182200  0.33884300  1
