# generated using pymatgen
data_Pr4B10O21
_symmetry_space_group_name_H-M   'P 1'
_cell_length_a   19.68642500
_cell_length_b   7.22232100
_cell_length_c   11.67907375
_cell_angle_alpha   55.26907569
_cell_angle_beta   90.00000000
_cell_angle_gamma   90.00000000
_symmetry_Int_Tables_number   1
_chemical_formula_structural   Pr4B10O21
_chemical_formula_sum   'Pr16 B40 O84'
_cell_volume   1364.70114615
_cell_formula_units_Z   4
loop_
 _symmetry_equiv_pos_site_id
 _symmetry_equiv_pos_as_xyz
  1  'x, y, z'
loop_
 _atom_site_type_symbol
 _atom_site_label
 _atom_site_symmetry_multiplicity
 _atom_site_fract_x
 _atom_site_fract_y
 _atom_site_fract_z
 _atom_site_occupancy
  Pr  Pr0  1  0.91717300  0.46980700  0.66641600  1
  Pr  Pr1  1  0.70655800  0.92562200  0.17675600  1
  Pr  Pr2  1  0.91935100  0.99528800  0.15965100  1
  Pr  Pr3  1  0.70015600  0.46540600  0.66135400  1
  Pr  Pr4  1  0.58064900  0.99528800  0.65965100  1
  Pr  Pr5  1  0.79984400  0.46540600  0.16135400  1
  Pr  Pr6  1  0.20015600  0.53459400  0.83864600  1
  Pr  Pr7  1  0.29984400  0.53459400  0.33864600  1
  Pr  Pr8  1  0.41935100  0.00471200  0.34034900  1
  Pr  Pr9  1  0.41717300  0.53019300  0.83358400  1
  Pr  Pr10  1  0.08282700  0.53019300  0.33358400  1
  Pr  Pr11  1  0.79344200  0.92562200  0.67675600  1
  Pr  Pr12  1  0.58282700  0.46980700  0.16641600  1
  Pr  Pr13  1  0.08064900  0.00471200  0.84034900  1
  Pr  Pr14  1  0.29344200  0.07437800  0.82324400  1
  Pr  Pr15  1  0.20655800  0.07437800  0.32324400  1
  B  B16  1  0.18732100  0.00035900  0.04538600  1
  B  B17  1  0.32282300  0.52025000  0.04524300  1
  B  B18  1  0.92311800  0.93676500  0.86074500  1
  B  B19  1  0.81267900  0.99964100  0.95461400  1
  B  B20  1  0.59490300  0.53109900  0.44359200  1
  B  B21  1  0.97890900  0.09118200  0.60235400  1
  B  B22  1  0.52109100  0.09118200  0.10235400  1
  B  B23  1  0.20305500  0.05852800  0.61983300  1
  B  B24  1  0.57688200  0.93676500  0.36074500  1
  B  B25  1  0.02367900  0.39744500  0.89958100  1
  B  B26  1  0.09490300  0.46890100  0.05640800  1
  B  B27  1  0.57120700  0.43819600  0.86612700  1
  B  B28  1  0.31267900  0.00035900  0.54538600  1
  B  B29  1  0.79317500  0.41223100  0.87862500  1
  B  B30  1  0.29317500  0.58776900  0.62137500  1
  B  B31  1  0.17717700  0.52025000  0.54524300  1
  B  B32  1  0.07688200  0.06323500  0.13925500  1
  B  B33  1  0.67717700  0.47975000  0.95475700  1
  B  B34  1  0.40605100  0.95922400  0.05515000  1
  B  B35  1  0.70682500  0.41223100  0.37862500  1
  B  B36  1  0.07120700  0.56180400  0.63387300  1
  B  B37  1  0.90605100  0.04077600  0.44485000  1
  B  B38  1  0.70305500  0.94147200  0.88016700  1
  B  B39  1  0.90509700  0.53109900  0.94359200  1
  B  B40  1  0.59394900  0.04077600  0.94485000  1
  B  B41  1  0.29694500  0.05852800  0.11983300  1
  B  B42  1  0.79694500  0.94147200  0.38016700  1
  B  B43  1  0.20682500  0.58776900  0.12137500  1
  B  B44  1  0.47632100  0.39744500  0.39958100  1
  B  B45  1  0.97632100  0.60255500  0.10041900  1
  B  B46  1  0.42879300  0.56180400  0.13387300  1
  B  B47  1  0.09394900  0.95922400  0.55515000  1
  B  B48  1  0.52367900  0.60255500  0.60041900  1
  B  B49  1  0.92879300  0.43819600  0.36612700  1
  B  B50  1  0.68732100  0.99964100  0.45461400  1
  B  B51  1  0.82282300  0.47975000  0.45475700  1
  B  B52  1  0.40509700  0.46890100  0.55640800  1
  B  B53  1  0.02109100  0.90881800  0.39764600  1
  B  B54  1  0.42311800  0.06323500  0.63925500  1
  B  B55  1  0.47890900  0.90881800  0.89764600  1
  O  O56  1  0.27024500  0.45153100  0.13855500  1
  O  O57  1  0.37523300  0.91548400  0.62610700  1
  O  O58  1  0.82245300  0.84766900  0.10302200  1
  O  O59  1  0.38688400  0.41956300  0.09775000  1
  O  O60  1  0.23358100  0.81054100  0.07962200  1
  O  O61  1  0.07135000  0.03730600  0.41610600  1
  O  O62  1  0.31219400  0.93704800  0.25715700  1
  O  O63  1  0.01774400  0.67514800  0.52878800  1
  O  O64  1  0.81609200  0.54714100  0.73597800  1
  O  O65  1  0.96050900  0.10449000  0.72453700  1
  O  O66  1  0.47436100  0.16192200  0.52677600  1
  O  O67  1  0.54151200  0.60934500  0.72634500  1
  O  O68  1  0.18780600  0.93704800  0.75715700  1
  O  O69  1  0.61311600  0.58043700  0.90225000  1
  O  O70  1  0.68780600  0.06295200  0.74284300  1
  O  O71  1  0.18390800  0.45285900  0.26402200  1
  O  O72  1  0.57215700  0.46364200  0.58418000  1
  O  O73  1  0.15882200  0.60804200  0.01905600  1
  O  O74  1  0.04825400  0.99663600  0.63817800  1
  O  O75  1  0.98225600  0.32485200  0.47121200  1
  O  O76  1  0.45174600  0.99663600  0.13817800  1
  O  O77  1  0.26641900  0.81054100  0.57962200  1
  O  O78  1  0.52563900  0.83807800  0.47322400  1
  O  O79  1  0.54790100  0.46967800  0.37289600  1
  O  O80  1  0.68390800  0.54714100  0.23597800  1
  O  O81  1  0.73060400  0.85757300  0.41818700  1
  O  O82  1  0.17754700  0.15233100  0.89697800  1
  O  O83  1  0.88240400  0.28095200  0.36527800  1
  O  O84  1  0.95848800  0.60934500  0.22634500  1
  O  O85  1  0.68735700  0.33426100  0.09433000  1
  O  O86  1  0.95209900  0.46967800  0.87289600  1
  O  O87  1  0.84117800  0.39195800  0.98094400  1
  O  O88  1  0.22975500  0.45153100  0.63855500  1
  O  O89  1  0.84296100  0.89584600  0.48103800  1
  O  O90  1  0.76641900  0.18945900  0.92037800  1
  O  O91  1  0.23060400  0.14242700  0.08181300  1
  O  O92  1  0.11311600  0.41956300  0.59775000  1
  O  O93  1  0.61348800  0.76909800  0.35564200  1
  O  O94  1  0.62476700  0.08451600  0.37389300  1
  O  O95  1  0.34296100  0.10415400  0.01896200  1
  O  O96  1  0.18735700  0.66573900  0.40567000  1
  O  O97  1  0.02563900  0.16192200  0.02677600  1
  O  O98  1  0.87523300  0.08451600  0.87389300  1
  O  O99  1  0.32245300  0.15233100  0.39697800  1
  O  O100  1  0.31264300  0.66573900  0.90567000  1
  O  O101  1  0.38240400  0.71904800  0.13472200  1
  O  O102  1  0.53949100  0.10449000  0.22453700  1
  O  O103  1  0.61759600  0.28095200  0.86527800  1
  O  O104  1  0.45848800  0.39065500  0.27365500  1
  O  O105  1  0.51774400  0.32485200  0.97121200  1
  O  O106  1  0.88651200  0.76909800  0.85564200  1
  O  O107  1  0.03949100  0.89551000  0.27546300  1
  O  O108  1  0.76939600  0.85757300  0.91818700  1
  O  O109  1  0.48225600  0.67514800  0.02878800  1
  O  O110  1  0.57135000  0.96269400  0.08389400  1
  O  O111  1  0.38651200  0.23090200  0.64435800  1
  O  O112  1  0.42865000  0.03730600  0.91610600  1
  O  O113  1  0.65703900  0.89584600  0.98103800  1
  O  O114  1  0.11348800  0.23090200  0.14435800  1
  O  O115  1  0.04151200  0.39065500  0.77365500  1
  O  O116  1  0.12476700  0.91548400  0.12610700  1
  O  O117  1  0.54825400  0.00336400  0.86182200  1
  O  O118  1  0.81264300  0.33426100  0.59433000  1
  O  O119  1  0.97436100  0.83807800  0.97322400  1
  O  O120  1  0.92784300  0.46364200  0.08418000  1
  O  O121  1  0.15703900  0.10415400  0.51896200  1
  O  O122  1  0.73358100  0.18945900  0.42037800  1
  O  O123  1  0.95174600  0.00336400  0.36182200  1
  O  O124  1  0.11759600  0.71904800  0.63472200  1
  O  O125  1  0.72975500  0.54846900  0.86144500  1
  O  O126  1  0.42784300  0.53635800  0.41582000  1
  O  O127  1  0.26939600  0.14242700  0.58181300  1
  O  O128  1  0.65882200  0.39195800  0.48094400  1
  O  O129  1  0.04790100  0.53032200  0.12710400  1
  O  O130  1  0.34117800  0.60804200  0.51905600  1
  O  O131  1  0.88688400  0.58043700  0.40225000  1
  O  O132  1  0.46050900  0.89551000  0.77546300  1
  O  O133  1  0.31609200  0.45285900  0.76402200  1
  O  O134  1  0.92865000  0.96269400  0.58389400  1
  O  O135  1  0.07215700  0.53635800  0.91582000  1
  O  O136  1  0.81219400  0.06295200  0.24284300  1
  O  O137  1  0.45209900  0.53032200  0.62710400  1
  O  O138  1  0.77024500  0.54846900  0.36144500  1
  O  O139  1  0.67754700  0.84766900  0.60302200  1
