# generated using pymatgen
data_V2Re2O11
_symmetry_space_group_name_H-M   'P 1'
_cell_length_a   7.66006829
_cell_length_b   7.66006829
_cell_length_c   9.09593800
_cell_angle_alpha   90.00000000
_cell_angle_beta   90.00000000
_cell_angle_gamma   125.57450574
_symmetry_Int_Tables_number   1
_chemical_formula_structural   V2Re2O11
_chemical_formula_sum   'V4 Re4 O22'
_cell_volume   434.10563705
_cell_formula_units_Z   2
loop_
 _symmetry_equiv_pos_site_id
 _symmetry_equiv_pos_as_xyz
  1  'x, y, z'
loop_
 _atom_site_type_symbol
 _atom_site_label
 _atom_site_symmetry_multiplicity
 _atom_site_fract_x
 _atom_site_fract_y
 _atom_site_fract_z
 _atom_site_occupancy
  V  V0  1  0.74702600  0.25297400  0.21752300  1
  V  V1  1  0.44591100  0.55408900  0.48961000  1
  V  V2  1  0.55408900  0.44591100  0.98961000  1
  V  V3  1  0.25297400  0.74702600  0.71752300  1
  Re  Re4  1  0.00508000  0.99492000  0.51643400  1
  Re  Re5  1  0.29835200  0.70164800  0.14679100  1
  Re  Re6  1  0.99492000  0.00508000  0.01643400  1
  Re  Re7  1  0.70164800  0.29835200  0.64679100  1
  O  O8  1  0.62316600  0.37683400  0.16809900  1
  O  O9  1  0.82936800  0.17063200  0.65600800  1
  O  O10  1  0.16052000  0.27162100  0.46678900  1
  O  O11  1  0.96281000  0.03719000  0.20083800  1
  O  O12  1  0.74700100  0.25299900  0.40111200  1
  O  O13  1  0.72837900  0.83948000  0.46678900  1
  O  O14  1  0.17063200  0.82936800  0.15600800  1
  O  O15  1  0.65684700  0.34315300  0.83224000  1
  O  O16  1  0.25299900  0.74700100  0.90111200  1
  O  O17  1  0.41932000  0.58068000  0.04678100  1
  O  O18  1  0.27162100  0.16052000  0.96678900  1
  O  O19  1  0.37683400  0.62316600  0.66809900  1
  O  O20  1  0.42806700  0.01691900  0.64516400  1
  O  O21  1  0.57193300  0.98308100  0.14516400  1
  O  O22  1  0.83948000  0.72837900  0.96678900  1
  O  O23  1  0.01691900  0.42806700  0.14516400  1
  O  O24  1  0.98308100  0.57193300  0.64516400  1
  O  O25  1  0.58068000  0.41932000  0.54678100  1
  O  O26  1  0.34315300  0.65684700  0.33224000  1
  O  O27  1  0.03719000  0.96281000  0.70083800  1
  O  O28  1  0.88405000  0.11595000  0.92665800  1
  O  O29  1  0.11595000  0.88405000  0.42665800  1
