# generated using pymatgen
data_NiH12SO10
_symmetry_space_group_name_H-M   'P 1'
_cell_length_a   6.81737100
_cell_length_b   6.81737100
_cell_length_c   18.43761000
_cell_angle_alpha   90.00000000
_cell_angle_beta   90.00000000
_cell_angle_gamma   90.00000000
_symmetry_Int_Tables_number   1
_chemical_formula_structural   NiH12SO10
_chemical_formula_sum   'Ni4 H48 S4 O40'
_cell_volume   856.91645422
_cell_formula_units_Z   4
loop_
 _symmetry_equiv_pos_site_id
 _symmetry_equiv_pos_as_xyz
  1  'x, y, z'
loop_
 _atom_site_type_symbol
 _atom_site_label
 _atom_site_symmetry_multiplicity
 _atom_site_fract_x
 _atom_site_fract_y
 _atom_site_fract_z
 _atom_site_occupancy
  Ni  Ni0  1  0.28826500  0.71173500  0.25000000  1
  Ni  Ni1  1  0.78826500  0.78826500  0.50000000  1
  Ni  Ni2  1  0.71173500  0.28826500  0.75000000  1
  Ni  Ni3  1  0.21173500  0.21173500  0.00000000  1
  H  H4  1  0.42822200  0.85539500  0.54428000  1
  H  H5  1  0.14460500  0.57177800  0.95572000  1
  H  H6  1  0.50731600  0.96884800  0.18335500  1
  H  H7  1  0.57820500  0.64895000  0.70834400  1
  H  H8  1  0.64895000  0.57820500  0.29165600  1
  H  H9  1  0.72582600  0.01309300  0.38247700  1
  H  H10  1  0.58239500  0.75475000  0.34599700  1
  H  H11  1  0.22582600  0.48690700  0.36752300  1
  H  H12  1  0.07177800  0.35539500  0.70572000  1
  H  H13  1  0.53630000  0.37605700  0.05840100  1
  H  H14  1  0.41760500  0.24525000  0.84599700  1
  H  H15  1  0.03115200  0.49268400  0.31664500  1
  H  H16  1  0.77417400  0.51309300  0.86752300  1
  H  H17  1  0.48690700  0.22582600  0.63247700  1
  H  H18  1  0.08239500  0.74525000  0.40400300  1
  H  H19  1  0.53115200  0.00731600  0.43335500  1
  H  H20  1  0.00731600  0.53115200  0.56664500  1
  H  H21  1  0.25475000  0.91760500  0.09599700  1
  H  H22  1  0.96370000  0.87605700  0.19159900  1
  H  H23  1  0.14895000  0.92179500  0.45834400  1
  H  H24  1  0.57177800  0.14460500  0.04428000  1
  H  H25  1  0.46370000  0.62394300  0.55840100  1
  H  H26  1  0.35105000  0.42179500  0.79165600  1
  H  H27  1  0.51309300  0.77417400  0.13247700  1
  H  H28  1  0.01309300  0.72582600  0.61752300  1
  H  H29  1  0.92822200  0.64460500  0.20572000  1
  H  H30  1  0.74525000  0.08239500  0.59599700  1
  H  H31  1  0.85105000  0.07820500  0.95834400  1
  H  H32  1  0.37605700  0.53630000  0.94159900  1
  H  H33  1  0.62394300  0.46370000  0.44159900  1
  H  H34  1  0.35539500  0.07177800  0.29428000  1
  H  H35  1  0.03630000  0.12394300  0.69159900  1
  H  H36  1  0.49268400  0.03115200  0.68335500  1
  H  H37  1  0.27417400  0.98690700  0.88247700  1
  H  H38  1  0.42179500  0.35105000  0.20834400  1
  H  H39  1  0.85539500  0.42822200  0.45572000  1
  H  H40  1  0.96884800  0.50731600  0.81664500  1
  H  H41  1  0.46884800  0.99268400  0.93335500  1
  H  H42  1  0.87605700  0.96370000  0.80840100  1
  H  H43  1  0.24525000  0.41760500  0.15400300  1
  H  H44  1  0.12394300  0.03630000  0.30840100  1
  H  H45  1  0.64460500  0.92822200  0.79428000  1
  H  H46  1  0.75475000  0.58239500  0.65400300  1
  H  H47  1  0.98690700  0.27417400  0.11752300  1
  H  H48  1  0.92179500  0.14895000  0.54165600  1
  H  H49  1  0.91760500  0.25475000  0.90400300  1
  H  H50  1  0.07820500  0.85105000  0.04165600  1
  H  H51  1  0.99268400  0.46884800  0.06664500  1
  S  S52  1  0.70790100  0.70790100  0.00000000  1
  S  S53  1  0.29209900  0.29209900  0.50000000  1
  S  S54  1  0.20790100  0.79209900  0.75000000  1
  S  S55  1  0.79209900  0.20790100  0.25000000  1
  O  O56  1  0.25541400  0.97347900  0.30675200  1
  O  O57  1  0.85943200  0.42808700  0.83648700  1
  O  O58  1  0.17928300  0.95128700  0.05187500  1
  O  O59  1  0.88863600  0.12574700  0.18400400  1
  O  O60  1  0.14056800  0.57191300  0.33648700  1
  O  O61  1  0.17179200  0.57552100  0.75477000  1
  O  O62  1  0.42808700  0.85943200  0.16351300  1
  O  O63  1  0.37425300  0.38863600  0.43400400  1
  O  O64  1  0.42447900  0.82820800  0.74523000  1
  O  O65  1  0.62574700  0.61136400  0.93400400  1
  O  O66  1  0.52652100  0.75541400  0.55675200  1
  O  O67  1  0.47347900  0.24458600  0.05675200  1
  O  O68  1  0.67179200  0.92447900  0.99523000  1
  O  O69  1  0.95128700  0.17928300  0.94812500  1
  O  O70  1  0.75541400  0.52652100  0.44324800  1
  O  O71  1  0.61136400  0.62574700  0.06599600  1
  O  O72  1  0.07552100  0.32820800  0.50477000  1
  O  O73  1  0.57552100  0.17179200  0.24523000  1
  O  O74  1  0.04871300  0.82071700  0.44812500  1
  O  O75  1  0.32071700  0.45128700  0.19812500  1
  O  O76  1  0.02652100  0.74458600  0.19324800  1
  O  O77  1  0.64056800  0.92808700  0.41351300  1
  O  O78  1  0.97347900  0.25541400  0.69324800  1
  O  O79  1  0.87425300  0.11136400  0.31599600  1
  O  O80  1  0.35943200  0.07191300  0.91351300  1
  O  O81  1  0.24458600  0.47347900  0.94324800  1
  O  O82  1  0.12574700  0.88863600  0.81599600  1
  O  O83  1  0.92447900  0.67179200  0.00477000  1
  O  O84  1  0.74458600  0.02652100  0.80675200  1
  O  O85  1  0.11136400  0.87425300  0.68400400  1
  O  O86  1  0.57191300  0.14056800  0.66351300  1
  O  O87  1  0.54871300  0.67928300  0.30187500  1
  O  O88  1  0.38863600  0.37425300  0.56599600  1
  O  O89  1  0.82820800  0.42447900  0.25477000  1
  O  O90  1  0.92808700  0.64056800  0.58648700  1
  O  O91  1  0.82071700  0.04871300  0.55187500  1
  O  O92  1  0.45128700  0.32071700  0.80187500  1
  O  O93  1  0.32820800  0.07552100  0.49523000  1
  O  O94  1  0.67928300  0.54871300  0.69812500  1
  O  O95  1  0.07191300  0.35943200  0.08648700  1
