# generated using pymatgen
data_TlCu3PbSe4
_symmetry_space_group_name_H-M   'P 1'
_cell_length_a   6.23270100
_cell_length_b   6.23270100
_cell_length_c   6.23270100
_cell_angle_alpha   90.00000000
_cell_angle_beta   90.00000000
_cell_angle_gamma   90.00000000
_symmetry_Int_Tables_number   1
_chemical_formula_structural   TlCu3PbSe4
_chemical_formula_sum   'Tl1 Cu3 Pb1 Se4'
_cell_volume   242.11900430
_cell_formula_units_Z   1
loop_
 _symmetry_equiv_pos_site_id
 _symmetry_equiv_pos_as_xyz
  1  'x, y, z'
loop_
 _atom_site_type_symbol
 _atom_site_label
 _atom_site_symmetry_multiplicity
 _atom_site_fract_x
 _atom_site_fract_y
 _atom_site_fract_z
 _atom_site_occupancy
  Tl  Tl0  1  0.00000000  0.00000000  0.00000000  1
  Cu  Cu1  1  0.00000000  0.50000000  0.00000000  1
  Cu  Cu2  1  0.00000000  0.00000000  0.50000000  1
  Cu  Cu3  1  0.50000000  0.00000000  0.00000000  1
  Pb  Pb4  1  0.50000000  0.50000000  0.50000000  1
  Se  Se5  1  0.24461100  0.24461100  0.24461100  1
  Se  Se6  1  0.75538900  0.75538900  0.24461100  1
  Se  Se7  1  0.24461100  0.75538900  0.75538900  1
  Se  Se8  1  0.75538900  0.24461100  0.75538900  1
