# generated using pymatgen
data_SrTiSi2O7
_symmetry_space_group_name_H-M   'P 1'
_cell_length_a   7.82830645
_cell_length_b   7.82830645
_cell_length_c   7.14840900
_cell_angle_alpha   90.00000000
_cell_angle_beta   90.00000000
_cell_angle_gamma   139.55949264
_symmetry_Int_Tables_number   1
_chemical_formula_structural   SrTiSi2O7
_chemical_formula_sum   'Sr2 Ti2 Si4 O14'
_cell_volume   284.15866271
_cell_formula_units_Z   2
loop_
 _symmetry_equiv_pos_site_id
 _symmetry_equiv_pos_as_xyz
  1  'x, y, z'
loop_
 _atom_site_type_symbol
 _atom_site_label
 _atom_site_symmetry_multiplicity
 _atom_site_fract_x
 _atom_site_fract_y
 _atom_site_fract_z
 _atom_site_occupancy
  Sr  Sr0  1  0.19879100  0.80120900  0.75000000  1
  Sr  Sr1  1  0.80120900  0.19879100  0.25000000  1
  Ti  Ti2  1  0.10904800  0.89095200  0.25000000  1
  Ti  Ti3  1  0.89095200  0.10904800  0.75000000  1
  Si  Si4  1  0.39156300  0.60843700  0.47500500  1
  Si  Si5  1  0.39156300  0.60843700  0.02499500  1
  Si  Si6  1  0.60843700  0.39156300  0.97500500  1
  Si  Si7  1  0.60843700  0.39156300  0.52499500  1
  O  O8  1  0.63856900  0.36143100  0.75000000  1
  O  O9  1  0.99474700  0.00525300  0.25000000  1
  O  O10  1  0.40375300  0.09673500  0.06158600  1
  O  O11  1  0.40375300  0.09673500  0.43841400  1
  O  O12  1  0.09673500  0.40375300  0.93841400  1
  O  O13  1  0.36143100  0.63856900  0.25000000  1
  O  O14  1  0.59624700  0.90326500  0.93841400  1
  O  O15  1  0.90326500  0.59624700  0.06158600  1
  O  O16  1  0.50000000  0.50000000  0.50000000  1
  O  O17  1  0.59624700  0.90326500  0.56158600  1
  O  O18  1  0.90326500  0.59624700  0.43841400  1
  O  O19  1  0.00525300  0.99474700  0.75000000  1
  O  O20  1  0.09673500  0.40375300  0.56158600  1
  O  O21  1  0.50000000  0.50000000  0.00000000  1
