# generated using pymatgen
data_KNiAs3F18
_symmetry_space_group_name_H-M   'P 1'
_cell_length_a   9.61982200
_cell_length_b   10.53156600
_cell_length_c   14.10472400
_cell_angle_alpha   90.00000000
_cell_angle_beta   90.00000000
_cell_angle_gamma   90.00000000
_symmetry_Int_Tables_number   1
_chemical_formula_structural   KNiAs3F18
_chemical_formula_sum   'K4 Ni4 As12 F72'
_cell_volume   1428.97484015
_cell_formula_units_Z   4
loop_
 _symmetry_equiv_pos_site_id
 _symmetry_equiv_pos_as_xyz
  1  'x, y, z'
loop_
 _atom_site_type_symbol
 _atom_site_label
 _atom_site_symmetry_multiplicity
 _atom_site_fract_x
 _atom_site_fract_y
 _atom_site_fract_z
 _atom_site_occupancy
  K  K0  1  0.97673900  0.57580600  0.25000000  1
  K  K1  1  0.02326100  0.42419400  0.75000000  1
  K  K2  1  0.52326100  0.07580600  0.25000000  1
  K  K3  1  0.47673900  0.92419400  0.75000000  1
  Ni  Ni4  1  0.50000000  0.50000000  0.00000000  1
  Ni  Ni5  1  0.00000000  0.00000000  0.00000000  1
  Ni  Ni6  1  0.50000000  0.50000000  0.50000000  1
  Ni  Ni7  1  0.00000000  0.00000000  0.50000000  1
  As  As8  1  0.80469000  0.29588100  0.04902200  1
  As  As9  1  0.19531000  0.70411900  0.54902200  1
  As  As10  1  0.30469000  0.20411900  0.54902200  1
  As  As11  1  0.30469000  0.20411900  0.95097800  1
  As  As12  1  0.19531000  0.70411900  0.95097800  1
  As  As13  1  0.69531000  0.79588100  0.45097800  1
  As  As14  1  0.89291500  0.02085000  0.75000000  1
  As  As15  1  0.69531000  0.79588100  0.04902200  1
  As  As16  1  0.10708500  0.97915000  0.25000000  1
  As  As17  1  0.60708500  0.52085000  0.75000000  1
  As  As18  1  0.80469000  0.29588100  0.45097800  1
  As  As19  1  0.39291500  0.47915000  0.25000000  1
  F  F20  1  0.78246400  0.56716000  0.75000000  1
  F  F21  1  0.56185000  0.67245800  0.45182200  1
  F  F22  1  0.11026300  0.97580100  0.37958000  1
  F  F23  1  0.29328500  0.78542700  0.03508100  1
  F  F24  1  0.90265600  0.37795800  0.36580300  1
  F  F25  1  0.93815000  0.17245800  0.45182200  1
  F  F26  1  0.82558200  0.92279900  0.44279200  1
  F  F27  1  0.88973700  0.02419900  0.62042000  1
  F  F28  1  0.89164300  0.37765900  0.95856700  1
  F  F29  1  0.21753600  0.43284000  0.25000000  1
  F  F30  1  0.39164300  0.12234100  0.04143300  1
  F  F31  1  0.82558200  0.92279900  0.05720800  1
  F  F32  1  0.84174900  0.86220800  0.75000000  1
  F  F33  1  0.55863300  0.68202500  0.75000000  1
  F  F34  1  0.43196500  0.47748600  0.75000000  1
  F  F35  1  0.59734400  0.87795800  0.13419700  1
  F  F36  1  0.88973700  0.02419900  0.87958000  1
  F  F37  1  0.71753600  0.06716000  0.75000000  1
  F  F38  1  0.89164300  0.37765900  0.54143300  1
  F  F39  1  0.20671500  0.28542700  0.46491900  1
  F  F40  1  0.93196500  0.02251400  0.25000000  1
  F  F41  1  0.71745900  0.21453800  0.35980200  1
  F  F42  1  0.71745900  0.21453800  0.14019800  1
  F  F43  1  0.67441800  0.42279900  0.44279200  1
  F  F44  1  0.10835700  0.62234100  0.04143300  1
  F  F45  1  0.65825100  0.36220800  0.75000000  1
  F  F46  1  0.06185000  0.82754200  0.54817800  1
  F  F47  1  0.43815000  0.32754200  0.95182200  1
  F  F48  1  0.29328500  0.78542700  0.46491900  1
  F  F49  1  0.38973700  0.47580100  0.37958000  1
  F  F50  1  0.39164300  0.12234100  0.45856700  1
  F  F51  1  0.38973700  0.47580100  0.12042000  1
  F  F52  1  0.09734400  0.62204200  0.86580300  1
  F  F53  1  0.70671500  0.21457300  0.53508100  1
  F  F54  1  0.94136700  0.18202500  0.75000000  1
  F  F55  1  0.59734400  0.87795800  0.36580300  1
  F  F56  1  0.17441800  0.07720100  0.55720800  1
  F  F57  1  0.56803500  0.52251400  0.25000000  1
  F  F58  1  0.05863300  0.81797500  0.25000000  1
  F  F59  1  0.60835700  0.87765900  0.95856700  1
  F  F60  1  0.56185000  0.67245800  0.04817800  1
  F  F61  1  0.93815000  0.17245800  0.04817800  1
  F  F62  1  0.28254100  0.78546200  0.64019800  1
  F  F63  1  0.61026300  0.52419900  0.62042000  1
  F  F64  1  0.40265600  0.12204200  0.86580300  1
  F  F65  1  0.21745900  0.28546200  0.64019800  1
  F  F66  1  0.32558200  0.57720100  0.94279200  1
  F  F67  1  0.79328500  0.71457300  0.53508100  1
  F  F68  1  0.79328500  0.71457300  0.96491900  1
  F  F69  1  0.28246400  0.93284000  0.25000000  1
  F  F70  1  0.32558200  0.57720100  0.55720800  1
  F  F71  1  0.21745900  0.28546200  0.85980200  1
  F  F72  1  0.40265600  0.12204200  0.63419700  1
  F  F73  1  0.61026300  0.52419900  0.87958000  1
  F  F74  1  0.28254100  0.78546200  0.85980200  1
  F  F75  1  0.90265600  0.37795800  0.13419700  1
  F  F76  1  0.20671500  0.28542700  0.03508100  1
  F  F77  1  0.60835700  0.87765900  0.54143300  1
  F  F78  1  0.34174900  0.63779200  0.25000000  1
  F  F79  1  0.17441800  0.07720100  0.94279200  1
  F  F80  1  0.44136700  0.31797500  0.25000000  1
  F  F81  1  0.70671500  0.21457300  0.96491900  1
  F  F82  1  0.09734400  0.62204200  0.63419700  1
  F  F83  1  0.78254100  0.71453800  0.35980200  1
  F  F84  1  0.06803500  0.97748600  0.75000000  1
  F  F85  1  0.11026300  0.97580100  0.12042000  1
  F  F86  1  0.67441800  0.42279900  0.05720800  1
  F  F87  1  0.78254100  0.71453800  0.14019800  1
  F  F88  1  0.43815000  0.32754200  0.54817800  1
  F  F89  1  0.10835700  0.62234100  0.45856700  1
  F  F90  1  0.15825100  0.13779200  0.25000000  1
  F  F91  1  0.06185000  0.82754200  0.95182200  1
