# generated using pymatgen
data_CuSb2BrO3
_symmetry_space_group_name_H-M   'P 1'
_cell_length_a   8.04508617
_cell_length_b   8.04508617
_cell_length_c   19.34685500
_cell_angle_alpha   90.00000000
_cell_angle_beta   90.00000000
_cell_angle_gamma   120.17214517
_symmetry_Int_Tables_number   1
_chemical_formula_structural   CuSb2BrO3
_chemical_formula_sum   'Cu8 Sb16 Br8 O24'
_cell_volume   1082.54620932
_cell_formula_units_Z   8
loop_
 _symmetry_equiv_pos_site_id
 _symmetry_equiv_pos_as_xyz
  1  'x, y, z'
loop_
 _atom_site_type_symbol
 _atom_site_label
 _atom_site_symmetry_multiplicity
 _atom_site_fract_x
 _atom_site_fract_y
 _atom_site_fract_z
 _atom_site_occupancy
  Cu  Cu0  1  0.76731500  0.77388000  0.28292100  1
  Cu  Cu1  1  0.22612000  0.23268500  0.28292100  1
  Cu  Cu2  1  0.77388000  0.76731500  0.78292100  1
  Cu  Cu3  1  0.25586900  0.74413100  0.21511900  1
  Cu  Cu4  1  0.75565800  0.24434200  0.29013500  1
  Cu  Cu5  1  0.24434200  0.75565800  0.79013500  1
  Cu  Cu6  1  0.23268500  0.22612000  0.78292100  1
  Cu  Cu7  1  0.74413100  0.25586900  0.71511900  1
  Sb  Sb8  1  0.43242900  0.56757100  0.58171800  1
  Sb  Sb9  1  0.61169800  0.92736300  0.42339800  1
  Sb  Sb10  1  0.38830200  0.07263700  0.92339800  1
  Sb  Sb11  1  0.07997000  0.92003000  0.07827100  1
  Sb  Sb12  1  0.07263700  0.38830200  0.42339800  1
  Sb  Sb13  1  0.41768400  0.58231600  0.92570900  1
  Sb  Sb14  1  0.11369100  0.42809300  0.08114400  1
  Sb  Sb15  1  0.58231600  0.41768400  0.42570900  1
  Sb  Sb16  1  0.56757100  0.43242900  0.08171800  1
  Sb  Sb17  1  0.92003000  0.07997000  0.57827100  1
  Sb  Sb18  1  0.92736300  0.61169800  0.92339800  1
  Sb  Sb19  1  0.07091000  0.92909000  0.42182000  1
  Sb  Sb20  1  0.92909000  0.07091000  0.92182000  1
  Sb  Sb21  1  0.42809300  0.11369100  0.58114400  1
  Sb  Sb22  1  0.57190700  0.88630900  0.08114400  1
  Sb  Sb23  1  0.88630900  0.57190700  0.58114400  1
  Br  Br24  1  0.08847700  0.91152300  0.72747600  1
  Br  Br25  1  0.58808400  0.41191600  0.77845800  1
  Br  Br26  1  0.41562700  0.08355800  0.25215300  1
  Br  Br27  1  0.58437300  0.91644200  0.75215300  1
  Br  Br28  1  0.91644200  0.58437300  0.25215300  1
  Br  Br29  1  0.08355800  0.41562700  0.75215300  1
  Br  Br30  1  0.91152300  0.08847700  0.22747600  1
  Br  Br31  1  0.41191600  0.58808400  0.27845800  1
  O  O32  1  0.04424700  0.95575300  0.52363700  1
  O  O33  1  0.20673500  0.16280800  0.89434700  1
  O  O34  1  0.29456300  0.70543700  0.11038200  1
  O  O35  1  0.54080300  0.83555500  0.97902600  1
  O  O36  1  0.20374800  0.79625200  0.89405400  1
  O  O37  1  0.45919700  0.16444500  0.47902600  1
  O  O38  1  0.16444500  0.45919700  0.97902600  1
  O  O39  1  0.66441400  0.71005600  0.10497800  1
  O  O40  1  0.04209500  0.33124700  0.52394400  1
  O  O41  1  0.66875300  0.95790500  0.52394400  1
  O  O42  1  0.79625200  0.20374800  0.39405400  1
  O  O43  1  0.70543700  0.29456300  0.61038200  1
  O  O44  1  0.71005600  0.66441400  0.60497800  1
  O  O45  1  0.79326500  0.83719200  0.39434700  1
  O  O46  1  0.28994400  0.33558600  0.10497800  1
  O  O47  1  0.33558600  0.28994400  0.60497800  1
  O  O48  1  0.95575300  0.04424700  0.02363700  1
  O  O49  1  0.54356300  0.45643700  0.97835300  1
  O  O50  1  0.95790500  0.66875300  0.02394400  1
  O  O51  1  0.83555500  0.54080300  0.47902600  1
  O  O52  1  0.33124700  0.04209500  0.02394400  1
  O  O53  1  0.45643700  0.54356300  0.47835300  1
  O  O54  1  0.83719200  0.79326500  0.89434700  1
  O  O55  1  0.16280800  0.20673500  0.39434700  1
