# generated using pymatgen
data_Gd(PO3)3
_symmetry_space_group_name_H-M   'P 1'
_cell_length_a   7.03005360
_cell_length_b   7.03005360
_cell_length_c   7.28627500
_cell_angle_alpha   90.00000000
_cell_angle_beta   90.00000000
_cell_angle_gamma   105.15698092
_symmetry_Int_Tables_number   1
_chemical_formula_structural   Gd(PO3)3
_chemical_formula_sum   'Gd2 P6 O18'
_cell_volume   347.57299761
_cell_formula_units_Z   2
loop_
 _symmetry_equiv_pos_site_id
 _symmetry_equiv_pos_as_xyz
  1  'x, y, z'
loop_
 _atom_site_type_symbol
 _atom_site_label
 _atom_site_symmetry_multiplicity
 _atom_site_fract_x
 _atom_site_fract_y
 _atom_site_fract_z
 _atom_site_occupancy
  Gd  Gd0  1  0.12592100  0.12592100  0.50000000  1
  Gd  Gd1  1  0.87407900  0.87407900  0.00000000  1
  P  P2  1  0.25043000  0.25043000  0.00000000  1
  P  P3  1  0.31167100  0.66534400  0.45631800  1
  P  P4  1  0.68832900  0.33465600  0.95631800  1
  P  P5  1  0.66534400  0.31167100  0.54368200  1
  P  P6  1  0.33465600  0.68832900  0.04368200  1
  P  P7  1  0.74957000  0.74957000  0.50000000  1
  O  O8  1  0.37279000  0.62721000  0.25000000  1
  O  O9  1  0.52813300  0.74783100  0.54665800  1
  O  O10  1  0.46885200  0.21454200  0.46208300  1
  O  O11  1  0.62721000  0.37279000  0.75000000  1
  O  O12  1  0.82715100  0.21118500  0.53337100  1
  O  O13  1  0.86767000  0.82805800  0.67066700  1
  O  O14  1  0.47186700  0.25216900  0.04665800  1
  O  O15  1  0.74783100  0.52813300  0.45334200  1
  O  O16  1  0.78545800  0.53114800  0.03791700  1
  O  O17  1  0.13233000  0.17194200  0.17066700  1
  O  O18  1  0.21454200  0.46885200  0.53791700  1
  O  O19  1  0.17284900  0.78881500  0.03337100  1
  O  O20  1  0.25216900  0.47186700  0.95334200  1
  O  O21  1  0.78881500  0.17284900  0.96662900  1
  O  O22  1  0.17194200  0.13233000  0.82933300  1
  O  O23  1  0.53114800  0.78545800  0.96208300  1
  O  O24  1  0.21118500  0.82715100  0.46662900  1
  O  O25  1  0.82805800  0.86767000  0.32933300  1
