# generated using pymatgen
data_ZrS4(N2Cl3)2
_symmetry_space_group_name_H-M   'P 1'
_cell_length_a   7.21936300
_cell_length_b   11.67949774
_cell_length_c   18.90276498
_cell_angle_alpha   102.78434750
_cell_angle_beta   98.62278857
_cell_angle_gamma   92.16053803
_symmetry_Int_Tables_number   1
_chemical_formula_structural   ZrS4(N2Cl3)2
_chemical_formula_sum   'Zr4 S16 N16 Cl24'
_cell_volume   1532.61494303
_cell_formula_units_Z   4
loop_
 _symmetry_equiv_pos_site_id
 _symmetry_equiv_pos_as_xyz
  1  'x, y, z'
loop_
 _atom_site_type_symbol
 _atom_site_label
 _atom_site_symmetry_multiplicity
 _atom_site_fract_x
 _atom_site_fract_y
 _atom_site_fract_z
 _atom_site_occupancy
  Zr  Zr0  1  0.53029500  0.56555100  0.41112800  1
  Zr  Zr1  1  0.46970500  0.43444900  0.58887200  1
  Zr  Zr2  1  0.97251200  0.94223000  0.09198000  1
  Zr  Zr3  1  0.02748800  0.05777000  0.90802100  1
  S  S4  1  0.83760700  0.33909800  0.10295300  1
  S  S5  1  0.08314600  0.79111500  0.66072800  1
  S  S6  1  0.36770800  0.05613000  0.60421900  1
  S  S7  1  0.01169600  0.04499600  0.66537000  1
  S  S8  1  0.16239300  0.66090200  0.89704700  1
  S  S9  1  0.63229200  0.94387000  0.39578100  1
  S  S10  1  0.48061700  0.38919300  0.16181300  1
  S  S11  1  0.01116500  0.42131000  0.81109200  1
  S  S12  1  0.98883500  0.57869000  0.18890800  1
  S  S13  1  0.51938300  0.61080700  0.83818700  1
  S  S14  1  0.58568400  0.64340900  0.16519100  1
  S  S15  1  0.98830400  0.95500400  0.33463000  1
  S  S16  1  0.41431600  0.35659100  0.83480900  1
  S  S17  1  0.49591500  0.87337600  0.68504400  1
  S  S18  1  0.91685400  0.20888500  0.33927200  1
  S  S19  1  0.50408500  0.12662400  0.31495600  1
  N  N20  1  0.98519300  0.91075600  0.66023600  1
  N  N21  1  0.19224300  0.09917500  0.64282200  1
  N  N22  1  0.01480700  0.08924400  0.33976400  1
  N  N23  1  0.47202200  0.52168900  0.16063700  1
  N  N24  1  0.01603400  0.55781900  0.84670300  1
  N  N25  1  0.98396600  0.44218100  0.15329700  1
  N  N26  1  0.34315500  0.67844300  0.85982500  1
  N  N27  1  0.65684500  0.32155700  0.14017500  1
  N  N28  1  0.49595800  0.01304600  0.34788400  1
  N  N29  1  0.80716800  0.64445500  0.18121400  1
  N  N30  1  0.50404200  0.98695400  0.65211600  1
  N  N31  1  0.30497600  0.80243200  0.67643500  1
  N  N32  1  0.19283200  0.35554500  0.81878600  1
  N  N33  1  0.52797800  0.47831100  0.83936300  1
  N  N34  1  0.80775700  0.90082500  0.35717800  1
  N  N35  1  0.69502400  0.19756800  0.32356500  1
  Cl  Cl36  1  0.83332200  0.75434900  0.01177800  1
  Cl  Cl37  1  0.69309500  0.42757000  0.49123000  1
  Cl  Cl38  1  0.80802700  0.15449300  0.83471400  1
  Cl  Cl39  1  0.65052000  0.30548900  0.65271400  1
  Cl  Cl40  1  0.30690500  0.57243000  0.50877000  1
  Cl  Cl41  1  0.71877700  0.95395700  0.16416900  1
  Cl  Cl42  1  0.32582800  0.39483300  0.33479600  1
  Cl  Cl43  1  0.76001300  0.08586300  0.48946300  1
  Cl  Cl44  1  0.89009200  0.86204400  0.83738400  1
  Cl  Cl45  1  0.22691000  0.47601900  0.66524000  1
  Cl  Cl46  1  0.28399000  0.26522200  0.50479600  1
  Cl  Cl47  1  0.27653400  0.58046600  0.98684900  1
  Cl  Cl48  1  0.28122300  0.04604300  0.83583100  1
  Cl  Cl49  1  0.10990800  0.13795600  0.16261600  1
  Cl  Cl50  1  0.78413800  0.04888700  0.99791400  1
  Cl  Cl51  1  0.16667800  0.24565100  0.98822200  1
  Cl  Cl52  1  0.21586200  0.95111300  0.00208600  1
  Cl  Cl53  1  0.23998700  0.91413700  0.51053700  1
  Cl  Cl54  1  0.19197300  0.84550700  0.16528600  1
  Cl  Cl55  1  0.71601000  0.73477800  0.49520400  1
  Cl  Cl56  1  0.67417200  0.60516700  0.66520400  1
  Cl  Cl57  1  0.72346600  0.41953400  0.01315100  1
  Cl  Cl58  1  0.34948000  0.69451100  0.34728600  1
  Cl  Cl59  1  0.77309000  0.52398100  0.33476000  1
