# generated using pymatgen
data_K3VH2(CO5)2
_symmetry_space_group_name_H-M   'P 1'
_cell_length_a   7.94824200
_cell_length_b   7.27015500
_cell_length_c   17.78189307
_cell_angle_alpha   81.23396586
_cell_angle_beta   90.00000000
_cell_angle_gamma   90.00000000
_symmetry_Int_Tables_number   1
_chemical_formula_structural   K3VH2(CO5)2
_chemical_formula_sum   'K12 V4 H8 C8 O40'
_cell_volume   1015.52319353
_cell_formula_units_Z   4
loop_
 _symmetry_equiv_pos_site_id
 _symmetry_equiv_pos_as_xyz
  1  'x, y, z'
loop_
 _atom_site_type_symbol
 _atom_site_label
 _atom_site_symmetry_multiplicity
 _atom_site_fract_x
 _atom_site_fract_y
 _atom_site_fract_z
 _atom_site_occupancy
  K  K0  1  0.47576800  0.66403800  0.34437700  1
  K  K1  1  0.52423200  0.33596200  0.65562300  1
  K  K2  1  0.44952500  0.20797400  0.07716500  1
  K  K3  1  0.67994500  0.85637900  0.70253900  1
  K  K4  1  0.32005500  0.14362100  0.29746100  1
  K  K5  1  0.97576800  0.33596200  0.15562300  1
  K  K6  1  0.05047500  0.20797400  0.57716500  1
  K  K7  1  0.02423200  0.66403800  0.84437700  1
  K  K8  1  0.17994500  0.14362100  0.79746100  1
  K  K9  1  0.82005500  0.85637900  0.20253900  1
  K  K10  1  0.94952500  0.79202600  0.42283500  1
  K  K11  1  0.55047500  0.79202600  0.92283500  1
  V  V12  1  0.21841900  0.75152100  0.66434200  1
  V  V13  1  0.71841900  0.24847900  0.83565800  1
  V  V14  1  0.78158100  0.24847900  0.33565800  1
  V  V15  1  0.28158100  0.75152100  0.16434200  1
  H  H16  1  0.74666600  0.60764300  0.05204700  1
  H  H17  1  0.75333400  0.60764300  0.55204700  1
  H  H18  1  0.90833100  0.59106800  0.60995400  1
  H  H19  1  0.25333400  0.39235700  0.94795300  1
  H  H20  1  0.59166900  0.59106800  0.10995400  1
  H  H21  1  0.09166900  0.40893200  0.39004600  1
  H  H22  1  0.40833100  0.40893200  0.89004600  1
  H  H23  1  0.24666600  0.39235700  0.44795300  1
  C  C24  1  0.97226300  0.24818600  0.96433100  1
  C  C25  1  0.02773700  0.75181400  0.03566900  1
  C  C26  1  0.30649800  0.84025900  0.50050600  1
  C  C27  1  0.52773700  0.24818600  0.46433100  1
  C  C28  1  0.19350200  0.84025900  0.00050600  1
  C  C29  1  0.69350200  0.15974100  0.49949400  1
  C  C30  1  0.47226300  0.75181400  0.53566900  1
  C  C31  1  0.80649800  0.15974100  0.99949400  1
  O  O32  1  0.03055100  0.70805400  0.10794000  1
  O  O33  1  0.83930800  0.52141900  0.57837600  1
  O  O34  1  0.33726400  0.84510600  0.74335300  1
  O  O35  1  0.68669200  0.14806900  0.95110700  1
  O  O36  1  0.68614300  0.50056900  0.85699900  1
  O  O37  1  0.29321500  0.89165300  0.43065700  1
  O  O38  1  0.33930800  0.47858100  0.92162400  1
  O  O39  1  0.17280800  0.98857200  0.17572400  1
  O  O40  1  0.79321500  0.10834700  0.06934300  1
  O  O41  1  0.18669200  0.85193100  0.54889300  1
  O  O42  1  0.75561600  0.49043700  0.27958400  1
  O  O43  1  0.25561600  0.50956300  0.22041600  1
  O  O44  1  0.32719200  0.98857200  0.67572400  1
  O  O45  1  0.48077500  0.80609400  0.18201000  1
  O  O46  1  0.51922500  0.19390600  0.81799000  1
  O  O47  1  0.81385700  0.50056900  0.35699900  1
  O  O48  1  0.24438400  0.50956300  0.72041600  1
  O  O49  1  0.20678500  0.89165300  0.93065700  1
  O  O50  1  0.31385700  0.49943100  0.14300100  1
  O  O51  1  0.66069200  0.52141900  0.07837600  1
  O  O52  1  0.18614300  0.49943100  0.64300100  1
  O  O53  1  0.09369400  0.27264400  0.00717100  1
  O  O54  1  0.74438400  0.49043700  0.77958400  1
  O  O55  1  0.98077500  0.19390600  0.31799000  1
  O  O56  1  0.53055100  0.29194600  0.39206000  1
  O  O57  1  0.16273600  0.84510600  0.24335300  1
  O  O58  1  0.66273600  0.15489400  0.25664700  1
  O  O59  1  0.59369400  0.72735600  0.49282900  1
  O  O60  1  0.31330800  0.85193100  0.04889300  1
  O  O61  1  0.40630600  0.27264400  0.50717100  1
  O  O62  1  0.82719200  0.01142800  0.82427600  1
  O  O63  1  0.90630600  0.72735600  0.99282900  1
  O  O64  1  0.83726400  0.15489400  0.75664700  1
  O  O65  1  0.81330800  0.14806900  0.45110700  1
  O  O66  1  0.67280800  0.01142800  0.32427600  1
  O  O67  1  0.46944900  0.70805400  0.60794000  1
  O  O68  1  0.96944900  0.29194600  0.89206000  1
  O  O69  1  0.01922500  0.80609400  0.68201000  1
  O  O70  1  0.16069200  0.47858100  0.42162400  1
  O  O71  1  0.70678500  0.10834700  0.56934300  1
