# generated using pymatgen
data_K4WS3O14
_symmetry_space_group_name_H-M   'P 1'
_cell_length_a   14.28317000
_cell_length_b   9.65999800
_cell_length_c   14.08842640
_cell_angle_alpha   47.93946875
_cell_angle_beta   90.00000000
_cell_angle_gamma   90.00000000
_symmetry_Int_Tables_number   1
_chemical_formula_structural   K4WS3O14
_chemical_formula_sum   'K16 W4 S12 O56'
_cell_volume   1443.19171092
_cell_formula_units_Z   4
loop_
 _symmetry_equiv_pos_site_id
 _symmetry_equiv_pos_as_xyz
  1  'x, y, z'
loop_
 _atom_site_type_symbol
 _atom_site_label
 _atom_site_symmetry_multiplicity
 _atom_site_fract_x
 _atom_site_fract_y
 _atom_site_fract_z
 _atom_site_occupancy
  K  K0  1  0.49468400  0.69385800  0.79986600  1
  K  K1  1  0.32593100  0.98694000  0.83453600  1
  K  K2  1  0.21973500  0.47665100  0.77126800  1
  K  K3  1  0.71973500  0.52334900  0.72873200  1
  K  K4  1  0.45860800  0.73370000  0.47467400  1
  K  K5  1  0.99468400  0.30614200  0.70013400  1
  K  K6  1  0.95860800  0.26630000  0.02532600  1
  K  K7  1  0.78026500  0.52334900  0.22873200  1
  K  K8  1  0.04139200  0.73370000  0.97467400  1
  K  K9  1  0.54139200  0.26630000  0.52532600  1
  K  K10  1  0.28026500  0.47665100  0.27126800  1
  K  K11  1  0.82593100  0.01306000  0.66546400  1
  K  K12  1  0.17406900  0.98694000  0.33453600  1
  K  K13  1  0.50531600  0.30614200  0.20013400  1
  K  K14  1  0.00531600  0.69385800  0.29986600  1
  K  K15  1  0.67406900  0.01306000  0.16546400  1
  W  W16  1  0.12211900  0.08255100  0.58379700  1
  W  W17  1  0.37788100  0.08255100  0.08379700  1
  W  W18  1  0.62211900  0.91744900  0.91620300  1
  W  W19  1  0.87788100  0.91744900  0.41620300  1
  S  S20  1  0.15581700  0.97858500  0.04713500  1
  S  S21  1  0.49726700  0.29266600  0.79361800  1
  S  S22  1  0.78050200  0.54482700  0.47798200  1
  S  S23  1  0.65581700  0.02141500  0.45286500  1
  S  S24  1  0.00273300  0.29266600  0.29361800  1
  S  S25  1  0.99726700  0.70733400  0.70638200  1
  S  S26  1  0.28050200  0.45517300  0.02201800  1
  S  S27  1  0.84418300  0.02141500  0.95286500  1
  S  S28  1  0.21949800  0.45517300  0.52201800  1
  S  S29  1  0.50273300  0.70733400  0.20638200  1
  S  S30  1  0.34418300  0.97858500  0.54713500  1
  S  S31  1  0.71949800  0.54482700  0.97798200  1
  O  O32  1  0.30409200  0.53954300  0.44395600  1
  O  O33  1  0.49278400  0.13875200  0.09608900  1
  O  O34  1  0.58604000  0.78657900  0.11849900  1
  O  O35  1  0.73972100  0.96002500  0.98614700  1
  O  O36  1  0.60732000  0.91122200  0.57662000  1
  O  O37  1  0.38042900  0.01708900  0.62571100  1
  O  O38  1  0.65388800  0.22374600  0.38178900  1
  O  O39  1  0.14430900  0.58952600  0.48141500  1
  O  O40  1  0.11957100  0.01708900  0.12571100  1
  O  O41  1  0.80409200  0.46045700  0.05604400  1
  O  O42  1  0.83359100  0.02683800  0.26382900  1
  O  O43  1  0.23603000  0.32826300  0.66004400  1
  O  O44  1  0.47600900  0.30059900  0.68886500  1
  O  O45  1  0.26027900  0.03997500  0.01385300  1
  O  O46  1  0.73603000  0.67173700  0.83995600  1
  O  O47  1  0.69590800  0.46045700  0.55604400  1
  O  O48  1  0.99278400  0.86124800  0.40391100  1
  O  O49  1  0.02569100  0.52752400  0.74926100  1
  O  O50  1  0.47430900  0.52752400  0.24926100  1
  O  O51  1  0.15388800  0.77625400  0.11821100  1
  O  O52  1  0.85569100  0.41047400  0.51858500  1
  O  O53  1  0.58104600  0.15906900  0.87323700  1
  O  O54  1  0.52399100  0.69940100  0.31113500  1
  O  O55  1  0.76397000  0.67173700  0.33995600  1
  O  O56  1  0.50721600  0.86124800  0.90391100  1
  O  O57  1  0.89268000  0.91122200  0.07662000  1
  O  O58  1  0.52569100  0.47247600  0.75073900  1
  O  O59  1  0.91396000  0.78657900  0.61849900  1
  O  O60  1  0.67864300  0.66672400  0.00839600  1
  O  O61  1  0.02399100  0.30059900  0.18886500  1
  O  O62  1  0.76027900  0.96002500  0.48614700  1
  O  O63  1  0.32135700  0.33327600  0.99160400  1
  O  O64  1  0.82135700  0.66672400  0.50839600  1
  O  O65  1  0.10732000  0.08877800  0.92338000  1
  O  O66  1  0.39268000  0.08877800  0.42338000  1
  O  O67  1  0.66640900  0.02683800  0.76382900  1
  O  O68  1  0.97430900  0.47247600  0.25073900  1
  O  O69  1  0.16640900  0.97316200  0.73617100  1
  O  O70  1  0.41895400  0.84093100  0.12676300  1
  O  O71  1  0.33359100  0.97316200  0.23617100  1
  O  O72  1  0.35569100  0.58952600  0.98141500  1
  O  O73  1  0.00721600  0.13875200  0.59608900  1
  O  O74  1  0.61957100  0.98291100  0.37428900  1
  O  O75  1  0.23972100  0.03997500  0.51385300  1
  O  O76  1  0.41396000  0.21342100  0.88150100  1
  O  O77  1  0.19590800  0.53954300  0.94395600  1
  O  O78  1  0.91895400  0.15906900  0.37323700  1
  O  O79  1  0.84611200  0.22374600  0.88178900  1
  O  O80  1  0.26397000  0.32826300  0.16004400  1
  O  O81  1  0.34611200  0.77625400  0.61821100  1
  O  O82  1  0.08104600  0.84093100  0.62676300  1
  O  O83  1  0.97600900  0.69940100  0.81113500  1
  O  O84  1  0.08604000  0.21342100  0.38150100  1
  O  O85  1  0.17864300  0.33327600  0.49160400  1
  O  O86  1  0.64430900  0.41047400  0.01858500  1
  O  O87  1  0.88042900  0.98291100  0.87428900  1
