# generated using pymatgen
data_V2Ni(TeO5)2
_symmetry_space_group_name_H-M   'P 1'
_cell_length_a   6.42762033
_cell_length_b   6.67209280
_cell_length_c   9.51977898
_cell_angle_alpha   71.70279842
_cell_angle_beta   77.67521358
_cell_angle_gamma   96.96117547
_symmetry_Int_Tables_number   1
_chemical_formula_structural   V2Ni(TeO5)2
_chemical_formula_sum   'V4 Ni2 Te4 O20'
_cell_volume   370.80986073
_cell_formula_units_Z   2
loop_
 _symmetry_equiv_pos_site_id
 _symmetry_equiv_pos_as_xyz
  1  'x, y, z'
loop_
 _atom_site_type_symbol
 _atom_site_label
 _atom_site_symmetry_multiplicity
 _atom_site_fract_x
 _atom_site_fract_y
 _atom_site_fract_z
 _atom_site_occupancy
  V  V0  1  0.61129200  0.49008300  0.13690100  1
  V  V1  1  0.38870900  0.50991300  0.86310500  1
  V  V2  1  0.61115300  0.98997800  0.63695100  1
  V  V3  1  0.38884900  0.01001900  0.36304700  1
  Ni  Ni4  1  0.50000600  0.49998200  0.50004000  1
  Ni  Ni5  1  0.49997100  0.00007700  0.99995800  1
  Te  Te6  1  0.90594400  0.96881000  0.25069100  1
  Te  Te7  1  0.90593700  0.46891800  0.75062300  1
  Te  Te8  1  0.09405900  0.03118600  0.74930700  1
  Te  Te9  1  0.09406600  0.53107700  0.24937500  1
  O  O10  1  0.53012300  0.12708500  0.16720200  1
  O  O11  1  0.53011300  0.62696900  0.66728400  1
  O  O12  1  0.46987700  0.87290900  0.83279600  1
  O  O13  1  0.46989200  0.37303100  0.33272100  1
  O  O14  1  0.34618500  0.74211600  0.39561300  1
  O  O15  1  0.34591700  0.24202800  0.89561300  1
  O  O16  1  0.65381700  0.25788000  0.60438800  1
  O  O17  1  0.65408300  0.75796700  0.10438500  1
  O  O18  1  0.16646300  0.33474800  0.62825000  1
  O  O19  1  0.16645200  0.83461500  0.12834100  1
  O  O20  1  0.83353900  0.66524900  0.37175100  1
  O  O21  1  0.83354600  0.16538200  0.87165800  1
  O  O22  1  0.32460200  0.99017000  0.58484500  1
  O  O23  1  0.32461400  0.49019700  0.08484000  1
  O  O24  1  0.67540000  0.00982500  0.41515600  1
  O  O25  1  0.67538700  0.50979700  0.91515800  1
  O  O26  1  0.88436400  0.93319000  0.65485900  1
  O  O27  1  0.88441200  0.43310500  0.15487700  1
  O  O28  1  0.11563700  0.06680600  0.34514000  1
  O  O29  1  0.11559200  0.56688700  0.84512200  1
