# generated using pymatgen
data_Pr3Si2Cl3O7
_symmetry_space_group_name_H-M   'P 1'
_cell_length_a   12.21945400
_cell_length_b   5.36168800
_cell_length_c   7.91486292
_cell_angle_alpha   71.21646929
_cell_angle_beta   90.00000000
_cell_angle_gamma   90.00000000
_symmetry_Int_Tables_number   1
_chemical_formula_structural   Pr3Si2Cl3O7
_chemical_formula_sum   'Pr6 Si4 Cl6 O14'
_cell_volume   490.93988240
_cell_formula_units_Z   2
loop_
 _symmetry_equiv_pos_site_id
 _symmetry_equiv_pos_as_xyz
  1  'x, y, z'
loop_
 _atom_site_type_symbol
 _atom_site_label
 _atom_site_symmetry_multiplicity
 _atom_site_fract_x
 _atom_site_fract_y
 _atom_site_fract_z
 _atom_site_occupancy
  Pr  Pr0  1  0.10246300  0.70576100  0.46937700  1
  Pr  Pr1  1  0.12413700  0.96769600  0.92066100  1
  Pr  Pr2  1  0.62413700  0.03230400  0.07933900  1
  Pr  Pr3  1  0.37819500  0.55306000  0.79725000  1
  Pr  Pr4  1  0.87819500  0.44694000  0.20275000  1
  Pr  Pr5  1  0.60246300  0.29423900  0.53062300  1
  Si  Si6  1  0.17632200  0.38694600  0.18254100  1
  Si  Si7  1  0.78871800  0.78836200  0.43562500  1
  Si  Si8  1  0.67632200  0.61305400  0.81745900  1
  Si  Si9  1  0.28871800  0.21163800  0.56437500  1
  Cl  Cl10  1  0.50524200  0.84487300  0.44283000  1
  Cl  Cl11  1  0.50885900  0.45729900  0.16760200  1
  Cl  Cl12  1  0.88208600  0.98790100  0.99191100  1
  Cl  Cl13  1  0.00524200  0.15512700  0.55717000  1
  Cl  Cl14  1  0.38208600  0.01209900  0.00808900  1
  Cl  Cl15  1  0.00885900  0.54270100  0.83239800  1
  O  O16  1  0.91509700  0.72688200  0.40240600  1
  O  O17  1  0.57292900  0.41983600  0.80343200  1
  O  O18  1  0.25214400  0.90175300  0.62146800  1
  O  O19  1  0.63941800  0.91014400  0.80843800  1
  O  O20  1  0.73795100  0.44017700  0.99915800  1
  O  O21  1  0.71994300  0.65201700  0.30659400  1
  O  O22  1  0.21994300  0.34798300  0.69340600  1
  O  O23  1  0.74847600  0.61655400  0.63886700  1
  O  O24  1  0.75214400  0.09824700  0.37853200  1
  O  O25  1  0.24847600  0.38344600  0.36113300  1
  O  O26  1  0.07292900  0.58016400  0.19656800  1
  O  O27  1  0.13941800  0.08985600  0.19156200  1
  O  O28  1  0.23795100  0.55982300  0.00084200  1
  O  O29  1  0.41509700  0.27311800  0.59759400  1
