# generated using pymatgen
data_H9C3S2BrN2
_symmetry_space_group_name_H-M   'P 1'
_cell_length_a   5.79470300
_cell_length_b   8.43731141
_cell_length_c   9.30985149
_cell_angle_alpha   69.86951988
_cell_angle_beta   82.27764531
_cell_angle_gamma   79.05160907
_symmetry_Int_Tables_number   1
_chemical_formula_structural   H9C3S2BrN2
_chemical_formula_sum   'H18 C6 S4 Br2 N4'
_cell_volume   418.41250996
_cell_formula_units_Z   2
loop_
 _symmetry_equiv_pos_site_id
 _symmetry_equiv_pos_as_xyz
  1  'x, y, z'
loop_
 _atom_site_type_symbol
 _atom_site_label
 _atom_site_symmetry_multiplicity
 _atom_site_fract_x
 _atom_site_fract_y
 _atom_site_fract_z
 _atom_site_occupancy
  H  H0  1  0.21140400  0.86249700  0.78806800  1
  H  H1  1  0.02691100  0.30775600  0.92980400  1
  H  H2  1  0.61128500  0.65986600  0.51309500  1
  H  H3  1  0.53546100  0.05220000  0.33036300  1
  H  H4  1  0.97308900  0.69224400  0.07019600  1
  H  H5  1  0.23432300  0.21628400  0.80428700  1
  H  H6  1  0.76567700  0.78371600  0.19571300  1
  H  H7  1  0.15296300  0.27661000  0.41818000  1
  H  H8  1  0.38871500  0.34013400  0.48690500  1
  H  H9  1  0.46453900  0.94780000  0.66963700  1
  H  H10  1  0.18623100  0.50165000  0.36003000  1
  H  H11  1  0.21166200  0.10360700  0.00985300  1
  H  H12  1  0.84703700  0.72339000  0.58182000  1
  H  H13  1  0.78859600  0.13750300  0.21193200  1
  H  H14  1  0.78833800  0.89639300  0.99014700  1
  H  H15  1  0.26836700  0.85187400  0.59529100  1
  H  H16  1  0.73163300  0.14812600  0.40470900  1
  H  H17  1  0.81376900  0.49835000  0.63997000  1
  C  C18  1  0.65198600  0.14979900  0.30279300  1
  C  C19  1  0.72370100  0.63136700  0.60816400  1
  C  C20  1  0.19743600  0.22873000  0.91864300  1
  C  C21  1  0.34801400  0.85020100  0.69720700  1
  C  C22  1  0.80256400  0.77127000  0.08135700  1
  C  C23  1  0.27629900  0.36863300  0.39183600  1
  S  S24  1  0.58224100  0.66572600  0.05332400  1
  S  S25  1  0.52881400  0.64998500  0.76735600  1
  S  S26  1  0.41775900  0.33427400  0.94667600  1
  S  S27  1  0.47118600  0.35001500  0.23264400  1
  Br  Br28  1  0.23089100  0.84785000  0.31576800  1
  Br  Br29  1  0.76910900  0.15215000  0.68423200  1
  N  N30  1  0.34154400  0.52204800  0.81498900  1
  N  N31  1  0.65845600  0.47795200  0.18501100  1
  N  N32  1  0.70534800  0.64007800  0.88704600  1
  N  N33  1  0.29465200  0.35992200  0.11295400  1
