# generated using pymatgen
data_SrAg2(IO2)4
_symmetry_space_group_name_H-M   'P 1'
_cell_length_a   7.57456815
_cell_length_b   7.57456815
_cell_length_c   7.57456815
_cell_angle_alpha   118.71473547
_cell_angle_beta   118.71473547
_cell_angle_gamma   92.24094305
_symmetry_Int_Tables_number   1
_chemical_formula_structural   SrAg2(IO2)4
_chemical_formula_sum   'Sr1 Ag2 I4 O8'
_cell_volume   313.00799744
_cell_formula_units_Z   1
loop_
 _symmetry_equiv_pos_site_id
 _symmetry_equiv_pos_as_xyz
  1  'x, y, z'
loop_
 _atom_site_type_symbol
 _atom_site_label
 _atom_site_symmetry_multiplicity
 _atom_site_fract_x
 _atom_site_fract_y
 _atom_site_fract_z
 _atom_site_occupancy
  Sr  Sr0  1  0.00000000  0.00000000  0.00000000  1
  Ag  Ag1  1  0.50000000  0.00000000  0.50000000  1
  Ag  Ag2  1  0.00000000  0.50000000  0.50000000  1
  I  I3  1  0.49250800  0.50749200  0.50000000  1
  I  I4  1  0.00749200  0.99250800  0.50000000  1
  I  I5  1  0.50749200  0.00749200  0.01498400  1
  I  I6  1  0.99250800  0.49250800  0.98501600  1
  O  O7  1  0.18713400  0.87753500  0.76462900  1
  O  O8  1  0.11290600  0.42250400  0.23537100  1
  O  O9  1  0.81286600  0.57749600  0.69040200  1
  O  O10  1  0.88709400  0.12246500  0.30959800  1
  O  O11  1  0.57749600  0.88709400  0.76462900  1
  O  O12  1  0.12246500  0.81286600  0.23537100  1
  O  O13  1  0.87753500  0.11290600  0.69040200  1
  O  O14  1  0.42250400  0.18713400  0.30959800  1
