# generated using pymatgen
data_Tl2TeSO10
_symmetry_space_group_name_H-M   'P 1'
_cell_length_a   6.48761500
_cell_length_b   9.84154000
_cell_length_c   13.08029174
_cell_angle_alpha   70.23482814
_cell_angle_beta   90.00000000
_cell_angle_gamma   90.00000000
_symmetry_Int_Tables_number   1
_chemical_formula_structural   Tl2TeSO10
_chemical_formula_sum   'Tl8 Te4 S4 O40'
_cell_volume   785.95034000
_cell_formula_units_Z   4
loop_
 _symmetry_equiv_pos_site_id
 _symmetry_equiv_pos_as_xyz
  1  'x, y, z'
loop_
 _atom_site_type_symbol
 _atom_site_label
 _atom_site_symmetry_multiplicity
 _atom_site_fract_x
 _atom_site_fract_y
 _atom_site_fract_z
 _atom_site_occupancy
  Tl  Tl0  1  0.52025100  0.64455000  0.57045600  1
  Tl  Tl1  1  0.02025100  0.85545000  0.42954400  1
  Tl  Tl2  1  0.47974900  0.35545000  0.42954400  1
  Tl  Tl3  1  0.97974900  0.14455000  0.57045600  1
  Tl  Tl4  1  0.09132100  0.60709600  0.08726500  1
  Tl  Tl5  1  0.59132100  0.89290400  0.91273500  1
  Tl  Tl6  1  0.90867900  0.39290400  0.91273500  1
  Tl  Tl7  1  0.40867900  0.10709600  0.08726500  1
  Te  Te8  1  0.50000000  0.50000000  0.00000000  1
  Te  Te9  1  0.00000000  0.00000000  0.00000000  1
  Te  Te10  1  0.50000000  0.00000000  0.50000000  1
  Te  Te11  1  0.00000000  0.50000000  0.50000000  1
  S  S12  1  0.98962100  0.74808900  0.75028800  1
  S  S13  1  0.48962100  0.75191100  0.24971200  1
  S  S14  1  0.01037900  0.25191100  0.24971200  1
  S  S15  1  0.51037900  0.24808900  0.75028800  1
  O  O16  1  0.76421300  0.75579000  0.74949100  1
  O  O17  1  0.26421300  0.74421000  0.25050900  1
  O  O18  1  0.23578700  0.24421000  0.25050900  1
  O  O19  1  0.73578700  0.25579000  0.74949100  1
  O  O20  1  0.57059200  0.89910900  0.23291600  1
  O  O21  1  0.07059200  0.60089100  0.76708400  1
  O  O22  1  0.42940800  0.10089100  0.76708400  1
  O  O23  1  0.92940800  0.39910900  0.23291600  1
  O  O24  1  0.57872100  0.70455900  0.16174300  1
  O  O25  1  0.07872100  0.79544100  0.83825700  1
  O  O26  1  0.42127900  0.29544100  0.83825700  1
  O  O27  1  0.92127900  0.20455900  0.16174300  1
  O  O28  1  0.05867900  0.85129500  0.63956700  1
  O  O29  1  0.55867900  0.64870500  0.36043300  1
  O  O30  1  0.94132100  0.14870500  0.36043300  1
  O  O31  1  0.44132100  0.35129500  0.63956700  1
  O  O32  1  0.29333400  0.96157000  0.99331700  1
  O  O33  1  0.79333400  0.53843000  0.00668300  1
  O  O34  1  0.70666600  0.03843000  0.00668300  1
  O  O35  1  0.20666600  0.46157000  0.99331700  1
  O  O36  1  0.42555700  0.70294600  0.93272800  1
  O  O37  1  0.92555700  0.79705400  0.06727200  1
  O  O38  1  0.57444300  0.29705400  0.06727200  1
  O  O39  1  0.07444300  0.20294600  0.93272800  1
  O  O40  1  0.09010600  0.01582900  0.14341300  1
  O  O41  1  0.59010600  0.48417100  0.85658700  1
  O  O42  1  0.90989400  0.98417100  0.85658700  1
  O  O43  1  0.40989400  0.51582900  0.14341300  1
  O  O44  1  0.41760300  0.83106000  0.62498700  1
  O  O45  1  0.91760300  0.66894000  0.37501300  1
  O  O46  1  0.58239700  0.16894000  0.37501300  1
  O  O47  1  0.08239700  0.33106000  0.62498700  1
  O  O48  1  0.20122900  0.63381200  0.52645600  1
  O  O49  1  0.70122900  0.86618800  0.47354400  1
  O  O50  1  0.79877100  0.36618800  0.47354400  1
  O  O51  1  0.29877100  0.13381200  0.52645600  1
  O  O52  1  0.31924400  0.94094300  0.40303200  1
  O  O53  1  0.81924400  0.55905700  0.59696800  1
  O  O54  1  0.68075600  0.05905700  0.59696800  1
  O  O55  1  0.18075600  0.44094300  0.40303200  1
