# generated using pymatgen
data_SiAg8(SO2)2
_symmetry_space_group_name_H-M   'P 1'
_cell_length_a   11.15739371
_cell_length_b   11.15739371
_cell_length_c   11.15739371
_cell_angle_alpha   141.02194862
_cell_angle_beta   141.02194862
_cell_angle_gamma   56.30485264
_symmetry_Int_Tables_number   1
_chemical_formula_structural   SiAg8(SO2)2
_chemical_formula_sum   'Si2 Ag16 S4 O8'
_cell_volume   545.23968795
_cell_formula_units_Z   2
loop_
 _symmetry_equiv_pos_site_id
 _symmetry_equiv_pos_as_xyz
  1  'x, y, z'
loop_
 _atom_site_type_symbol
 _atom_site_label
 _atom_site_symmetry_multiplicity
 _atom_site_fract_x
 _atom_site_fract_y
 _atom_site_fract_z
 _atom_site_occupancy
  Si  Si0  1  0.75000000  0.25000000  0.50000000  1
  Si  Si1  1  0.00000000  0.00000000  0.00000000  1
  Ag  Ag2  1  0.14726700  0.64726700  0.50000000  1
  Ag  Ag3  1  0.60075400  0.10075400  0.50000000  1
  Ag  Ag4  1  0.05136400  0.55136400  0.10272900  1
  Ag  Ag5  1  0.14924600  0.14924600  0.00000000  1
  Ag  Ag6  1  0.89924600  0.39924600  0.50000000  1
  Ag  Ag7  1  0.05136400  0.94863600  0.50000000  1
  Ag  Ag8  1  0.30136400  0.69863600  0.00000000  1
  Ag  Ag9  1  0.60273300  0.60273300  0.00000000  1
  Ag  Ag10  1  0.69863600  0.69863600  0.39727100  1
  Ag  Ag11  1  0.69863600  0.30136400  0.00000000  1
  Ag  Ag12  1  0.85075400  0.85075400  0.00000000  1
  Ag  Ag13  1  0.44863600  0.94863600  0.89727100  1
  Ag  Ag14  1  0.35273300  0.85273300  0.50000000  1
  Ag  Ag15  1  0.30136400  0.30136400  0.60272900  1
  Ag  Ag16  1  0.39726700  0.39726700  0.00000000  1
  Ag  Ag17  1  0.44863600  0.55136400  0.50000000  1
  S  S18  1  0.01826800  0.51826800  0.50000000  1
  S  S19  1  0.73173200  0.73173200  0.00000000  1
  S  S20  1  0.48173200  0.98173200  0.50000000  1
  S  S21  1  0.26826800  0.26826800  0.00000000  1
  O  O22  1  0.69545800  0.02568000  0.33022300  1
  O  O23  1  0.69545800  0.36523500  0.66977700  1
  O  O24  1  0.97432000  0.30454200  0.66977700  1
  O  O25  1  0.63476500  0.30454200  0.33022300  1
  O  O26  1  0.05454200  0.22432000  0.16977700  1
  O  O27  1  0.05454200  0.88476500  0.83022300  1
  O  O28  1  0.11523500  0.94545800  0.16977700  1
  O  O29  1  0.77568000  0.94545800  0.83022300  1
