# generated using pymatgen
data_Rb4Fe2O5
_symmetry_space_group_name_H-M   'P 1'
_cell_length_a   9.65728737
_cell_length_b   9.65728737
_cell_length_c   7.37065876
_cell_angle_alpha   84.98522711
_cell_angle_beta   84.98522711
_cell_angle_gamma   135.95678559
_symmetry_Int_Tables_number   1
_chemical_formula_structural   Rb4Fe2O5
_chemical_formula_sum   'Rb8 Fe4 O10'
_cell_volume   464.72111672
_cell_formula_units_Z   2
loop_
 _symmetry_equiv_pos_site_id
 _symmetry_equiv_pos_as_xyz
  1  'x, y, z'
loop_
 _atom_site_type_symbol
 _atom_site_label
 _atom_site_symmetry_multiplicity
 _atom_site_fract_x
 _atom_site_fract_y
 _atom_site_fract_z
 _atom_site_occupancy
  Rb  Rb0  1  0.46513000  0.53487000  0.25000000  1
  Rb  Rb1  1  0.53487000  0.46513000  0.75000000  1
  Rb  Rb2  1  0.02055000  0.97945000  0.25000000  1
  Rb  Rb3  1  0.97945000  0.02055000  0.75000000  1
  Rb  Rb4  1  0.46759700  0.82741400  0.88670000  1
  Rb  Rb5  1  0.17258600  0.53240300  0.61330000  1
  Rb  Rb6  1  0.82741400  0.46759700  0.38670000  1
  Rb  Rb7  1  0.53240300  0.17258600  0.11330000  1
  Fe  Fe8  1  0.30548900  0.99641800  0.59530700  1
  Fe  Fe9  1  0.99641800  0.30548900  0.09530700  1
  Fe  Fe10  1  0.69451100  0.00358200  0.40469300  1
  Fe  Fe11  1  0.00358200  0.69451100  0.90469300  1
  O  O12  1  0.20488300  0.35942200  0.95820700  1
  O  O13  1  0.27479500  0.97850800  0.86642700  1
  O  O14  1  0.35942200  0.20488300  0.45820700  1
  O  O15  1  0.72520500  0.02149200  0.13357300  1
  O  O16  1  0.97850800  0.27479500  0.36642700  1
  O  O17  1  0.00000000  0.50000000  0.00000000  1
  O  O18  1  0.64057800  0.79511700  0.54179300  1
  O  O19  1  0.02149200  0.72520500  0.63357300  1
  O  O20  1  0.79511700  0.64057800  0.04179300  1
  O  O21  1  0.50000000  0.00000000  0.50000000  1
