data_image0
_chemical_formula_structural       AlCeH6
_chemical_formula_sum              "Al1 Ce1 H6"
_cell_length_a       4.25393
_cell_length_b       4.25393
_cell_length_c       4.25393
_cell_angle_alpha    98.1937
_cell_angle_beta     98.1937
_cell_angle_gamma    98.1937

_space_group_name_H-M_alt    "P 1"
_space_group_IT_number       1

loop_
  _space_group_symop_operation_xyz
  'x, y, z'

loop_
  _atom_site_type_symbol
  _atom_site_label
  _atom_site_symmetry_multiplicity
  _atom_site_fract_x
  _atom_site_fract_y
  _atom_site_fract_z
  _atom_site_occupancy
  Al  Al1       1.0  0.00000  0.00000  0.00000  1.0000
  Ce  Ce1       1.0  0.50000  0.50000  0.50000  1.0000
  H   H1        1.0  0.70500  0.70500  0.06260  1.0000
  H   H2        1.0  0.93700  0.29500  0.29500  1.0000
  H   H3        1.0  0.29500  0.93700  0.29500  1.0000
  H   H4        1.0  0.70500  0.06260  0.70500  1.0000
  H   H5        1.0  0.06260  0.70500  0.70500  1.0000
  H   H6        1.0  0.29500  0.29500  0.93700  1.0000
