# generated using pymatgen
data_P2H17C4NO8
_symmetry_space_group_name_H-M   'P 1'
_cell_length_a   8.19781800
_cell_length_b   8.72042400
_cell_length_c   18.61462701
_cell_angle_alpha   65.21851203
_cell_angle_beta   90.00000000
_cell_angle_gamma   90.00000000
_symmetry_Int_Tables_number   1
_chemical_formula_structural   P2H17C4NO8
_chemical_formula_sum   'P8 H68 C16 N4 O32'
_cell_volume   1208.18774148
_cell_formula_units_Z   4
loop_
 _symmetry_equiv_pos_site_id
 _symmetry_equiv_pos_as_xyz
  1  'x, y, z'
loop_
 _atom_site_type_symbol
 _atom_site_label
 _atom_site_symmetry_multiplicity
 _atom_site_fract_x
 _atom_site_fract_y
 _atom_site_fract_z
 _atom_site_occupancy
  P  P0  1  0.43694900  0.30440900  0.46700200  1
  P  P1  1  0.31971600  0.73458700  0.65479900  1
  P  P2  1  0.68028400  0.26541300  0.34520100  1
  P  P3  1  0.81971600  0.26541300  0.84520100  1
  P  P4  1  0.06305100  0.30440900  0.96700200  1
  P  P5  1  0.56305100  0.69559100  0.53299800  1
  P  P6  1  0.18028400  0.73458700  0.15479900  1
  P  P7  1  0.93694900  0.69559100  0.03299800  1
  H  H8  1  0.53116300  0.35045300  0.66094600  1
  H  H9  1  0.91611300  0.95114100  0.21665300  1
  H  H10  1  0.00706500  0.06032000  0.36152200  1
  H  H11  1  0.93546600  0.42677300  0.68011200  1
  H  H12  1  0.76597700  0.10810900  0.20922900  1
  H  H13  1  0.73402300  0.10810900  0.70922900  1
  H  H14  1  0.43565800  0.93702000  0.96225400  1
  H  H15  1  0.70631200  0.91314800  0.61077900  1
  H  H16  1  0.10431800  0.48019200  0.41028600  1
  H  H17  1  0.96883700  0.35045300  0.16094600  1
  H  H18  1  0.50706500  0.93968000  0.13847800  1
  H  H19  1  0.03116300  0.64954700  0.83905400  1
  H  H20  1  0.82358700  0.11988500  0.08146800  1
  H  H21  1  0.23402300  0.89189100  0.79077100  1
  H  H22  1  0.17073000  0.42130400  0.12876800  1
  H  H23  1  0.70855900  0.89100400  0.24363600  1
  H  H24  1  0.41611300  0.04885900  0.28334700  1
  H  H25  1  0.32358700  0.88011500  0.41853200  1
  H  H26  1  0.99293500  0.93968000  0.63847800  1
  H  H27  1  0.26597700  0.89189100  0.29077100  1
  H  H28  1  0.58388700  0.95114100  0.71665300  1
  H  H29  1  0.32927000  0.42130400  0.62876800  1
  H  H30  1  0.67921900  0.51944400  0.71049400  1
  H  H31  1  0.17641300  0.88011500  0.91853200  1
  H  H32  1  0.49293500  0.06032000  0.86152200  1
  H  H33  1  0.32078100  0.48055600  0.28950600  1
  H  H34  1  0.93565800  0.06298000  0.53774600  1
  H  H35  1  0.40310700  0.62276200  0.11705800  1
  H  H36  1  0.35033900  0.54266200  0.47160600  1
  H  H37  1  0.06453400  0.57322700  0.31988800  1
  H  H38  1  0.64081400  0.98902300  0.43504900  1
  H  H39  1  0.67641300  0.11988500  0.58146800  1
  H  H40  1  0.46883700  0.64954700  0.33905400  1
  H  H41  1  0.60848100  0.61790400  0.27320100  1
  H  H42  1  0.43546600  0.57322700  0.81988800  1
  H  H43  1  0.90310700  0.37723800  0.38294200  1
  H  H44  1  0.79144100  0.89100400  0.74363600  1
  H  H45  1  0.39568200  0.48019200  0.91028600  1
  H  H46  1  0.06434200  0.93702000  0.46225400  1
  H  H47  1  0.14081400  0.01097700  0.06495100  1
  H  H48  1  0.29368800  0.08685200  0.38922100  1
  H  H49  1  0.04016600  0.83691400  0.39628000  1
  H  H50  1  0.64966100  0.45733800  0.52839400  1
  H  H51  1  0.20631200  0.08685200  0.88922100  1
  H  H52  1  0.85918600  0.98902300  0.93504900  1
  H  H53  1  0.85033900  0.45733800  0.02839400  1
  H  H54  1  0.89151900  0.61790400  0.77320100  1
  H  H55  1  0.82927000  0.57869600  0.87123200  1
  H  H56  1  0.29144100  0.10899600  0.75636400  1
  H  H57  1  0.20855900  0.10899600  0.25636400  1
  H  H58  1  0.54016600  0.16308600  0.10372000  1
  H  H59  1  0.14966100  0.54266200  0.97160600  1
  H  H60  1  0.95983400  0.16308600  0.60372000  1
  H  H61  1  0.08388700  0.04885900  0.78334700  1
  H  H62  1  0.45983400  0.83691400  0.89628000  1
  H  H63  1  0.67073000  0.57869600  0.37123200  1
  H  H64  1  0.59689300  0.37723800  0.88294200  1
  H  H65  1  0.10848100  0.38209600  0.22679900  1
  H  H66  1  0.39151900  0.38209600  0.72679900  1
  H  H67  1  0.56453400  0.42677300  0.18011200  1
  H  H68  1  0.17921900  0.48055600  0.78950600  1
  H  H69  1  0.09689300  0.62276200  0.61705800  1
  H  H70  1  0.60431800  0.51980800  0.08971400  1
  H  H71  1  0.56434200  0.06298000  0.03774600  1
  H  H72  1  0.79368800  0.91314800  0.11077900  1
  H  H73  1  0.35918600  0.01097700  0.56495100  1
  H  H74  1  0.82078100  0.51944400  0.21049400  1
  H  H75  1  0.89568200  0.51980800  0.58971400  1
  C  C76  1  0.56848900  0.56961600  0.33509600  1
  C  C77  1  0.71123200  0.99001600  0.70332200  1
  C  C78  1  0.98939200  0.38650400  0.86308000  1
  C  C79  1  0.48939200  0.61349600  0.63692000  1
  C  C80  1  0.06848900  0.43038400  0.16490400  1
  C  C81  1  0.28876800  0.00998400  0.29667800  1
  C  C82  1  0.57906500  0.04763000  0.09876800  1
  C  C83  1  0.42093500  0.95237000  0.90123200  1
  C  C84  1  0.51060800  0.38650400  0.36308000  1
  C  C85  1  0.07906500  0.95237000  0.40123200  1
  C  C86  1  0.78876800  0.99001600  0.20332200  1
  C  C87  1  0.92093500  0.04763000  0.59876800  1
  C  C88  1  0.21123200  0.00998400  0.79667800  1
  C  C89  1  0.93151100  0.56961600  0.83509600  1
  C  C90  1  0.01060800  0.61349600  0.13692000  1
  C  C91  1  0.43151100  0.43038400  0.66490400  1
  N  N92  1  0.75441500  0.01602800  0.12055400  1
  N  N93  1  0.74558500  0.01602800  0.62055400  1
  N  N94  1  0.25441500  0.98397200  0.37944600  1
  N  N95  1  0.24558500  0.98397200  0.87944600  1
  O  O96  1  0.57628800  0.30094000  0.52240500  1
  O  O97  1  0.12229200  0.36915100  0.81655400  1
  O  O98  1  0.19785100  0.43969300  0.96507400  1
  O  O99  1  0.64998400  0.86233300  0.51353800  1
  O  O100  1  0.16931300  0.73183200  0.60342300  1
  O  O101  1  0.48831200  0.51812500  0.87287900  1
  O  O102  1  0.85001600  0.86233300  0.01353800  1
  O  O103  1  0.62229200  0.63084900  0.68344600  1
  O  O104  1  0.78903500  0.34245400  0.75678100  1
  O  O105  1  0.62955100  0.07646700  0.37431900  1
  O  O106  1  0.87770800  0.63084900  0.18344600  1
  O  O107  1  0.66931300  0.26816800  0.89657700  1
  O  O108  1  0.35001600  0.13766700  0.48646200  1
  O  O109  1  0.69785100  0.56030700  0.53492600  1
  O  O110  1  0.37044900  0.92353300  0.62568100  1
  O  O111  1  0.12955100  0.92353300  0.12568100  1
  O  O112  1  0.30214900  0.43969300  0.46507400  1
  O  O113  1  0.42371200  0.69906000  0.47759500  1
  O  O114  1  0.92371200  0.30094000  0.02240500  1
  O  O115  1  0.51168800  0.48187500  0.12712100  1
  O  O116  1  0.37770800  0.36915100  0.31655400  1
  O  O117  1  0.98831200  0.48187500  0.62712100  1
  O  O118  1  0.21096500  0.65754600  0.24321900  1
  O  O119  1  0.28903500  0.65754600  0.74321900  1
  O  O120  1  0.07628800  0.69906000  0.97759500  1
  O  O121  1  0.33068700  0.73183200  0.10342300  1
  O  O122  1  0.71096500  0.34245400  0.25678100  1
  O  O123  1  0.14998400  0.13766700  0.98646200  1
  O  O124  1  0.01168800  0.51812500  0.37287900  1
  O  O125  1  0.83068700  0.26816800  0.39657700  1
  O  O126  1  0.80214900  0.56030700  0.03492600  1
  O  O127  1  0.87044900  0.07646700  0.87431900  1
