# generated using pymatgen
data_NaB(CO2)4
_symmetry_space_group_name_H-M   'P 1'
_cell_length_a   6.69107357
_cell_length_b   6.69107357
_cell_length_c   8.03952800
_cell_angle_alpha   90.00000000
_cell_angle_beta   90.00000000
_cell_angle_gamma   102.59700702
_symmetry_Int_Tables_number   1
_chemical_formula_structural   NaB(CO2)4
_chemical_formula_sum   'Na2 B2 C8 O16'
_cell_volume   351.26914998
_cell_formula_units_Z   2
loop_
 _symmetry_equiv_pos_site_id
 _symmetry_equiv_pos_as_xyz
  1  'x, y, z'
loop_
 _atom_site_type_symbol
 _atom_site_label
 _atom_site_symmetry_multiplicity
 _atom_site_fract_x
 _atom_site_fract_y
 _atom_site_fract_z
 _atom_site_occupancy
  Na  Na0  1  0.07115000  0.92885000  0.75000000  1
  Na  Na1  1  0.92885000  0.07115000  0.25000000  1
  B  B2  1  0.43028000  0.56972000  0.25000000  1
  B  B3  1  0.56972000  0.43028000  0.75000000  1
  C  C4  1  0.22330500  0.77669500  0.34551300  1
  C  C5  1  0.22330500  0.77669500  0.15448700  1
  C  C6  1  0.77669500  0.22330500  0.65448700  1
  C  C7  1  0.54564300  0.27059600  0.25000000  1
  C  C8  1  0.77669500  0.22330500  0.84551300  1
  C  C9  1  0.72940400  0.45435700  0.25000000  1
  C  C10  1  0.45435700  0.72940400  0.75000000  1
  C  C11  1  0.27059600  0.54564300  0.75000000  1
  O  O12  1  0.12771800  0.87228200  0.06704300  1
  O  O13  1  0.34151500  0.37479000  0.75000000  1
  O  O14  1  0.65559600  0.34440400  0.89691700  1
  O  O15  1  0.12771800  0.87228200  0.43295700  1
  O  O16  1  0.87228200  0.12771800  0.56704300  1
  O  O17  1  0.65848500  0.62521000  0.25000000  1
  O  O18  1  0.34440400  0.65559600  0.10308300  1
  O  O19  1  0.90838500  0.44121800  0.25000000  1
  O  O20  1  0.87228200  0.12771800  0.93295700  1
  O  O21  1  0.09161500  0.55878200  0.75000000  1
  O  O22  1  0.37479000  0.34151500  0.25000000  1
  O  O23  1  0.65559600  0.34440400  0.60308300  1
  O  O24  1  0.55878200  0.09161500  0.25000000  1
  O  O25  1  0.62521000  0.65848500  0.75000000  1
  O  O26  1  0.44121800  0.90838500  0.75000000  1
  O  O27  1  0.34440400  0.65559600  0.39691700  1
