# generated using pymatgen
data_TeC6(I3N)2
_symmetry_space_group_name_H-M   'P 1'
_cell_length_a   12.52558600
_cell_length_b   12.52558600
_cell_length_c   12.52558600
_cell_angle_alpha   90.00000000
_cell_angle_beta   90.00000000
_cell_angle_gamma   90.00000000
_symmetry_Int_Tables_number   1
_chemical_formula_structural   TeC6(I3N)2
_chemical_formula_sum   'Te4 C24 I24 N8'
_cell_volume   1965.14300338
_cell_formula_units_Z   4
loop_
 _symmetry_equiv_pos_site_id
 _symmetry_equiv_pos_as_xyz
  1  'x, y, z'
loop_
 _atom_site_type_symbol
 _atom_site_label
 _atom_site_symmetry_multiplicity
 _atom_site_fract_x
 _atom_site_fract_y
 _atom_site_fract_z
 _atom_site_occupancy
  Te  Te0  1  0.50000000  0.50000000  0.00000000  1
  Te  Te1  1  0.50000000  0.00000000  0.50000000  1
  Te  Te2  1  0.00000000  0.50000000  0.50000000  1
  Te  Te3  1  0.00000000  0.00000000  0.00000000  1
  C  C4  1  0.35571800  0.64223500  0.27883800  1
  C  C5  1  0.64428200  0.14223500  0.22116200  1
  C  C6  1  0.14428200  0.35776500  0.77883800  1
  C  C7  1  0.85571800  0.85776500  0.72116200  1
  C  C8  1  0.27883800  0.35571800  0.64223500  1
  C  C9  1  0.22116200  0.64428200  0.14223500  1
  C  C10  1  0.77883800  0.14428200  0.35776500  1
  C  C11  1  0.72116200  0.85571800  0.85776500  1
  C  C12  1  0.64223500  0.27883800  0.35571800  1
  C  C13  1  0.14223500  0.22116200  0.64428200  1
  C  C14  1  0.35776500  0.77883800  0.14428200  1
  C  C15  1  0.85776500  0.72116200  0.85571800  1
  C  C16  1  0.64428200  0.35776500  0.72116200  1
  C  C17  1  0.35571800  0.85776500  0.77883800  1
  C  C18  1  0.85571800  0.64223500  0.22116200  1
  C  C19  1  0.14428200  0.14223500  0.27883800  1
  C  C20  1  0.72116200  0.64428200  0.35776500  1
  C  C21  1  0.77883800  0.35571800  0.85776500  1
  C  C22  1  0.22116200  0.85571800  0.64223500  1
  C  C23  1  0.27883800  0.14428200  0.14223500  1
  C  C24  1  0.35776500  0.72116200  0.64428200  1
  C  C25  1  0.85776500  0.77883800  0.35571800  1
  C  C26  1  0.64223500  0.22116200  0.85571800  1
  C  C27  1  0.14223500  0.27883800  0.14428200  1
  I  I28  1  0.26482000  0.53955700  0.98701800  1
  I  I29  1  0.73518000  0.03955700  0.51298200  1
  I  I30  1  0.23518000  0.46044300  0.48701800  1
  I  I31  1  0.76482000  0.96044300  0.01298200  1
  I  I32  1  0.98701800  0.26482000  0.53955700  1
  I  I33  1  0.51298200  0.73518000  0.03955700  1
  I  I34  1  0.48701800  0.23518000  0.46044300  1
  I  I35  1  0.01298200  0.76482000  0.96044300  1
  I  I36  1  0.53955700  0.98701800  0.26482000  1
  I  I37  1  0.03955700  0.51298200  0.73518000  1
  I  I38  1  0.46044300  0.48701800  0.23518000  1
  I  I39  1  0.96044300  0.01298200  0.76482000  1
  I  I40  1  0.73518000  0.46044300  0.01298200  1
  I  I41  1  0.26482000  0.96044300  0.48701800  1
  I  I42  1  0.76482000  0.53955700  0.51298200  1
  I  I43  1  0.23518000  0.03955700  0.98701800  1
  I  I44  1  0.01298200  0.73518000  0.46044300  1
  I  I45  1  0.48701800  0.26482000  0.96044300  1
  I  I46  1  0.51298200  0.76482000  0.53955700  1
  I  I47  1  0.98701800  0.23518000  0.03955700  1
  I  I48  1  0.46044300  0.01298200  0.73518000  1
  I  I49  1  0.96044300  0.48701800  0.26482000  1
  I  I50  1  0.53955700  0.51298200  0.76482000  1
  I  I51  1  0.03955700  0.98701800  0.23518000  1
  N  N52  1  0.31396400  0.68603600  0.18603600  1
  N  N53  1  0.68603600  0.18603600  0.31396400  1
  N  N54  1  0.18603600  0.31396400  0.68603600  1
  N  N55  1  0.81396400  0.81396400  0.81396400  1
  N  N56  1  0.68603600  0.31396400  0.81396400  1
  N  N57  1  0.31396400  0.81396400  0.68603600  1
  N  N58  1  0.81396400  0.68603600  0.31396400  1
  N  N59  1  0.18603600  0.18603600  0.18603600  1
