# generated using pymatgen
data_CSNCl
_symmetry_space_group_name_H-M   'P 1'
_cell_length_a   13.94906700
_cell_length_b   6.69315700
_cell_length_c   7.77210306
_cell_angle_alpha   65.65086845
_cell_angle_beta   90.00000000
_cell_angle_gamma   90.00000000
_symmetry_Int_Tables_number   1
_chemical_formula_structural   CSNCl
_chemical_formula_sum   'C8 S8 N8 Cl8'
_cell_volume   661.08448823
_cell_formula_units_Z   8
loop_
 _symmetry_equiv_pos_site_id
 _symmetry_equiv_pos_as_xyz
  1  'x, y, z'
loop_
 _atom_site_type_symbol
 _atom_site_label
 _atom_site_symmetry_multiplicity
 _atom_site_fract_x
 _atom_site_fract_y
 _atom_site_fract_z
 _atom_site_occupancy
  C  C0  1  0.94645700  0.18185100  0.83885900  1
  C  C1  1  0.37479300  0.46103900  0.20693500  1
  C  C2  1  0.05354300  0.81814900  0.16114100  1
  C  C3  1  0.87479300  0.03896100  0.79306500  1
  C  C4  1  0.44645700  0.31814900  0.16114100  1
  C  C5  1  0.55354300  0.68185100  0.83885900  1
  C  C6  1  0.62520700  0.53896100  0.79306500  1
  C  C7  1  0.12520700  0.96103900  0.20693500  1
  S  S8  1  0.13633300  0.27210800  0.86397200  1
  S  S9  1  0.36366700  0.77210800  0.86397200  1
  S  S10  1  0.63633300  0.22789200  0.13602800  1
  S  S11  1  0.92826900  0.14776600  0.08616000  1
  S  S12  1  0.42826900  0.35223400  0.91384000  1
  S  S13  1  0.57173100  0.64776600  0.08616000  1
  S  S14  1  0.07173100  0.85223400  0.91384000  1
  S  S15  1  0.86366700  0.72789200  0.13602800  1
  N  N16  1  0.04674600  0.12838500  0.80640600  1
  N  N17  1  0.33846800  0.63917500  0.08622100  1
  N  N18  1  0.83846800  0.86082500  0.91377900  1
  N  N19  1  0.16153200  0.13917500  0.08622100  1
  N  N20  1  0.45325400  0.62838500  0.80640600  1
  N  N21  1  0.66153200  0.36082500  0.91377900  1
  N  N22  1  0.54674600  0.37161500  0.19359400  1
  N  N23  1  0.95325400  0.87161500  0.19359400  1
  Cl  Cl24  1  0.16131000  0.87178000  0.44079700  1
  Cl  Cl25  1  0.83869000  0.12822000  0.55920300  1
  Cl  Cl26  1  0.42487200  0.03358700  0.29241100  1
  Cl  Cl27  1  0.33869000  0.37178000  0.44079700  1
  Cl  Cl28  1  0.66131000  0.62822000  0.55920300  1
  Cl  Cl29  1  0.57512800  0.96641300  0.70758900  1
  Cl  Cl30  1  0.92487200  0.46641300  0.70758900  1
  Cl  Cl31  1  0.07512800  0.53358700  0.29241100  1
