# generated using pymatgen
data_K2Nd(PO3)5
_symmetry_space_group_name_H-M   'P 1'
_cell_length_a   7.25722315
_cell_length_b   7.25722315
_cell_length_c   13.40959935
_cell_angle_alpha   89.59597683
_cell_angle_beta   89.59597683
_cell_angle_gamma   108.10139486
_symmetry_Int_Tables_number   1
_chemical_formula_structural   K2Nd(PO3)5
_chemical_formula_sum   'K4 Nd2 P10 O30'
_cell_volume   671.24533326
_cell_formula_units_Z   2
loop_
 _symmetry_equiv_pos_site_id
 _symmetry_equiv_pos_as_xyz
  1  'x, y, z'
loop_
 _atom_site_type_symbol
 _atom_site_label
 _atom_site_symmetry_multiplicity
 _atom_site_fract_x
 _atom_site_fract_y
 _atom_site_fract_z
 _atom_site_occupancy
  K  K0  1  0.79503400  0.55898900  0.94332300  1
  K  K1  1  0.31221000  0.70069600  0.74586100  1
  K  K2  1  0.55898900  0.79503400  0.44332300  1
  K  K3  1  0.70069600  0.31221000  0.24586100  1
  Nd  Nd4  1  0.90399200  0.09582800  0.74960500  1
  Nd  Nd5  1  0.09582800  0.90399200  0.24960500  1
  P  P6  1  0.00312900  0.60929600  0.49009700  1
  P  P7  1  0.23615400  0.38642800  0.94103200  1
  P  P8  1  0.77074100  0.56224000  0.67402500  1
  P  P9  1  0.96492400  0.18522500  0.47013500  1
  P  P10  1  0.38642800  0.23615400  0.44103200  1
  P  P11  1  0.44488600  0.19635900  0.65866600  1
  P  P12  1  0.19635900  0.44488600  0.15866600  1
  P  P13  1  0.18522500  0.96492400  0.97013500  1
  P  P14  1  0.56224000  0.77074100  0.17402500  1
  P  P15  1  0.60929600  0.00312900  0.99009700  1
  O  O16  1  0.15752900  0.23722800  0.18939200  1
  O  O17  1  0.91215400  0.08243900  0.37241800  1
  O  O18  1  0.08243900  0.91215400  0.87241800  1
  O  O19  1  0.54434500  0.43065000  0.66604200  1
  O  O20  1  0.62975900  0.82561000  0.06035700  1
  O  O21  1  0.27119200  0.19436600  0.98349800  1
  O  O22  1  0.18742100  0.65405600  0.54674900  1
  O  O23  1  0.65405600  0.18742100  0.04674900  1
  O  O24  1  0.23722800  0.15752900  0.68939200  1
  O  O25  1  0.74068400  0.76747200  0.22948800  1
  O  O26  1  0.06880700  0.34094400  0.86958600  1
  O  O27  1  0.08795800  0.56175700  0.21162500  1
  O  O28  1  0.43065000  0.54434500  0.16604200  1
  O  O29  1  0.99251900  0.72081400  0.39710900  1
  O  O30  1  0.52290800  0.42508100  0.40715200  1
  O  O31  1  0.46404400  0.15576000  0.54126600  1
  O  O32  1  0.42508100  0.52290800  0.90715200  1
  O  O33  1  0.88893600  0.44041900  0.71263100  1
  O  O34  1  0.56175700  0.08795800  0.71162500  1
  O  O35  1  0.08036400  0.87623800  0.06459600  1
  O  O36  1  0.38332900  0.91248600  0.96014500  1
  O  O37  1  0.82561000  0.62975900  0.56035700  1
  O  O38  1  0.72081400  0.99251900  0.89710900  1
  O  O39  1  0.19436600  0.27119200  0.48349800  1
  O  O40  1  0.15576000  0.46404400  0.04126600  1
  O  O41  1  0.91248600  0.38332900  0.46014500  1
  O  O42  1  0.87623800  0.08036400  0.56459600  1
  O  O43  1  0.34094400  0.06880700  0.36958600  1
  O  O44  1  0.44041900  0.88893600  0.21263100  1
  O  O45  1  0.76747200  0.74068400  0.72948800  1
