# generated using pymatgen
data_HoMoO4F
_symmetry_space_group_name_H-M   'P 1'
_cell_length_a   12.40467100
_cell_length_b   5.25188500
_cell_length_c   6.70742217
_cell_angle_alpha   66.76494613
_cell_angle_beta   90.00000000
_cell_angle_gamma   90.00000000
_symmetry_Int_Tables_number   1
_chemical_formula_structural   HoMoO4F
_chemical_formula_sum   'Ho4 Mo4 O16 F4'
_cell_volume   401.53331772
_cell_formula_units_Z   4
loop_
 _symmetry_equiv_pos_site_id
 _symmetry_equiv_pos_as_xyz
  1  'x, y, z'
loop_
 _atom_site_type_symbol
 _atom_site_label
 _atom_site_symmetry_multiplicity
 _atom_site_fract_x
 _atom_site_fract_y
 _atom_site_fract_z
 _atom_site_occupancy
  Ho  Ho0  1  0.05100700  0.36075700  0.80028600  1
  Ho  Ho1  1  0.44899300  0.36075700  0.30028600  1
  Ho  Ho2  1  0.94899300  0.63924300  0.19971400  1
  Ho  Ho3  1  0.55100700  0.63924300  0.69971400  1
  Mo  Mo4  1  0.85661400  0.92079600  0.63047700  1
  Mo  Mo5  1  0.64338600  0.92079600  0.13047700  1
  Mo  Mo6  1  0.35661400  0.07920400  0.86952300  1
  Mo  Mo7  1  0.14338600  0.07920400  0.36952300  1
  O  O8  1  0.06867100  0.00288700  0.16181500  1
  O  O9  1  0.27808300  0.19275200  0.29529500  1
  O  O10  1  0.72191700  0.80724800  0.70470500  1
  O  O11  1  0.22191700  0.19275200  0.79529500  1
  O  O12  1  0.06512300  0.30999000  0.46206200  1
  O  O13  1  0.93132900  0.99711300  0.83818500  1
  O  O14  1  0.34735100  0.76076600  0.09385400  1
  O  O15  1  0.56867100  0.99711300  0.33818500  1
  O  O16  1  0.77808300  0.80724800  0.20470500  1
  O  O17  1  0.84735100  0.23923400  0.40614600  1
  O  O18  1  0.56512300  0.69001000  0.03793800  1
  O  O19  1  0.43132900  0.00288700  0.66181500  1
  O  O20  1  0.93487700  0.69001000  0.53793800  1
  O  O21  1  0.43487700  0.30999000  0.96206200  1
  O  O22  1  0.15264900  0.76076600  0.59385400  1
  O  O23  1  0.65264900  0.23923400  0.90614600  1
  F  F24  1  0.40238300  0.54374400  0.53628300  1
  F  F25  1  0.59761700  0.45625600  0.46371700  1
  F  F26  1  0.90238300  0.45625600  0.96371700  1
  F  F27  1  0.09761700  0.54374400  0.03628300  1
