# generated using pymatgen
data_Fe2Ag(MoO4)3
_symmetry_space_group_name_H-M   'P 1'
_cell_length_a   7.02389500
_cell_length_b   7.06296587
_cell_length_c   11.30333709
_cell_angle_alpha   83.55168608
_cell_angle_beta   80.84749005
_cell_angle_gamma   81.75893863
_symmetry_Int_Tables_number   1
_chemical_formula_structural   Fe2Ag(MoO4)3
_chemical_formula_sum   'Fe4 Ag2 Mo6 O24'
_cell_volume   545.59344516
_cell_formula_units_Z   2
loop_
 _symmetry_equiv_pos_site_id
 _symmetry_equiv_pos_as_xyz
  1  'x, y, z'
loop_
 _atom_site_type_symbol
 _atom_site_label
 _atom_site_symmetry_multiplicity
 _atom_site_fract_x
 _atom_site_fract_y
 _atom_site_fract_z
 _atom_site_occupancy
  Fe  Fe0  1  0.17398100  0.81727700  0.50686800  1
  Fe  Fe1  1  0.77572000  0.76947900  0.11092700  1
  Fe  Fe2  1  0.22428000  0.23052100  0.88907300  1
  Fe  Fe3  1  0.82601900  0.18272300  0.49313200  1
  Ag  Ag4  1  0.40542900  0.15257900  0.20498000  1
  Ag  Ag5  1  0.59457100  0.84742100  0.79502000  1
  Mo  Mo6  1  0.70790800  0.71974200  0.45100500  1
  Mo  Mo7  1  0.29209200  0.28025800  0.54899500  1
  Mo  Mo8  1  0.89738000  0.23883300  0.14698700  1
  Mo  Mo9  1  0.71672700  0.28721700  0.81235700  1
  Mo  Mo10  1  0.28327300  0.71278300  0.18764300  1
  Mo  Mo11  1  0.10262000  0.76116700  0.85301300  1
  O  O12  1  0.49695800  0.78362100  0.08767600  1
  O  O13  1  0.78931200  0.47978700  0.49844900  1
  O  O14  1  0.46800800  0.78976900  0.52498100  1
  O  O15  1  0.75317100  0.14531400  0.68651300  1
  O  O16  1  0.50304200  0.21637900  0.91232400  1
  O  O17  1  0.53199200  0.21023100  0.47501900  1
  O  O18  1  0.93538400  0.24715800  0.88557200  1
  O  O19  1  0.85224300  0.81527000  0.92718300  1
  O  O20  1  0.26095400  0.93692500  0.87336700  1
  O  O21  1  0.29039800  0.26105300  0.71018100  1
  O  O22  1  0.87347600  0.87277300  0.48982600  1
  O  O23  1  0.32709000  0.46784700  0.23785500  1
  O  O24  1  0.67291000  0.53215300  0.76214500  1
  O  O25  1  0.20109100  0.51935600  0.89708900  1
  O  O26  1  0.79890900  0.48064400  0.10291100  1
  O  O27  1  0.21068800  0.52021300  0.50155100  1
  O  O28  1  0.73904600  0.06307500  0.12663300  1
  O  O29  1  0.70960200  0.73894700  0.28981900  1
  O  O30  1  0.90870300  0.22254700  0.30185600  1
  O  O31  1  0.14775700  0.18473000  0.07281700  1
  O  O32  1  0.09129700  0.77745300  0.69814400  1
  O  O33  1  0.06461600  0.75284200  0.11442800  1
  O  O34  1  0.12652400  0.12722700  0.51017400  1
  O  O35  1  0.24682900  0.85468600  0.31348700  1
