# generated using pymatgen
data_NaYbP2O7
_symmetry_space_group_name_H-M   'P 1'
_cell_length_a   5.49439900
_cell_length_b   9.29718600
_cell_length_c   14.27382678
_cell_angle_alpha   63.89770026
_cell_angle_beta   90.00000000
_cell_angle_gamma   90.00000000
_symmetry_Int_Tables_number   1
_chemical_formula_structural   NaYbP2O7
_chemical_formula_sum   'Na4 Yb4 P8 O28'
_cell_volume   654.77677833
_cell_formula_units_Z   4
loop_
 _symmetry_equiv_pos_site_id
 _symmetry_equiv_pos_as_xyz
  1  'x, y, z'
loop_
 _atom_site_type_symbol
 _atom_site_label
 _atom_site_symmetry_multiplicity
 _atom_site_fract_x
 _atom_site_fract_y
 _atom_site_fract_z
 _atom_site_occupancy
  Na  Na0  1  0.72694900  0.55680700  0.30639600  1
  Na  Na1  1  0.27305100  0.44319300  0.69360400  1
  Na  Na2  1  0.22694900  0.44319300  0.19360400  1
  Na  Na3  1  0.77305100  0.55680700  0.80639600  1
  Yb  Yb4  1  0.26095000  0.25270500  0.47753100  1
  Yb  Yb5  1  0.76095000  0.74729500  0.02246900  1
  Yb  Yb6  1  0.73905000  0.74729500  0.52246900  1
  Yb  Yb7  1  0.23905000  0.25270500  0.97753100  1
  P  P8  1  0.75119600  0.18431800  0.34389100  1
  P  P9  1  0.21621200  0.68714600  0.38019400  1
  P  P10  1  0.71621200  0.31285400  0.11980600  1
  P  P11  1  0.28378800  0.68714600  0.88019400  1
  P  P12  1  0.78378800  0.31285400  0.61980600  1
  P  P13  1  0.24880400  0.81568200  0.65610900  1
  P  P14  1  0.25119600  0.81568200  0.15610900  1
  P  P15  1  0.74880400  0.18431800  0.84389100  1
  O  O16  1  0.48939400  0.72753100  0.66191600  1
  O  O17  1  0.29445900  0.52992400  0.37765600  1
  O  O18  1  0.44344900  0.31018500  0.10023700  1
  O  O19  1  0.70554100  0.47007600  0.62234400  1
  O  O20  1  0.25921900  0.98539000  0.07084600  1
  O  O21  1  0.72118200  0.17039000  0.73458000  1
  O  O22  1  0.87162700  0.27983200  0.04322800  1
  O  O23  1  0.98939400  0.27246900  0.83808400  1
  O  O24  1  0.27881800  0.82961000  0.26542000  1
  O  O25  1  0.74078100  0.01461000  0.92915400  1
  O  O26  1  0.46435400  0.71301500  0.14944800  1
  O  O27  1  0.03564600  0.71301500  0.64944800  1
  O  O28  1  0.53564600  0.28698500  0.85055200  1
  O  O29  1  0.94344900  0.68981500  0.39976300  1
  O  O30  1  0.75921900  0.01461000  0.42915400  1
  O  O31  1  0.01060600  0.72753100  0.16191600  1
  O  O32  1  0.24078100  0.98539000  0.57084600  1
  O  O33  1  0.77881800  0.17039000  0.23458000  1
  O  O34  1  0.62837300  0.27983200  0.54322800  1
  O  O35  1  0.22118200  0.82961000  0.76542000  1
  O  O36  1  0.20554100  0.52992400  0.87765600  1
  O  O37  1  0.51060600  0.27246900  0.33808400  1
  O  O38  1  0.96435400  0.28698500  0.35055200  1
  O  O39  1  0.79445900  0.47007600  0.12234400  1
  O  O40  1  0.12837300  0.72016800  0.95677200  1
  O  O41  1  0.37162700  0.72016800  0.45677200  1
  O  O42  1  0.05655100  0.31018500  0.60023700  1
  O  O43  1  0.55655100  0.68981500  0.89976300  1
