# generated using pymatgen
data_Na17Al5O16
_symmetry_space_group_name_H-M   'P 1'
_cell_length_a   16.89021249
_cell_length_b   16.89021249
_cell_length_c   6.03477395
_cell_angle_alpha   84.92359300
_cell_angle_beta   84.92359300
_cell_angle_gamma   159.43667264
_symmetry_Int_Tables_number   1
_chemical_formula_structural   Na17Al5O16
_chemical_formula_sum   'Na17 Al5 O16'
_cell_volume   525.16068388
_cell_formula_units_Z   1
loop_
 _symmetry_equiv_pos_site_id
 _symmetry_equiv_pos_as_xyz
  1  'x, y, z'
loop_
 _atom_site_type_symbol
 _atom_site_label
 _atom_site_symmetry_multiplicity
 _atom_site_fract_x
 _atom_site_fract_y
 _atom_site_fract_z
 _atom_site_occupancy
  Na  Na0  1  0.32911800  0.78764600  0.05073500  1
  Na  Na1  1  0.08692600  0.91005800  0.19393500  1
  Na  Na2  1  0.78764600  0.32911800  0.05073500  1
  Na  Na3  1  0.39366600  0.66945700  0.05725800  1
  Na  Na4  1  0.50951700  0.41751000  0.61138000  1
  Na  Na5  1  0.91005800  0.08692600  0.19393500  1
  Na  Na6  1  0.82716900  0.17967400  0.46366600  1
  Na  Na7  1  0.32658300  0.60116600  0.58631000  1
  Na  Na8  1  0.60116600  0.32658300  0.58631000  1
  Na  Na9  1  0.57625200  0.48418200  0.07923800  1
  Na  Na10  1  0.17967400  0.82716900  0.46366600  1
  Na  Na11  1  0.67195800  0.22229100  0.62399500  1
  Na  Na12  1  0.66945700  0.39366600  0.05725800  1
  Na  Na13  1  0.48418200  0.57625200  0.07923800  1
  Na  Na14  1  0.41751000  0.50951700  0.61138000  1
  Na  Na15  1  0.22229100  0.67195800  0.62399500  1
  Na  Na16  1  0.99904300  0.99904300  0.48762900  1
  Al  Al17  1  0.81718900  0.17766900  0.99158700  1
  Al  Al18  1  0.17766900  0.81718900  0.99158700  1
  Al  Al19  1  0.90640900  0.08693800  0.67562500  1
  Al  Al20  1  0.08693800  0.90640900  0.67562500  1
  Al  Al21  1  0.99565800  0.99565800  0.00393000  1
  O  O22  1  0.27815400  0.27815400  0.02281700  1
  O  O23  1  0.79029600  0.22260000  0.76800200  1
  O  O24  1  0.12648400  0.86743000  0.87852600  1
  O  O25  1  0.95397800  0.04053000  0.82479300  1
  O  O26  1  0.37277800  0.18631600  0.37712100  1
  O  O27  1  0.04053000  0.95397800  0.82479300  1
  O  O28  1  0.71013600  0.71013600  0.30078900  1
  O  O29  1  0.89688900  0.52460900  0.28805500  1
  O  O30  1  0.09321900  0.46391000  0.01508000  1
  O  O31  1  0.52460900  0.89688900  0.28805500  1
  O  O32  1  0.18631600  0.37277800  0.37712100  1
  O  O33  1  0.62052500  0.80706600  0.65811200  1
  O  O34  1  0.22260000  0.79029600  0.76800200  1
  O  O35  1  0.80706600  0.62052500  0.65811200  1
  O  O36  1  0.86743000  0.12648400  0.87852600  1
  O  O37  1  0.46391000  0.09321900  0.01508000  1
