# generated using pymatgen
data_TbOF
_symmetry_space_group_name_H-M   'P 1'
_cell_length_a   6.20037078
_cell_length_b   6.20037078
_cell_length_c   4.34425397
_cell_angle_alpha   76.89466264
_cell_angle_beta   76.89466264
_cell_angle_gamma   41.59280715
_symmetry_Int_Tables_number   1
_chemical_formula_structural   TbOF
_chemical_formula_sum   'Tb2 O2 F2'
_cell_volume   107.55819088
_cell_formula_units_Z   2
loop_
 _symmetry_equiv_pos_site_id
 _symmetry_equiv_pos_as_xyz
  1  'x, y, z'
loop_
 _atom_site_type_symbol
 _atom_site_label
 _atom_site_symmetry_multiplicity
 _atom_site_fract_x
 _atom_site_fract_y
 _atom_site_fract_z
 _atom_site_occupancy
  Tb  Tb0  1  0.38431400  0.38431400  0.32373300  1
  Tb  Tb1  1  0.61568600  0.61568600  0.67626700  1
  O  O2  1  0.42235900  0.42235900  0.80050700  1
  O  O3  1  0.57764100  0.57764100  0.19949300  1
  F  F4  1  0.17474700  0.17474700  0.61266100  1
  F  F5  1  0.82525300  0.82525300  0.38733900  1
