# generated using pymatgen
data_Cr3(P2O7)2
_symmetry_space_group_name_H-M   'P 1'
_cell_length_a   4.80035500
_cell_length_b   8.02368685
_cell_length_c   12.89677632
_cell_angle_alpha   89.56915563
_cell_angle_beta   89.74659079
_cell_angle_gamma   87.84649006
_symmetry_Int_Tables_number   1
_chemical_formula_structural   Cr3(P2O7)2
_chemical_formula_sum   'Cr6 P8 O28'
_cell_volume   496.37014485
_cell_formula_units_Z   2
loop_
 _symmetry_equiv_pos_site_id
 _symmetry_equiv_pos_as_xyz
  1  'x, y, z'
loop_
 _atom_site_type_symbol
 _atom_site_label
 _atom_site_symmetry_multiplicity
 _atom_site_fract_x
 _atom_site_fract_y
 _atom_site_fract_z
 _atom_site_occupancy
  Cr  Cr0  1  0.76579900  0.99097900  0.73230200  1
  Cr  Cr1  1  0.71494400  0.48955700  0.76238400  1
  Cr  Cr2  1  0.00000000  0.00000000  0.50000000  1
  Cr  Cr3  1  0.23420100  0.00902100  0.26769800  1
  Cr  Cr4  1  0.28505600  0.51044300  0.23761600  1
  Cr  Cr5  1  0.50000000  0.50000000  0.00000000  1
  P  P6  1  0.24150000  0.23809000  0.84410300  1
  P  P7  1  0.23337200  0.70607600  0.65054500  1
  P  P8  1  0.76662800  0.29392400  0.34945500  1
  P  P9  1  0.50553500  0.25259400  0.56127300  1
  P  P10  1  0.75850000  0.76191000  0.15589700  1
  P  P11  1  0.02806600  0.25054400  0.06237200  1
  P  P12  1  0.49446500  0.74740600  0.43872700  1
  P  P13  1  0.97193400  0.74945600  0.93762800  1
  O  O14  1  0.65574800  0.33911100  0.46445700  1
  O  O15  1  0.21137000  0.20703400  0.53383300  1
  O  O16  1  0.05934400  0.11810100  0.14355500  1
  O  O17  1  0.94065600  0.88189900  0.85644500  1
  O  O18  1  0.01794700  0.58141400  0.67842100  1
  O  O19  1  0.81248000  0.82193700  0.03834100  1
  O  O20  1  0.31614300  0.91092200  0.41505600  1
  O  O21  1  0.59172600  0.59739700  0.14038700  1
  O  O22  1  0.47448400  0.62454900  0.35149200  1
  O  O23  1  0.68385700  0.08907800  0.58494400  1
  O  O24  1  0.95996200  0.27946200  0.79237900  1
  O  O25  1  0.59059900  0.89957200  0.20635100  1
  O  O26  1  0.34425200  0.66088900  0.53554300  1
  O  O27  1  0.26956500  0.70191900  0.96670700  1
  O  O28  1  0.19139800  0.41166200  0.09229200  1
  O  O29  1  0.04003800  0.72053800  0.20762100  1
  O  O30  1  0.40940100  0.10042800  0.79364900  1
  O  O31  1  0.73043500  0.29808100  0.03329300  1
  O  O32  1  0.18752000  0.17806300  0.96165900  1
  O  O33  1  0.98205300  0.41858600  0.32157900  1
  O  O34  1  0.52551600  0.37545100  0.64850800  1
  O  O35  1  0.78863000  0.79296600  0.46616700  1
  O  O36  1  0.40827400  0.40260300  0.85961300  1
  O  O37  1  0.80860200  0.58833800  0.90770800  1
  O  O38  1  0.89566200  0.11223600  0.36189900  1
  O  O39  1  0.51420200  0.29693500  0.27661800  1
  O  O40  1  0.10433800  0.88776400  0.63810100  1
  O  O41  1  0.48579800  0.70306500  0.72338200  1
