# generated using pymatgen
data_SiO2
_symmetry_space_group_name_H-M   'P 1'
_cell_length_a   12.67612784
_cell_length_b   12.67612784
_cell_length_c   14.55329621
_cell_angle_alpha   73.37131470
_cell_angle_beta   73.37131470
_cell_angle_gamma   90.20577174
_symmetry_Int_Tables_number   1
_chemical_formula_structural   SiO2
_chemical_formula_sum   'Si32 O64'
_cell_volume   2137.65479946
_cell_formula_units_Z   32
loop_
 _symmetry_equiv_pos_site_id
 _symmetry_equiv_pos_as_xyz
  1  'x, y, z'
loop_
 _atom_site_type_symbol
 _atom_site_label
 _atom_site_symmetry_multiplicity
 _atom_site_fract_x
 _atom_site_fract_y
 _atom_site_fract_z
 _atom_site_occupancy
  Si  Si0  1  0.37305900  0.66247900  0.88730400  1
  Si  Si1  1  0.00555300  0.33402400  0.10637800  1
  Si  Si2  1  0.61108700  0.77551400  0.75456100  1
  Si  Si3  1  0.58246500  0.24719700  0.61765500  1
  Si  Si4  1  0.75361700  0.66868200  0.88512700  1
  Si  Si5  1  0.62694100  0.33752100  0.11269600  1
  Si  Si6  1  0.66868200  0.75361700  0.38512700  1
  Si  Si7  1  0.58640300  0.00395100  0.61350700  1
  Si  Si8  1  0.75280300  0.41753500  0.88234500  1
  Si  Si9  1  0.24719700  0.58246500  0.11765500  1
  Si  Si10  1  0.24638300  0.33131800  0.11487300  1
  Si  Si11  1  0.99604900  0.41359700  0.88649300  1
  Si  Si12  1  0.62937800  0.59097000  0.11521800  1
  Si  Si13  1  0.41753500  0.75280300  0.38234500  1
  Si  Si14  1  0.41359700  0.99604900  0.38649300  1
  Si  Si15  1  0.22448600  0.38891300  0.74543900  1
  Si  Si16  1  0.33752100  0.62694100  0.61269600  1
  Si  Si17  1  0.38952000  0.61048000  0.25000000  1
  Si  Si18  1  0.40903000  0.37062200  0.38478200  1
  Si  Si19  1  0.22542800  0.77457200  0.75000000  1
  Si  Si20  1  0.66247900  0.37305900  0.38730400  1
  Si  Si21  1  0.99444700  0.66597600  0.89362200  1
  Si  Si22  1  0.38891300  0.22448600  0.24543900  1
  Si  Si23  1  0.59097000  0.62937800  0.61521800  1
  Si  Si24  1  0.00395100  0.58640300  0.11350700  1
  Si  Si25  1  0.33131800  0.24638300  0.61487300  1
  Si  Si26  1  0.77551400  0.61108700  0.25456100  1
  Si  Si27  1  0.61048000  0.38952000  0.75000000  1
  Si  Si28  1  0.77457200  0.22542800  0.25000000  1
  Si  Si29  1  0.66597600  0.99444700  0.39362200  1
  Si  Si30  1  0.37062200  0.40903000  0.88478200  1
  Si  Si31  1  0.33402400  0.00555300  0.60637800  1
  O  O32  1  0.00951000  0.54272400  0.88189900  1
  O  O33  1  0.71376600  0.76053000  0.80170600  1
  O  O34  1  0.67091100  0.65821600  0.99641600  1
  O  O35  1  0.54272400  0.00951000  0.38189900  1
  O  O36  1  0.35195000  0.67053900  0.49325200  1
  O  O37  1  0.29171600  0.12109800  0.62347500  1
  O  O38  1  0.37176800  0.28700600  0.33123900  1
  O  O39  1  0.90582100  0.24893700  0.19115700  1
  O  O40  1  0.44977000  0.24998700  0.63712300  1
  O  O41  1  0.09417900  0.75106300  0.80884300  1
  O  O42  1  0.32946100  0.64805000  0.00674800  1
  O  O43  1  0.12109800  0.29171600  0.12347500  1
  O  O44  1  0.45727600  0.99049000  0.61810100  1
  O  O45  1  0.70828400  0.87890200  0.37652500  1
  O  O46  1  0.65821600  0.67091100  0.49641600  1
  O  O47  1  0.32908900  0.34178400  0.00358400  1
  O  O48  1  0.60807700  0.90701500  0.70474900  1
  O  O49  1  0.50562100  0.62215800  0.16160800  1
  O  O50  1  0.39192300  0.09298500  0.29525100  1
  O  O51  1  0.28623400  0.23947000  0.19829400  1
  O  O52  1  0.09298500  0.39192300  0.79525100  1
  O  O53  1  0.23947000  0.28623400  0.69829400  1
  O  O54  1  0.75106300  0.09417900  0.30884300  1
  O  O55  1  0.73967500  0.29451300  0.33100900  1
  O  O56  1  0.49437900  0.37784200  0.83839200  1
  O  O57  1  0.37784200  0.49437900  0.33839200  1
  O  O58  1  0.66420000  0.99542400  0.50578300  1
  O  O59  1  0.72253500  0.49777500  0.34479700  1
  O  O60  1  0.75001300  0.55023000  0.86287700  1
  O  O61  1  0.99049000  0.45727600  0.11810100  1
  O  O62  1  0.54193600  0.37075600  0.36814700  1
  O  O63  1  0.50222500  0.27746500  0.15520300  1
  O  O64  1  0.24998700  0.44977000  0.13712300  1
  O  O65  1  0.71222600  0.38379100  0.79772800  1
  O  O66  1  0.34178400  0.32908900  0.50358400  1
  O  O67  1  0.24893700  0.90582100  0.69115700  1
  O  O68  1  0.49777500  0.72253500  0.84479700  1
  O  O69  1  0.90701500  0.60807700  0.20474900  1
  O  O70  1  0.12212100  0.61672800  0.12682800  1
  O  O71  1  0.61672800  0.12212100  0.62682800  1
  O  O72  1  0.28777400  0.61620900  0.20227200  1
  O  O73  1  0.38327200  0.87787900  0.37317200  1
  O  O74  1  0.62215800  0.50562100  0.66160800  1
  O  O75  1  0.76053000  0.71376600  0.30170600  1
  O  O76  1  0.62924400  0.45806400  0.13185300  1
  O  O77  1  0.87890200  0.70828400  0.87652500  1
  O  O78  1  0.55023000  0.75001300  0.36287700  1
  O  O79  1  0.99542400  0.66420000  0.00578300  1
  O  O80  1  0.38379100  0.71222600  0.29772800  1
  O  O81  1  0.29451300  0.73967500  0.83100900  1
  O  O82  1  0.28700600  0.37176800  0.83123900  1
  O  O83  1  0.45806400  0.62924400  0.63185300  1
  O  O84  1  0.67053900  0.35195000  0.99325200  1
  O  O85  1  0.71299400  0.62823200  0.16876100  1
  O  O86  1  0.87787900  0.38327200  0.87317200  1
  O  O87  1  0.70548700  0.26032500  0.16899100  1
  O  O88  1  0.00457600  0.33580000  0.99421700  1
  O  O89  1  0.37075600  0.54193600  0.86814700  1
  O  O90  1  0.26032500  0.70548700  0.66899100  1
  O  O91  1  0.61620900  0.28777400  0.70227200  1
  O  O92  1  0.64805000  0.32946100  0.50674800  1
  O  O93  1  0.33580000  0.00457600  0.49421700  1
  O  O94  1  0.27746500  0.50222500  0.65520300  1
  O  O95  1  0.62823200  0.71299400  0.66876100  1
