# generated using pymatgen
data_KNd(PO3)4
_symmetry_space_group_name_H-M   'P 1'
_cell_length_a   7.49426188
_cell_length_b   7.49426188
_cell_length_c   10.74893309
_cell_angle_alpha   79.24821710
_cell_angle_beta   79.24821710
_cell_angle_gamma   115.41194683
_symmetry_Int_Tables_number   1
_chemical_formula_structural   KNd(PO3)4
_chemical_formula_sum   'K2 Nd2 P8 O24'
_cell_volume   510.96879310
_cell_formula_units_Z   2
loop_
 _symmetry_equiv_pos_site_id
 _symmetry_equiv_pos_as_xyz
  1  'x, y, z'
loop_
 _atom_site_type_symbol
 _atom_site_label
 _atom_site_symmetry_multiplicity
 _atom_site_fract_x
 _atom_site_fract_y
 _atom_site_fract_z
 _atom_site_occupancy
  K  K0  1  0.81619100  0.18380900  0.75000000  1
  K  K1  1  0.18380900  0.81619100  0.25000000  1
  Nd  Nd2  1  0.12072000  0.87928000  0.75000000  1
  Nd  Nd3  1  0.87928000  0.12072000  0.25000000  1
  P  P4  1  0.25916900  0.30476100  0.44348600  1
  P  P5  1  0.28775100  0.62681400  0.99963600  1
  P  P6  1  0.71224900  0.37318600  0.00036400  1
  P  P7  1  0.69523900  0.74083100  0.05651400  1
  P  P8  1  0.74083100  0.69523900  0.55651400  1
  P  P9  1  0.30476100  0.25916900  0.94348600  1
  P  P10  1  0.37318600  0.71224900  0.50036400  1
  P  P11  1  0.62681400  0.28775100  0.49963600  1
  O  O12  1  0.71792300  0.46777500  0.57004700  1
  O  O13  1  0.49197300  0.09228200  0.61309400  1
  O  O14  1  0.28207700  0.53222500  0.42995300  1
  O  O15  1  0.18986900  0.69592800  0.59709800  1
  O  O16  1  0.81134800  0.75710500  0.66996500  1
  O  O17  1  0.90771800  0.50802700  0.88690600  1
  O  O18  1  0.50802700  0.90771800  0.38690600  1
  O  O19  1  0.16778900  0.13981200  0.08393100  1
  O  O20  1  0.09228200  0.49197300  0.11309400  1
  O  O21  1  0.46777500  0.71792300  0.07004700  1
  O  O22  1  0.24289500  0.18865200  0.83003500  1
  O  O23  1  0.30407200  0.81013100  0.90290200  1
  O  O24  1  0.83221100  0.86018800  0.91606900  1
  O  O25  1  0.18865200  0.24289500  0.33003500  1
  O  O26  1  0.69592800  0.18986900  0.09709800  1
  O  O27  1  0.35484100  0.49915200  0.91437500  1
  O  O28  1  0.13981200  0.16778900  0.58393100  1
  O  O29  1  0.53222500  0.28207700  0.92995300  1
  O  O30  1  0.50084800  0.64515900  0.58562500  1
  O  O31  1  0.86018800  0.83221100  0.41606900  1
  O  O32  1  0.75710500  0.81134800  0.16996500  1
  O  O33  1  0.81013100  0.30407200  0.40290200  1
  O  O34  1  0.64515900  0.50084800  0.08562500  1
  O  O35  1  0.49915200  0.35484100  0.41437500  1
