# generated using pymatgen
data_VH10SO10
_symmetry_space_group_name_H-M   'P 1'
_cell_length_a   6.21286100
_cell_length_b   7.31600700
_cell_length_c   9.38288600
_cell_angle_alpha   90.00000000
_cell_angle_beta   90.00000000
_cell_angle_gamma   90.00000000
_symmetry_Int_Tables_number   1
_chemical_formula_structural   VH10SO10
_chemical_formula_sum   'V2 H20 S2 O20'
_cell_volume   426.48345655
_cell_formula_units_Z   2
loop_
 _symmetry_equiv_pos_site_id
 _symmetry_equiv_pos_as_xyz
  1  'x, y, z'
loop_
 _atom_site_type_symbol
 _atom_site_label
 _atom_site_symmetry_multiplicity
 _atom_site_fract_x
 _atom_site_fract_y
 _atom_site_fract_z
 _atom_site_occupancy
  V  V0  1  0.50052600  0.50000000  0.71641000  1
  V  V1  1  0.00052600  0.00000000  0.28359000  1
  H  H2  1  0.90402600  0.60920600  0.82465100  1
  H  H3  1  0.90402600  0.39079400  0.82465100  1
  H  H4  1  0.40402600  0.89079400  0.17534900  1
  H  H5  1  0.40402600  0.10920600  0.17534900  1
  H  H6  1  0.48129800  0.68281200  0.96612500  1
  H  H7  1  0.48129800  0.31718800  0.96612500  1
  H  H8  1  0.98129800  0.81718800  0.03387500  1
  H  H9  1  0.98129800  0.18281200  0.03387500  1
  H  H10  1  0.30574100  0.76441000  0.85642900  1
  H  H11  1  0.30574100  0.23559000  0.85642900  1
  H  H12  1  0.80574100  0.73559000  0.14357100  1
  H  H13  1  0.80574100  0.26441000  0.14357100  1
  H  H14  1  0.69027300  0.66131800  0.49358800  1
  H  H15  1  0.69027300  0.33868200  0.49358800  1
  H  H16  1  0.19027300  0.83868200  0.50641200  1
  H  H17  1  0.19027300  0.16131800  0.50641200  1
  H  H18  1  0.69959500  0.81285400  0.62444600  1
  H  H19  1  0.69959500  0.18714600  0.62444600  1
  H  H20  1  0.19959500  0.68714600  0.37555400  1
  H  H21  1  0.19959500  0.31285400  0.37555400  1
  S  S22  1  0.52025800  0.50000000  0.23755800  1
  S  S23  1  0.02025800  0.00000000  0.76244200  1
  O  O24  1  0.25338800  0.50000000  0.65869100  1
  O  O25  1  0.75338800  0.00000000  0.34130900  1
  O  O26  1  0.81202000  0.50000000  0.83563500  1
  O  O27  1  0.31202000  0.00000000  0.16436500  1
  O  O28  1  0.45084100  0.70631000  0.86366500  1
  O  O29  1  0.45084100  0.29369000  0.86366500  1
  O  O30  1  0.95084100  0.79369000  0.13633500  1
  O  O31  1  0.95084100  0.20631000  0.13633500  1
  O  O32  1  0.63584600  0.69502200  0.58885100  1
  O  O33  1  0.63584600  0.30497800  0.58885100  1
  O  O34  1  0.13584600  0.80497800  0.41114900  1
  O  O35  1  0.13584600  0.19502200  0.41114900  1
  O  O36  1  0.53910800  0.66719000  0.14440500  1
  O  O37  1  0.53910800  0.33281000  0.14440500  1
  O  O38  1  0.03910800  0.83281000  0.85559500  1
  O  O39  1  0.03910800  0.16719000  0.85559500  1
  O  O40  1  0.69868700  0.50000000  0.34192300  1
  O  O41  1  0.19868700  0.00000000  0.65807700  1
  O  O42  1  0.30616400  0.50000000  0.30851500  1
  O  O43  1  0.80616400  0.00000000  0.69148500  1
