# generated using pymatgen
data_VP2C4N3(ClF6)2
_symmetry_space_group_name_H-M   'P 1'
_cell_length_a   8.58452506
_cell_length_b   8.58452506
_cell_length_c   14.78752648
_cell_angle_alpha   67.15947419
_cell_angle_beta   67.15947419
_cell_angle_gamma   59.70639353
_symmetry_Int_Tables_number   1
_chemical_formula_structural   VP2C4N3(ClF6)2
_chemical_formula_sum   'V2 P4 C8 N6 Cl4 F24'
_cell_volume   841.44911663
_cell_formula_units_Z   2
loop_
 _symmetry_equiv_pos_site_id
 _symmetry_equiv_pos_as_xyz
  1  'x, y, z'
loop_
 _atom_site_type_symbol
 _atom_site_label
 _atom_site_symmetry_multiplicity
 _atom_site_fract_x
 _atom_site_fract_y
 _atom_site_fract_z
 _atom_site_occupancy
  V  V0  1  0.55991500  0.44008500  0.25000000  1
  V  V1  1  0.44008500  0.55991500  0.75000000  1
  P  P2  1  0.97524200  0.22479900  0.23089800  1
  P  P3  1  0.22479900  0.97524200  0.73089800  1
  P  P4  1  0.02475800  0.77520100  0.76910200  1
  P  P5  1  0.77520100  0.02475800  0.26910200  1
  C  C6  1  0.74751300  0.84137000  0.39098800  1
  C  C7  1  0.25248700  0.15863000  0.60901200  1
  C  C8  1  0.92390100  0.79836400  0.66793300  1
  C  C9  1  0.79836400  0.92390100  0.16793300  1
  C  C10  1  0.07609900  0.20163600  0.33206700  1
  C  C11  1  0.15863000  0.25248700  0.10901200  1
  C  C12  1  0.20163600  0.07609900  0.83206700  1
  C  C13  1  0.84137000  0.74751300  0.89098800  1
  N  N14  1  0.41334400  0.78788200  0.72637100  1
  N  N15  1  0.78788200  0.41334400  0.22637100  1
  N  N16  1  0.21211800  0.58665600  0.77362900  1
  N  N17  1  0.96742800  0.03257200  0.25000000  1
  N  N18  1  0.58665600  0.21211800  0.27362900  1
  N  N19  1  0.03257200  0.96742800  0.75000000  1
  Cl  Cl20  1  0.61364500  0.44776100  0.61773500  1
  Cl  Cl21  1  0.44776100  0.61364500  0.11773500  1
  Cl  Cl22  1  0.38635500  0.55223900  0.38226500  1
  Cl  Cl23  1  0.55223900  0.38635500  0.88226500  1
  F  F24  1  0.23024600  0.04106200  0.34326300  1
  F  F25  1  0.17765400  0.41034400  0.08954300  1
  F  F26  1  0.04106200  0.23024600  0.84326300  1
  F  F27  1  0.79801300  0.05400200  0.07869500  1
  F  F28  1  0.73903900  0.89519800  0.46845700  1
  F  F29  1  0.32598300  0.10625500  0.11387700  1
  F  F30  1  0.58965600  0.82234600  0.41045700  1
  F  F31  1  0.87976500  0.65430100  0.69076200  1
  F  F32  1  0.67401700  0.89374500  0.88612300  1
  F  F33  1  0.10625500  0.32598300  0.61387700  1
  F  F34  1  0.41034400  0.17765400  0.58954300  1
  F  F35  1  0.82234600  0.58965600  0.91045700  1
  F  F36  1  0.26096100  0.10480200  0.53154300  1
  F  F37  1  0.76975400  0.95893800  0.65673700  1
  F  F38  1  0.89374500  0.67401700  0.38612300  1
  F  F39  1  0.10480200  0.26096100  0.03154300  1
  F  F40  1  0.34569900  0.12023500  0.80923800  1
  F  F41  1  0.95893800  0.76975400  0.15673700  1
  F  F42  1  0.94599800  0.20198700  0.42130500  1
  F  F43  1  0.65430100  0.87976500  0.19076200  1
  F  F44  1  0.12023500  0.34569900  0.30923800  1
  F  F45  1  0.89519800  0.73903900  0.96845700  1
  F  F46  1  0.05400200  0.79801300  0.57869500  1
  F  F47  1  0.20198700  0.94599800  0.92130500  1
