# generated using pymatgen
data_K4Sb2N3O9F7
_symmetry_space_group_name_H-M   'P 1'
_cell_length_a   8.75656300
_cell_length_b   9.12669200
_cell_length_c   20.29097400
_cell_angle_alpha   90.00000000
_cell_angle_beta   90.00000000
_cell_angle_gamma   90.00000000
_symmetry_Int_Tables_number   1
_chemical_formula_structural   K4Sb2N3O9F7
_chemical_formula_sum   'K16 Sb8 N12 O36 F28'
_cell_volume   1621.62326167
_cell_formula_units_Z   4
loop_
 _symmetry_equiv_pos_site_id
 _symmetry_equiv_pos_as_xyz
  1  'x, y, z'
loop_
 _atom_site_type_symbol
 _atom_site_label
 _atom_site_symmetry_multiplicity
 _atom_site_fract_x
 _atom_site_fract_y
 _atom_site_fract_z
 _atom_site_occupancy
  K  K0  1  0.67667900  0.66468200  0.99662400  1
  K  K1  1  0.81244600  0.16883400  0.67850000  1
  K  K2  1  0.82332100  0.83531800  0.49662400  1
  K  K3  1  0.17667900  0.83531800  0.00337600  1
  K  K4  1  0.32332100  0.66468200  0.50337600  1
  K  K5  1  0.31244600  0.33116600  0.32150000  1
  K  K6  1  0.82332100  0.16468200  0.99662400  1
  K  K7  1  0.31244600  0.66883400  0.82150000  1
  K  K8  1  0.81244600  0.83116600  0.17850000  1
  K  K9  1  0.18755400  0.16883400  0.82150000  1
  K  K10  1  0.18755400  0.83116600  0.32150000  1
  K  K11  1  0.68755400  0.66883400  0.67850000  1
  K  K12  1  0.68755400  0.33116600  0.17850000  1
  K  K13  1  0.17667900  0.16468200  0.50337600  1
  K  K14  1  0.32332100  0.33531800  0.00337600  1
  K  K15  1  0.67667900  0.33531800  0.49662400  1
  Sb  Sb16  1  0.38666100  0.37981700  0.65364900  1
  Sb  Sb17  1  0.11333900  0.87981700  0.65364900  1
  Sb  Sb18  1  0.61333900  0.37981700  0.84635100  1
  Sb  Sb19  1  0.61333900  0.62018300  0.34635100  1
  Sb  Sb20  1  0.38666100  0.62018300  0.15364900  1
  Sb  Sb21  1  0.88666100  0.12018300  0.34635100  1
  Sb  Sb22  1  0.88666100  0.87981700  0.84635100  1
  Sb  Sb23  1  0.11333900  0.12018300  0.15364900  1
  N  N24  1  0.47015300  0.98608500  0.91754900  1
  N  N25  1  0.47015300  0.01391500  0.41754900  1
  N  N26  1  0.97015300  0.51391500  0.08245100  1
  N  N27  1  0.00000000  0.50990800  0.75000000  1
  N  N28  1  0.02984700  0.51391500  0.41754900  1
  N  N29  1  0.50000000  0.99009200  0.25000000  1
  N  N30  1  0.02984700  0.48608500  0.91754900  1
  N  N31  1  0.52984700  0.01391500  0.08245100  1
  N  N32  1  0.50000000  0.00990800  0.75000000  1
  N  N33  1  0.52984700  0.98608500  0.58245100  1
  N  N34  1  0.97015300  0.48608500  0.58245100  1
  N  N35  1  0.00000000  0.49009200  0.25000000  1
  O  O36  1  0.03477100  0.65183100  0.42475900  1
  O  O37  1  0.37843300  0.94144500  0.76396600  1
  O  O38  1  0.08848200  0.54655500  0.60651900  1
  O  O39  1  0.00000000  0.64953500  0.75000000  1
  O  O40  1  0.58848200  0.04655500  0.89348100  1
  O  O41  1  0.53477100  0.15183100  0.07524100  1
  O  O42  1  0.87843300  0.44144500  0.73603400  1
  O  O43  1  0.35608200  0.06342000  0.93447000  1
  O  O44  1  0.85608200  0.56342000  0.56553000  1
  O  O45  1  0.91151800  0.45344500  0.39348100  1
  O  O46  1  0.96522900  0.34816900  0.57524100  1
  O  O47  1  0.12156700  0.55855500  0.26396600  1
  O  O48  1  0.08848200  0.45344500  0.10651900  1
  O  O49  1  0.64391800  0.06342000  0.56553000  1
  O  O50  1  0.14391800  0.56342000  0.93447000  1
  O  O51  1  0.12156700  0.44144500  0.76396600  1
  O  O52  1  0.96522900  0.65183100  0.07524100  1
  O  O53  1  0.53477100  0.84816900  0.57524100  1
  O  O54  1  0.37843300  0.05855500  0.26396600  1
  O  O55  1  0.62156700  0.05855500  0.23603400  1
  O  O56  1  0.87843300  0.55855500  0.23603400  1
  O  O57  1  0.91151800  0.54655500  0.89348100  1
  O  O58  1  0.46522900  0.15183100  0.42475900  1
  O  O59  1  0.50000000  0.85046500  0.25000000  1
  O  O60  1  0.85608200  0.43658000  0.06553000  1
  O  O61  1  0.41151800  0.95344500  0.10651900  1
  O  O62  1  0.03477100  0.34816900  0.92475900  1
  O  O63  1  0.64391800  0.93658000  0.06553000  1
  O  O64  1  0.50000000  0.14953500  0.75000000  1
  O  O65  1  0.58848200  0.95344500  0.39348100  1
  O  O66  1  0.35608200  0.93658000  0.43447000  1
  O  O67  1  0.62156700  0.94144500  0.73603400  1
  O  O68  1  0.14391800  0.43658000  0.43447000  1
  O  O69  1  0.00000000  0.35046500  0.25000000  1
  O  O70  1  0.46522900  0.84816900  0.92475900  1
  O  O71  1  0.41151800  0.04655500  0.60651900  1
  F  F72  1  0.89619700  0.09442400  0.85713200  1
  F  F73  1  0.37333200  0.37702700  0.55374200  1
  F  F74  1  0.37333200  0.62297300  0.05374200  1
  F  F75  1  0.89619700  0.90557600  0.35713200  1
  F  F76  1  0.00000000  0.04119900  0.25000000  1
  F  F77  1  0.39247400  0.62992100  0.36575800  1
  F  F78  1  0.87333200  0.87702700  0.94625800  1
  F  F79  1  0.00000000  0.95880100  0.75000000  1
  F  F80  1  0.10752600  0.12992100  0.36575800  1
  F  F81  1  0.62666800  0.62297300  0.44625800  1
  F  F82  1  0.39619700  0.59442400  0.64286800  1
  F  F83  1  0.62666800  0.37702700  0.94625800  1
  F  F84  1  0.60380300  0.59442400  0.85713200  1
  F  F85  1  0.89247400  0.12992100  0.13424200  1
  F  F86  1  0.39247400  0.37007900  0.86575800  1
  F  F87  1  0.87333200  0.12297300  0.44625800  1
  F  F88  1  0.39619700  0.40557600  0.14286800  1
  F  F89  1  0.10752600  0.87007900  0.86575800  1
  F  F90  1  0.60752600  0.37007900  0.63424200  1
  F  F91  1  0.89247400  0.87007900  0.63424200  1
  F  F92  1  0.10380300  0.09442400  0.64286800  1
  F  F93  1  0.60752600  0.62992100  0.13424200  1
  F  F94  1  0.12666800  0.12297300  0.05374200  1
  F  F95  1  0.10380300  0.90557600  0.14286800  1
  F  F96  1  0.50000000  0.45880100  0.75000000  1
  F  F97  1  0.50000000  0.54119900  0.25000000  1
  F  F98  1  0.60380300  0.40557600  0.35713200  1
  F  F99  1  0.12666800  0.87702700  0.55374200  1
