# generated using pymatgen
data_K2SN2O5
_symmetry_space_group_name_H-M   'P 1'
_cell_length_a   7.22897000
_cell_length_b   8.25687000
_cell_length_c   10.12716000
_cell_angle_alpha   90.00000000
_cell_angle_beta   90.00000000
_cell_angle_gamma   90.00000000
_symmetry_Int_Tables_number   1
_chemical_formula_structural   K2SN2O5
_chemical_formula_sum   'K8 S4 N8 O20'
_cell_volume   604.47666595
_cell_formula_units_Z   4
loop_
 _symmetry_equiv_pos_site_id
 _symmetry_equiv_pos_as_xyz
  1  'x, y, z'
loop_
 _atom_site_type_symbol
 _atom_site_label
 _atom_site_symmetry_multiplicity
 _atom_site_fract_x
 _atom_site_fract_y
 _atom_site_fract_z
 _atom_site_occupancy
  K  K0  1  0.55267600  0.99451100  0.31155000  1
  K  K1  1  0.05267600  0.50548900  0.18845000  1
  K  K2  1  0.44732400  0.49451100  0.68845000  1
  K  K3  1  0.94732400  0.49451100  0.81155000  1
  K  K4  1  0.44732400  0.00548900  0.68845000  1
  K  K5  1  0.05267600  0.99451100  0.18845000  1
  K  K6  1  0.94732400  0.00548900  0.81155000  1
  K  K7  1  0.55267600  0.50548900  0.31155000  1
  S  S8  1  0.14112800  0.75000000  0.50149700  1
  S  S9  1  0.35887200  0.25000000  0.00149700  1
  S  S10  1  0.85887200  0.25000000  0.49850300  1
  S  S11  1  0.64112800  0.75000000  0.99850300  1
  N  N12  1  0.71572800  0.25000000  0.06315200  1
  N  N13  1  0.78427200  0.75000000  0.56315200  1
  N  N14  1  0.21572800  0.25000000  0.43684800  1
  N  N15  1  0.60161500  0.25000000  0.96352900  1
  N  N16  1  0.89838500  0.75000000  0.46352900  1
  N  N17  1  0.28427200  0.75000000  0.93684800  1
  N  N18  1  0.10161500  0.25000000  0.53647100  1
  N  N19  1  0.39838500  0.75000000  0.03647100  1
  O  O20  1  0.29350600  0.10137700  0.93924500  1
  O  O21  1  0.14481100  0.25000000  0.66206300  1
  O  O22  1  0.84685300  0.25000000  0.35422300  1
  O  O23  1  0.79350600  0.10137700  0.56075500  1
  O  O24  1  0.65314700  0.75000000  0.85422300  1
  O  O25  1  0.64481100  0.25000000  0.83793700  1
  O  O26  1  0.15314700  0.75000000  0.64577700  1
  O  O27  1  0.38891500  0.25000000  0.47097000  1
  O  O28  1  0.34685300  0.25000000  0.14577700  1
  O  O29  1  0.70649400  0.60137700  0.06075500  1
  O  O30  1  0.20649400  0.60137700  0.43924500  1
  O  O31  1  0.79350600  0.39862300  0.56075500  1
  O  O32  1  0.88891500  0.25000000  0.02903000  1
  O  O33  1  0.61108500  0.75000000  0.52903000  1
  O  O34  1  0.20649400  0.89862300  0.43924500  1
  O  O35  1  0.35518900  0.75000000  0.16206300  1
  O  O36  1  0.70649400  0.89862300  0.06075500  1
  O  O37  1  0.11108500  0.75000000  0.97097000  1
  O  O38  1  0.85518900  0.75000000  0.33793700  1
  O  O39  1  0.29350600  0.39862300  0.93924500  1
