# generated using pymatgen
data_CaH2(CO2)2
_symmetry_space_group_name_H-M   'P 1'
_cell_length_a   6.87167700
_cell_length_b   6.87167700
_cell_length_c   9.69846300
_cell_angle_alpha   90.00000000
_cell_angle_beta   90.00000000
_cell_angle_gamma   90.00000000
_symmetry_Int_Tables_number   1
_chemical_formula_structural   CaH2(CO2)2
_chemical_formula_sum   'Ca4 H8 C8 O16'
_cell_volume   457.96088743
_cell_formula_units_Z   4
loop_
 _symmetry_equiv_pos_site_id
 _symmetry_equiv_pos_as_xyz
  1  'x, y, z'
loop_
 _atom_site_type_symbol
 _atom_site_label
 _atom_site_symmetry_multiplicity
 _atom_site_fract_x
 _atom_site_fract_y
 _atom_site_fract_z
 _atom_site_occupancy
  Ca  Ca0  1  0.78318200  0.78318200  0.50000000  1
  Ca  Ca1  1  0.21681800  0.21681800  0.00000000  1
  Ca  Ca2  1  0.28318200  0.71681800  0.25000000  1
  Ca  Ca3  1  0.71681800  0.28318200  0.75000000  1
  H  H4  1  0.85707900  0.32969400  0.32948600  1
  H  H5  1  0.14292100  0.67030600  0.82948600  1
  H  H6  1  0.35707900  0.17030600  0.42051400  1
  H  H7  1  0.17030600  0.35707900  0.57948600  1
  H  H8  1  0.64292100  0.82969400  0.92051400  1
  H  H9  1  0.67030600  0.14292100  0.17051400  1
  H  H10  1  0.82969400  0.64292100  0.07948600  1
  H  H11  1  0.32969400  0.85707900  0.67051400  1
  C  C12  1  0.30465500  0.20578200  0.31538500  1
  C  C13  1  0.69534500  0.79421800  0.81538500  1
  C  C14  1  0.80465500  0.29421800  0.43461500  1
  C  C15  1  0.19534500  0.70578200  0.93461500  1
  C  C16  1  0.79421800  0.69534500  0.18461500  1
  C  C17  1  0.20578200  0.30465500  0.68461500  1
  C  C18  1  0.70578200  0.19534500  0.06538500  1
  C  C19  1  0.29421800  0.80465500  0.56538500  1
  O  O20  1  0.61816600  0.72033600  0.21624000  1
  O  O21  1  0.22476100  0.56486000  0.01750100  1
  O  O22  1  0.72033600  0.61816600  0.78376000  1
  O  O23  1  0.72476100  0.93514000  0.73249900  1
  O  O24  1  0.06486000  0.27523900  0.76750100  1
  O  O25  1  0.77966400  0.11816600  0.46624000  1
  O  O26  1  0.11816600  0.77966400  0.53376000  1
  O  O27  1  0.88183400  0.22033600  0.03376000  1
  O  O28  1  0.27523900  0.06486000  0.23249900  1
  O  O29  1  0.38183400  0.27966400  0.71624000  1
  O  O30  1  0.22033600  0.88183400  0.96624000  1
  O  O31  1  0.27966400  0.38183400  0.28376000  1
  O  O32  1  0.56486000  0.22476100  0.98249900  1
  O  O33  1  0.93514000  0.72476100  0.26750100  1
  O  O34  1  0.77523900  0.43514000  0.51750100  1
  O  O35  1  0.43514000  0.77523900  0.48249900  1
