# generated using pymatgen
data_Cu3WO6
_symmetry_space_group_name_H-M   'P 1'
_cell_length_a   9.91842600
_cell_length_b   9.91842600
_cell_length_c   9.91842600
_cell_angle_alpha   90.00000000
_cell_angle_beta   90.00000000
_cell_angle_gamma   90.00000000
_symmetry_Int_Tables_number   1
_chemical_formula_structural   Cu3WO6
_chemical_formula_sum   'Cu24 W8 O48'
_cell_volume   975.72688670
_cell_formula_units_Z   8
loop_
 _symmetry_equiv_pos_site_id
 _symmetry_equiv_pos_as_xyz
  1  'x, y, z'
loop_
 _atom_site_type_symbol
 _atom_site_label
 _atom_site_symmetry_multiplicity
 _atom_site_fract_x
 _atom_site_fract_y
 _atom_site_fract_z
 _atom_site_occupancy
  Cu  Cu0  1  0.59495700  0.74340300  0.36403700  1
  Cu  Cu1  1  0.63596300  0.09495700  0.75659700  1
  Cu  Cu2  1  0.36403700  0.59495700  0.74340300  1
  Cu  Cu3  1  0.25659700  0.63596300  0.40504300  1
  Cu  Cu4  1  0.40504300  0.24340300  0.13596300  1
  Cu  Cu5  1  0.86403700  0.59495700  0.75659700  1
  Cu  Cu6  1  0.25659700  0.86403700  0.90504300  1
  Cu  Cu7  1  0.90504300  0.24340300  0.36403700  1
  Cu  Cu8  1  0.24340300  0.13596300  0.40504300  1
  Cu  Cu9  1  0.24340300  0.36403700  0.90504300  1
  Cu  Cu10  1  0.75659700  0.86403700  0.59495700  1
  Cu  Cu11  1  0.13596300  0.40504300  0.24340300  1
  Cu  Cu12  1  0.86403700  0.90504300  0.25659700  1
  Cu  Cu13  1  0.59495700  0.75659700  0.86403700  1
  Cu  Cu14  1  0.36403700  0.90504300  0.24340300  1
  Cu  Cu15  1  0.74340300  0.36403700  0.59495700  1
  Cu  Cu16  1  0.63596300  0.40504300  0.25659700  1
  Cu  Cu17  1  0.09495700  0.75659700  0.63596300  1
  Cu  Cu18  1  0.40504300  0.25659700  0.63596300  1
  Cu  Cu19  1  0.09495700  0.74340300  0.13596300  1
  Cu  Cu20  1  0.75659700  0.63596300  0.09495700  1
  Cu  Cu21  1  0.13596300  0.09495700  0.74340300  1
  Cu  Cu22  1  0.74340300  0.13596300  0.09495700  1
  Cu  Cu23  1  0.90504300  0.25659700  0.86403700  1
  W  W24  1  0.61701100  0.11701100  0.38298900  1
  W  W25  1  0.88298900  0.61701100  0.38298900  1
  W  W26  1  0.11701100  0.38298900  0.61701100  1
  W  W27  1  0.11701100  0.11701100  0.11701100  1
  W  W28  1  0.38298900  0.88298900  0.61701100  1
  W  W29  1  0.61701100  0.38298900  0.88298900  1
  W  W30  1  0.88298900  0.88298900  0.88298900  1
  W  W31  1  0.38298900  0.61701100  0.11701100  1
  O  O32  1  0.94724400  0.46270100  0.30286200  1
  O  O33  1  0.44724400  0.03729900  0.69713800  1
  O  O34  1  0.55275600  0.53729900  0.80286200  1
  O  O35  1  0.90820600  0.72109900  0.19568300  1
  O  O36  1  0.46270100  0.19713800  0.44724400  1
  O  O37  1  0.44724400  0.46270100  0.19713800  1
  O  O38  1  0.69713800  0.44724400  0.03729900  1
  O  O39  1  0.80431700  0.09179400  0.27890100  1
  O  O40  1  0.40820600  0.77890100  0.80431700  1
  O  O41  1  0.96270100  0.19713800  0.05275600  1
  O  O42  1  0.55275600  0.96270100  0.30286200  1
  O  O43  1  0.80431700  0.40820600  0.77890100  1
  O  O44  1  0.69568300  0.90820600  0.77890100  1
  O  O45  1  0.94724400  0.03729900  0.80286200  1
  O  O46  1  0.09179400  0.22109900  0.30431700  1
  O  O47  1  0.19568300  0.90820600  0.72109900  1
  O  O48  1  0.46270100  0.30286200  0.94724400  1
  O  O49  1  0.40820600  0.72109900  0.30431700  1
  O  O50  1  0.53729900  0.69713800  0.05275600  1
  O  O51  1  0.03729900  0.80286200  0.94724400  1
  O  O52  1  0.19713800  0.05275600  0.96270100  1
  O  O53  1  0.69713800  0.05275600  0.53729900  1
  O  O54  1  0.22109900  0.30431700  0.09179400  1
  O  O55  1  0.53729900  0.80286200  0.55275600  1
  O  O56  1  0.19713800  0.44724400  0.46270100  1
  O  O57  1  0.59179400  0.22109900  0.19568300  1
  O  O58  1  0.27890100  0.69568300  0.59179400  1
  O  O59  1  0.09179400  0.27890100  0.80431700  1
  O  O60  1  0.69568300  0.59179400  0.27890100  1
  O  O61  1  0.77890100  0.69568300  0.90820600  1
  O  O62  1  0.72109900  0.30431700  0.40820600  1
  O  O63  1  0.05275600  0.53729900  0.69713800  1
  O  O64  1  0.05275600  0.96270100  0.19713800  1
  O  O65  1  0.77890100  0.80431700  0.40820600  1
  O  O66  1  0.90820600  0.77890100  0.69568300  1
  O  O67  1  0.27890100  0.80431700  0.09179400  1
  O  O68  1  0.30431700  0.09179400  0.22109900  1
  O  O69  1  0.80286200  0.55275600  0.53729900  1
  O  O70  1  0.30286200  0.55275600  0.96270100  1
  O  O71  1  0.30286200  0.94724400  0.46270100  1
  O  O72  1  0.03729900  0.69713800  0.44724400  1
  O  O73  1  0.96270100  0.30286200  0.55275600  1
  O  O74  1  0.22109900  0.19568300  0.59179400  1
  O  O75  1  0.30431700  0.40820600  0.72109900  1
  O  O76  1  0.19568300  0.59179400  0.22109900  1
  O  O77  1  0.59179400  0.27890100  0.69568300  1
  O  O78  1  0.80286200  0.94724400  0.03729900  1
  O  O79  1  0.72109900  0.19568300  0.90820600  1
