# generated using pymatgen
data_Gd(IO3)3
_symmetry_space_group_name_H-M   'P 1'
_cell_length_a   8.66106500
_cell_length_b   7.28651700
_cell_length_c   13.63808630
_cell_angle_alpha   79.65903142
_cell_angle_beta   90.00000000
_cell_angle_gamma   90.00000000
_symmetry_Int_Tables_number   1
_chemical_formula_structural   Gd(IO3)3
_chemical_formula_sum   'Gd4 I12 O36'
_cell_volume   846.70577585
_cell_formula_units_Z   4
loop_
 _symmetry_equiv_pos_site_id
 _symmetry_equiv_pos_as_xyz
  1  'x, y, z'
loop_
 _atom_site_type_symbol
 _atom_site_label
 _atom_site_symmetry_multiplicity
 _atom_site_fract_x
 _atom_site_fract_y
 _atom_site_fract_z
 _atom_site_occupancy
  Gd  Gd0  1  0.75470700  0.82673100  0.64539200  1
  Gd  Gd1  1  0.25470700  0.17326900  0.85460800  1
  Gd  Gd2  1  0.74529300  0.82673100  0.14539200  1
  Gd  Gd3  1  0.24529300  0.17326900  0.35460800  1
  I  I4  1  0.97975800  0.73337700  0.39046500  1
  I  I5  1  0.79378300  0.16777300  0.88961300  1
  I  I6  1  0.29378300  0.83222700  0.61038700  1
  I  I7  1  0.04355500  0.66805700  0.85689300  1
  I  I8  1  0.52024200  0.73337700  0.89046500  1
  I  I9  1  0.47975800  0.26662300  0.10953500  1
  I  I10  1  0.20621700  0.83222700  0.11038700  1
  I  I11  1  0.70621700  0.16777300  0.38961300  1
  I  I12  1  0.45644500  0.66805700  0.35689300  1
  I  I13  1  0.95644500  0.33194300  0.14310700  1
  I  I14  1  0.02024200  0.26662300  0.60953500  1
  I  I15  1  0.54355500  0.33194300  0.64310700  1
  O  O16  1  0.53196500  0.66146100  0.23195300  1
  O  O17  1  0.31099500  0.85227400  0.32343400  1
  O  O18  1  0.66906100  0.96726000  0.48828400  1
  O  O19  1  0.16573200  0.63918800  0.04527800  1
  O  O20  1  0.97199700  0.16152100  0.81771800  1
  O  O21  1  0.02778100  0.97918400  0.38646000  1
  O  O22  1  0.20721100  0.23109400  0.67516400  1
  O  O23  1  0.79278900  0.76890600  0.32483600  1
  O  O24  1  0.57794600  0.67893100  0.02076800  1
  O  O25  1  0.83093900  0.96726000  0.98828400  1
  O  O26  1  0.47221900  0.97918400  0.88646000  1
  O  O27  1  0.33093900  0.03274000  0.51171600  1
  O  O28  1  0.03196500  0.33853900  0.26804700  1
  O  O29  1  0.97221900  0.02081600  0.61354000  1
  O  O30  1  0.82569200  0.52815200  0.13698500  1
  O  O31  1  0.92205400  0.67893100  0.52076800  1
  O  O32  1  0.46803500  0.33853900  0.76804700  1
  O  O33  1  0.83426800  0.36081200  0.95472200  1
  O  O34  1  0.70721100  0.76890600  0.82483600  1
  O  O35  1  0.81099500  0.14772600  0.17656600  1
  O  O36  1  0.16906100  0.03274000  0.01171600  1
  O  O37  1  0.52778100  0.02081600  0.11354000  1
  O  O38  1  0.17430800  0.47184800  0.86301500  1
  O  O39  1  0.67430800  0.52815200  0.63698500  1
  O  O40  1  0.32569200  0.47184800  0.36301500  1
  O  O41  1  0.66573200  0.36081200  0.45472200  1
  O  O42  1  0.68900500  0.14772600  0.67656600  1
  O  O43  1  0.33426800  0.63918800  0.54527800  1
  O  O44  1  0.96803500  0.66146100  0.73195300  1
  O  O45  1  0.52800300  0.16152100  0.31771800  1
  O  O46  1  0.42205400  0.32106900  0.97923200  1
  O  O47  1  0.18900500  0.85227400  0.82343400  1
  O  O48  1  0.07794600  0.32106900  0.47923200  1
  O  O49  1  0.02800300  0.83847900  0.18228200  1
  O  O50  1  0.47199700  0.83847900  0.68228200  1
  O  O51  1  0.29278900  0.23109400  0.17516400  1
