# generated using pymatgen
data_ZnTe6O13
_symmetry_space_group_name_H-M   'P 1'
_cell_length_a   8.79884466
_cell_length_b   8.79884466
_cell_length_c   8.79884403
_cell_angle_alpha   71.84104706
_cell_angle_beta   71.84104706
_cell_angle_gamma   71.84104682
_symmetry_Int_Tables_number   1
_chemical_formula_structural   ZnTe6O13
_chemical_formula_sum   'Zn2 Te12 O26'
_cell_volume   597.42594312
_cell_formula_units_Z   2
loop_
 _symmetry_equiv_pos_site_id
 _symmetry_equiv_pos_as_xyz
  1  'x, y, z'
loop_
 _atom_site_type_symbol
 _atom_site_label
 _atom_site_symmetry_multiplicity
 _atom_site_fract_x
 _atom_site_fract_y
 _atom_site_fract_z
 _atom_site_occupancy
  Zn  Zn0  1  0.74264300  0.74264300  0.74264300  1
  Zn  Zn1  1  0.25735700  0.25735700  0.25735700  1
  Te  Te2  1  0.01210500  0.33376100  0.94099600  1
  Te  Te3  1  0.33376100  0.94099600  0.01210500  1
  Te  Te4  1  0.98789500  0.66623900  0.05900400  1
  Te  Te5  1  0.46919100  0.17551900  0.57869300  1
  Te  Te6  1  0.05900400  0.98789500  0.66623900  1
  Te  Te7  1  0.94099600  0.01210500  0.33376100  1
  Te  Te8  1  0.66623900  0.05900400  0.98789500  1
  Te  Te9  1  0.82448100  0.42130700  0.53080900  1
  Te  Te10  1  0.42130700  0.53080900  0.82448100  1
  Te  Te11  1  0.57869300  0.46919100  0.17551900  1
  Te  Te12  1  0.53080900  0.82448100  0.42130700  1
  Te  Te13  1  0.17551900  0.57869300  0.46919100  1
  O  O14  1  0.70130500  0.62529600  0.38573800  1
  O  O15  1  0.61426200  0.29869500  0.37470400  1
  O  O16  1  0.08750400  0.08750400  0.08750400  1
  O  O17  1  0.62529600  0.38573800  0.70130500  1
  O  O18  1  0.69686000  0.94700600  0.20099500  1
  O  O19  1  0.45575100  0.36369400  0.11598900  1
  O  O20  1  0.89711800  0.92175600  0.60265600  1
  O  O21  1  0.39734400  0.10288200  0.07824400  1
  O  O22  1  0.63630600  0.88401100  0.54424900  1
  O  O23  1  0.11598900  0.45575100  0.36369400  1
  O  O24  1  0.92175600  0.60265600  0.89711800  1
  O  O25  1  0.38573800  0.70130500  0.62529600  1
  O  O26  1  0.30314000  0.05299400  0.79900500  1
  O  O27  1  0.54424900  0.63630600  0.88401100  1
  O  O28  1  0.88401100  0.54424900  0.63630600  1
  O  O29  1  0.91249600  0.91249600  0.91249600  1
  O  O30  1  0.37470400  0.61426200  0.29869500  1
  O  O31  1  0.29869500  0.37470400  0.61426200  1
  O  O32  1  0.20099500  0.69686000  0.94700600  1
  O  O33  1  0.36369400  0.11598900  0.45575100  1
  O  O34  1  0.07824400  0.39734400  0.10288200  1
  O  O35  1  0.05299400  0.79900500  0.30314000  1
  O  O36  1  0.60265600  0.89711800  0.92175600  1
  O  O37  1  0.94700600  0.20099500  0.69686000  1
  O  O38  1  0.79900500  0.30314000  0.05299400  1
  O  O39  1  0.10288200  0.07824400  0.39734400  1
