# generated using pymatgen
data_AlCuAsO5
_symmetry_space_group_name_H-M   'P 1'
_cell_length_a   10.35546600
_cell_length_b   5.72510100
_cell_length_c   7.44807068
_cell_angle_alpha   79.40163303
_cell_angle_beta   90.00000000
_cell_angle_gamma   90.00000000
_symmetry_Int_Tables_number   1
_chemical_formula_structural   AlCuAsO5
_chemical_formula_sum   'Al4 Cu4 As4 O20'
_cell_volume   434.03410790
_cell_formula_units_Z   4
loop_
 _symmetry_equiv_pos_site_id
 _symmetry_equiv_pos_as_xyz
  1  'x, y, z'
loop_
 _atom_site_type_symbol
 _atom_site_label
 _atom_site_symmetry_multiplicity
 _atom_site_fract_x
 _atom_site_fract_y
 _atom_site_fract_z
 _atom_site_occupancy
  Al  Al0  1  0.32191000  0.93660000  0.85322400  1
  Al  Al1  1  0.67809000  0.06340000  0.14677600  1
  Al  Al2  1  0.17809000  0.43660000  0.85322400  1
  Al  Al3  1  0.82191000  0.56340000  0.14677600  1
  Cu  Cu4  1  0.64297000  0.59185400  0.46022000  1
  Cu  Cu5  1  0.85703000  0.09185400  0.46022000  1
  Cu  Cu6  1  0.35703000  0.40814600  0.53978000  1
  Cu  Cu7  1  0.14297000  0.90814600  0.53978000  1
  As  As8  1  0.39091200  0.92228200  0.27367400  1
  As  As9  1  0.89091200  0.57771800  0.72632600  1
  As  As10  1  0.10908800  0.42228200  0.27367400  1
  As  As11  1  0.60908800  0.07771800  0.72632600  1
  O  O12  1  0.79886600  0.62630200  0.90621800  1
  O  O13  1  0.53894700  0.34961100  0.62000400  1
  O  O14  1  0.77773600  0.26646200  0.23387000  1
  O  O15  1  0.51399600  0.11498000  0.19761700  1
  O  O16  1  0.27773600  0.23353800  0.76613000  1
  O  O17  1  0.19520000  0.54598800  0.43053300  1
  O  O18  1  0.46105300  0.65038900  0.37999600  1
  O  O19  1  0.03894700  0.15038900  0.37999600  1
  O  O20  1  0.80480000  0.45401200  0.56946700  1
  O  O21  1  0.48600400  0.88502000  0.80238300  1
  O  O22  1  0.70113400  0.12630200  0.90621800  1
  O  O23  1  0.20113400  0.37369800  0.09378200  1
  O  O24  1  0.30480000  0.04598800  0.43053300  1
  O  O25  1  0.98600400  0.61498000  0.19761700  1
  O  O26  1  0.29886600  0.87369800  0.09378200  1
  O  O27  1  0.69520000  0.95401200  0.56946700  1
  O  O28  1  0.22226400  0.73353800  0.76613000  1
  O  O29  1  0.72226400  0.76646200  0.23387000  1
  O  O30  1  0.96105300  0.84961100  0.62000400  1
  O  O31  1  0.01399600  0.38502000  0.80238300  1
