# generated using pymatgen
data_VH14C4NO2F3
_symmetry_space_group_name_H-M   'P 1'
_cell_length_a   7.01874400
_cell_length_b   8.21041304
_cell_length_c   9.23483414
_cell_angle_alpha   114.00803516
_cell_angle_beta   83.48742916
_cell_angle_gamma   107.45676249
_symmetry_Int_Tables_number   1
_chemical_formula_structural   VH14C4NO2F3
_chemical_formula_sum   'V2 H28 C8 N2 O4 F6'
_cell_volume   463.72225377
_cell_formula_units_Z   2
loop_
 _symmetry_equiv_pos_site_id
 _symmetry_equiv_pos_as_xyz
  1  'x, y, z'
loop_
 _atom_site_type_symbol
 _atom_site_label
 _atom_site_symmetry_multiplicity
 _atom_site_fract_x
 _atom_site_fract_y
 _atom_site_fract_z
 _atom_site_occupancy
  V  V0  1  0.31658300  0.49118200  0.63210200  1
  V  V1  1  0.68341700  0.50881800  0.36789800  1
  H  H2  1  0.30352600  0.03549300  0.41763100  1
  H  H3  1  0.75569500  0.98795100  0.85158400  1
  H  H4  1  0.56246500  0.82795100  0.05316200  1
  H  H5  1  0.71133400  0.45617800  0.98782100  1
  H  H6  1  0.43753500  0.17204900  0.94683800  1
  H  H7  1  0.96397800  0.18754300  0.86720000  1
  H  H8  1  0.90286000  0.16957400  0.61635500  1
  H  H9  1  0.26489700  0.31058600  0.33369500  1
  H  H10  1  0.89982800  0.45312300  0.83790000  1
  H  H11  1  0.61317300  0.83835300  0.24372900  1
  H  H12  1  0.43293000  0.96427200  0.77219800  1
  H  H13  1  0.77434600  0.20507900  0.01772300  1
  H  H14  1  0.69647400  0.96450700  0.58236900  1
  H  H15  1  0.24430500  0.01204900  0.14841600  1
  H  H16  1  0.09714000  0.83042600  0.38364500  1
  H  H17  1  0.04208400  0.33579700  0.38535500  1
  H  H18  1  0.38682700  0.16164700  0.75627100  1
  H  H19  1  0.66213200  0.16504300  0.56371700  1
  H  H20  1  0.73510300  0.68941400  0.66630500  1
  H  H21  1  0.03602200  0.81245700  0.13280000  1
  H  H22  1  0.10017200  0.54687700  0.16210000  1
  H  H23  1  0.35043100  0.56190900  0.20352000  1
  H  H24  1  0.64956900  0.43809100  0.79648000  1
  H  H25  1  0.22565400  0.79492100  0.98227700  1
  H  H26  1  0.33786800  0.83495700  0.43628300  1
  H  H27  1  0.28866600  0.54382200  0.01217900  1
  H  H28  1  0.56707000  0.03572800  0.22780200  1
  H  H29  1  0.95791600  0.66420300  0.61464500  1
  C  C30  1  0.74105800  0.40126800  0.86029700  1
  C  C31  1  0.25884100  0.88362100  0.37333000  1
  C  C32  1  0.53067800  0.88385300  0.18032700  1
  C  C33  1  0.74115900  0.11637900  0.62667000  1
  C  C34  1  0.46932200  0.11614700  0.81967300  1
  C  C35  1  0.25894200  0.59873200  0.13970300  1
  C  C36  1  0.19490700  0.86067300  0.10873500  1
  C  C37  1  0.80509300  0.13932700  0.89126500  1
  N  N38  1  0.31101900  0.80689500  0.20064500  1
  N  N39  1  0.68898100  0.19310500  0.79935500  1
  O  O40  1  0.16222300  0.31598200  0.41850000  1
  O  O41  1  0.83777700  0.68401800  0.58150000  1
  O  O42  1  0.78775700  0.63218000  0.26171700  1
  O  O43  1  0.21224300  0.36782000  0.73828300  1
  F  F44  1  0.84847100  0.34197900  0.31888700  1
  F  F45  1  0.52669300  0.36734000  0.52517900  1
  F  F46  1  0.52761600  0.68726800  0.77754400  1
  F  F47  1  0.15152900  0.65802100  0.68111300  1
  F  F48  1  0.47238400  0.31273200  0.22245600  1
  F  F49  1  0.47330700  0.63266000  0.47482100  1
