# generated using pymatgen
data_TlB2O5
_symmetry_space_group_name_H-M   'P 1'
_cell_length_a   8.71602700
_cell_length_b   9.60881300
_cell_length_c   11.14447100
_cell_angle_alpha   90.00000000
_cell_angle_beta   90.00000000
_cell_angle_gamma   90.00000000
_symmetry_Int_Tables_number   1
_chemical_formula_structural   TlB2O5
_chemical_formula_sum   'Tl8 B16 O40'
_cell_volume   933.35695256
_cell_formula_units_Z   8
loop_
 _symmetry_equiv_pos_site_id
 _symmetry_equiv_pos_as_xyz
  1  'x, y, z'
loop_
 _atom_site_type_symbol
 _atom_site_label
 _atom_site_symmetry_multiplicity
 _atom_site_fract_x
 _atom_site_fract_y
 _atom_site_fract_z
 _atom_site_occupancy
  Tl  Tl0  1  0.48922800  0.48332000  0.56138900  1
  Tl  Tl1  1  0.51077200  0.98332000  0.93861100  1
  Tl  Tl2  1  0.01077200  0.51668000  0.06138900  1
  Tl  Tl3  1  0.98922800  0.01668000  0.43861100  1
  Tl  Tl4  1  0.77264400  0.25746100  0.77561800  1
  Tl  Tl5  1  0.22735600  0.75746100  0.72438200  1
  Tl  Tl6  1  0.72735600  0.74253900  0.27561800  1
  Tl  Tl7  1  0.27264400  0.24253900  0.22438200  1
  B  B8  1  0.49275500  0.01132200  0.67522100  1
  B  B9  1  0.50724500  0.51132200  0.82477900  1
  B  B10  1  0.00724500  0.98867800  0.17522100  1
  B  B11  1  0.99275500  0.48867800  0.32477900  1
  B  B12  1  0.40882400  0.25814000  0.75650600  1
  B  B13  1  0.59117600  0.75814000  0.74349400  1
  B  B14  1  0.09117600  0.74186000  0.25650600  1
  B  B15  1  0.90882400  0.24186000  0.24349400  1
  B  B16  1  0.70664200  0.88947200  0.57387900  1
  B  B17  1  0.29335800  0.38947200  0.92612100  1
  B  B18  1  0.79335800  0.11052800  0.07387900  1
  B  B19  1  0.20664200  0.61052800  0.42612100  1
  B  B20  1  0.27095300  0.13902500  0.58798500  1
  B  B21  1  0.72904700  0.63902500  0.91201500  1
  B  B22  1  0.22904700  0.86097500  0.08798500  1
  B  B23  1  0.77095300  0.36097500  0.41201500  1
  O  O24  1  0.50166200  0.12829100  0.76327500  1
  O  O25  1  0.49833800  0.62829100  0.73672500  1
  O  O26  1  0.99833800  0.87170900  0.26327500  1
  O  O27  1  0.00166200  0.37170900  0.23672500  1
  O  O28  1  0.62965600  0.01004100  0.59978700  1
  O  O29  1  0.37034400  0.51004100  0.90021300  1
  O  O30  1  0.87034400  0.98995900  0.09978700  1
  O  O31  1  0.12965600  0.48995900  0.40021300  1
  O  O32  1  0.34834800  0.01647000  0.60666300  1
  O  O33  1  0.65165200  0.51647000  0.89333700  1
  O  O34  1  0.15165200  0.98353000  0.10666300  1
  O  O35  1  0.84834800  0.48353000  0.39333700  1
  O  O36  1  0.48642500  0.88229700  0.75305000  1
  O  O37  1  0.51357500  0.38229700  0.74695000  1
  O  O38  1  0.01357500  0.11770300  0.25305000  1
  O  O39  1  0.98642500  0.61770300  0.24695000  1
  O  O40  1  0.31943500  0.26689500  0.86629800  1
  O  O41  1  0.68056500  0.76689500  0.63370200  1
  O  O42  1  0.18056500  0.73310500  0.36629800  1
  O  O43  1  0.81943500  0.23310500  0.13370200  1
  O  O44  1  0.31689800  0.26074800  0.64524600  1
  O  O45  1  0.68310200  0.76074800  0.85475400  1
  O  O46  1  0.18310200  0.73925200  0.14524600  1
  O  O47  1  0.81689800  0.23925200  0.35475400  1
  O  O48  1  0.81236100  0.88035000  0.47984900  1
  O  O49  1  0.18763900  0.38035000  0.02015100  1
  O  O50  1  0.68763900  0.11965000  0.97984900  1
  O  O51  1  0.31236100  0.61965000  0.52015100  1
  O  O52  1  0.14697300  0.15402700  0.51170100  1
  O  O53  1  0.85302700  0.65402700  0.98829900  1
  O  O54  1  0.35302700  0.84597300  0.01170100  1
  O  O55  1  0.64697300  0.34597300  0.48829900  1
  O  O56  1  0.50340000  0.98770600  0.27378300  1
  O  O57  1  0.49660000  0.48770600  0.22621700  1
  O  O58  1  0.99660000  0.01229400  0.77378300  1
  O  O59  1  0.00340000  0.51229400  0.72621700  1
  O  O60  1  0.57911400  0.43506400  0.14817900  1
  O  O61  1  0.42088600  0.93506400  0.35182100  1
  O  O62  1  0.92088600  0.56493600  0.64817900  1
  O  O63  1  0.07911400  0.06493600  0.85182100  1
