# generated using pymatgen
data_KAlSiO4
_symmetry_space_group_name_H-M   'P 1'
_cell_length_a   9.17573800
_cell_length_b   8.68563800
_cell_length_c   15.90816590
_cell_angle_alpha   89.78897475
_cell_angle_beta   90.00000000
_cell_angle_gamma   90.00000000
_symmetry_Int_Tables_number   1
_chemical_formula_structural   KAlSiO4
_chemical_formula_sum   'K12 Al12 Si12 O48'
_cell_volume   1267.82670409
_cell_formula_units_Z   12
loop_
 _symmetry_equiv_pos_site_id
 _symmetry_equiv_pos_as_xyz
  1  'x, y, z'
loop_
 _atom_site_type_symbol
 _atom_site_label
 _atom_site_symmetry_multiplicity
 _atom_site_fract_x
 _atom_site_fract_y
 _atom_site_fract_z
 _atom_site_occupancy
  K  K0  1  0.99995500  0.24555600  0.93853600  1
  K  K1  1  0.00355100  0.74777800  0.54838700  1
  K  K2  1  0.98320100  0.74627100  0.89188600  1
  K  K3  1  0.96950600  0.75199400  0.29368100  1
  K  K4  1  0.46950600  0.24800600  0.70631900  1
  K  K5  1  0.01298700  0.24769300  0.60451400  1
  K  K6  1  0.50355100  0.25222200  0.45161300  1
  K  K7  1  0.53050200  0.74685600  0.79203900  1
  K  K8  1  0.51298700  0.75230700  0.39548600  1
  K  K9  1  0.49995500  0.75444400  0.06146400  1
  K  K10  1  0.03050200  0.25314400  0.20796100  1
  K  K11  1  0.48320100  0.25372900  0.10811400  1
  Al  Al12  1  0.34249900  0.56271200  0.56332500  1
  Al  Al13  1  0.33434800  0.43507900  0.88730900  1
  Al  Al14  1  0.16488900  0.93858400  0.05521000  1
  Al  Al15  1  0.83434800  0.56492100  0.11269100  1
  Al  Al16  1  0.65715100  0.06535800  0.27458700  1
  Al  Al17  1  0.66488900  0.06141600  0.94479000  1
  Al  Al18  1  0.84249900  0.43728800  0.43667500  1
  Al  Al19  1  0.82343000  0.43322100  0.76869500  1
  Al  Al20  1  0.67436300  0.93292000  0.60039000  1
  Al  Al21  1  0.17436300  0.06708000  0.39961000  1
  Al  Al22  1  0.15715100  0.93464200  0.72541300  1
  Al  Al23  1  0.32343000  0.56677900  0.23130500  1
  Si  Si24  1  0.82288200  0.05653100  0.76942500  1
  Si  Si25  1  0.17500600  0.44362400  0.40037200  1
  Si  Si26  1  0.33350000  0.05336600  0.88708600  1
  Si  Si27  1  0.16719300  0.55247200  0.05547300  1
  Si  Si28  1  0.84238500  0.05621800  0.43607200  1
  Si  Si29  1  0.83350000  0.94663400  0.11291400  1
  Si  Si30  1  0.34238500  0.94378200  0.56392800  1
  Si  Si31  1  0.32288200  0.94346900  0.23057500  1
  Si  Si32  1  0.15575100  0.55483500  0.72550000  1
  Si  Si33  1  0.65575100  0.44516500  0.27450000  1
  Si  Si34  1  0.66719300  0.44752800  0.94452700  1
  Si  Si35  1  0.67500600  0.55637600  0.59962800  1
  O  O36  1  0.77909400  0.23781200  0.75633000  1
  O  O37  1  0.99660200  0.03376400  0.75109200  1
  O  O38  1  0.70698200  0.97658300  0.04231700  1
  O  O39  1  0.51455000  0.47661600  0.58119700  1
  O  O40  1  0.16806400  0.73854600  0.03944000  1
  O  O41  1  0.70546600  0.53364400  0.03310400  1
  O  O42  1  0.17559500  0.26214900  0.42730100  1
  O  O43  1  0.50211200  0.02214300  0.58447700  1
  O  O44  1  0.30031100  0.52919200  0.45691100  1
  O  O45  1  0.66806400  0.26145400  0.96056000  1
  O  O46  1  0.28888900  0.50444000  0.12695400  1
  O  O47  1  0.28819900  0.53122300  0.79338500  1
  O  O48  1  0.34344200  0.23739400  0.86599900  1
  O  O49  1  0.80581800  0.01912700  0.53485900  1
  O  O50  1  0.79239700  0.00326400  0.86774900  1
  O  O51  1  0.61075800  0.26236500  0.28000400  1
  O  O52  1  0.80031100  0.47080800  0.54308900  1
  O  O53  1  0.29239700  0.99673600  0.13225100  1
  O  O54  1  0.78888900  0.49556000  0.87304600  1
  O  O55  1  0.21630000  0.01263100  0.62729100  1
  O  O56  1  0.84989100  0.24029100  0.42160400  1
  O  O57  1  0.20546600  0.46635600  0.96689600  1
  O  O58  1  0.20882200  0.48965300  0.63286900  1
  O  O59  1  0.79611600  0.03897100  0.19996000  1
  O  O60  1  0.67559500  0.73785100  0.57269900  1
  O  O61  1  0.49660200  0.96623600  0.24890800  1
  O  O62  1  0.34989100  0.75970900  0.57839600  1
  O  O63  1  0.78819900  0.46877700  0.20661500  1
  O  O64  1  0.00211200  0.97785700  0.41552300  1
  O  O65  1  0.50578300  0.50996900  0.91624000  1
  O  O66  1  0.01455000  0.52338400  0.41880300  1
  O  O67  1  0.21999400  0.04618700  0.29286900  1
  O  O68  1  0.51123000  0.54335700  0.24715000  1
  O  O69  1  0.84344200  0.76260600  0.13400100  1
  O  O70  1  0.20698200  0.02341700  0.95768300  1
  O  O71  1  0.49102200  0.98766900  0.92092800  1
  O  O72  1  0.21026400  0.46298100  0.30002500  1
  O  O73  1  0.71026400  0.53701900  0.69997500  1
  O  O74  1  0.27909400  0.76218800  0.24367000  1
  O  O75  1  0.71999400  0.95381300  0.70713100  1
  O  O76  1  0.70882200  0.51034700  0.36713100  1
  O  O77  1  0.71630000  0.98736900  0.37270900  1
  O  O78  1  0.11075800  0.73763500  0.71999600  1
  O  O79  1  0.99102200  0.01233100  0.07907200  1
  O  O80  1  0.01123000  0.45664300  0.75285000  1
  O  O81  1  0.29611600  0.96102900  0.80004000  1
  O  O82  1  0.30581800  0.98087300  0.46514100  1
  O  O83  1  0.00578300  0.49003100  0.08376000  1
