# generated using pymatgen
data_AgH11C4(SO)3
_symmetry_space_group_name_H-M   'P 1'
_cell_length_a   7.69177800
_cell_length_b   9.80431600
_cell_length_c   16.85890149
_cell_angle_alpha   55.79082923
_cell_angle_beta   90.00000000
_cell_angle_gamma   90.00000000
_symmetry_Int_Tables_number   1
_chemical_formula_structural   AgH11C4(SO)3
_chemical_formula_sum   'Ag4 H44 C16 S12 O12'
_cell_volume   1051.41431564
_cell_formula_units_Z   4
loop_
 _symmetry_equiv_pos_site_id
 _symmetry_equiv_pos_as_xyz
  1  'x, y, z'
loop_
 _atom_site_type_symbol
 _atom_site_label
 _atom_site_symmetry_multiplicity
 _atom_site_fract_x
 _atom_site_fract_y
 _atom_site_fract_z
 _atom_site_occupancy
  Ag  Ag0  1  0.81060400  0.50205600  0.95863600  1
  Ag  Ag1  1  0.18939600  0.49794400  0.04136400  1
  Ag  Ag2  1  0.31060400  0.49794400  0.54136400  1
  Ag  Ag3  1  0.68939600  0.50205600  0.45863600  1
  H  H4  1  0.04704700  0.41602200  0.26329000  1
  H  H5  1  0.24941800  0.82551900  0.58550300  1
  H  H6  1  0.36438800  0.85278400  0.34218500  1
  H  H7  1  0.51030100  0.99140100  0.65731300  1
  H  H8  1  0.54704700  0.58397800  0.23671000  1
  H  H9  1  0.84476900  0.12241600  0.52530700  1
  H  H10  1  0.75114400  0.47451700  0.77765300  1
  H  H11  1  0.01030100  0.00859900  0.84268700  1
  H  H12  1  0.84387300  0.83387000  0.45077900  1
  H  H13  1  0.76283800  0.66203400  0.66106100  1
  H  H14  1  0.81812400  0.99028900  0.02408900  1
  H  H15  1  0.45855400  0.13894000  0.14940000  1
  H  H16  1  0.15523100  0.87758400  0.47469300  1
  H  H17  1  0.75058200  0.17448100  0.41449700  1
  H  H18  1  0.18187600  0.00971100  0.97591100  1
  H  H19  1  0.45295300  0.41602200  0.76329000  1
  H  H20  1  0.04144600  0.13894000  0.64940000  1
  H  H21  1  0.48969900  0.00859900  0.34268700  1
  H  H22  1  0.68187600  0.99028900  0.52408900  1
  H  H23  1  0.25114400  0.52548300  0.72234700  1
  H  H24  1  0.95295300  0.58397800  0.73671000  1
  H  H25  1  0.15612700  0.16613000  0.54922100  1
  H  H26  1  0.32371100  0.97432600  0.16668200  1
  H  H27  1  0.31812400  0.00971100  0.47591100  1
  H  H28  1  0.86438800  0.14721600  0.15781500  1
  H  H29  1  0.73716200  0.66203400  0.16106100  1
  H  H30  1  0.24885600  0.52548300  0.22234700  1
  H  H31  1  0.74885600  0.47451700  0.27765300  1
  H  H32  1  0.67628900  0.02567400  0.83331800  1
  H  H33  1  0.98969900  0.99140100  0.15731300  1
  H  H34  1  0.54144600  0.86106000  0.85060000  1
  H  H35  1  0.65523100  0.12241600  0.02530700  1
  H  H36  1  0.25058200  0.82551900  0.08550300  1
  H  H37  1  0.23716200  0.33796600  0.33893900  1
  H  H38  1  0.65612700  0.83387000  0.95077900  1
  H  H39  1  0.26283800  0.33796600  0.83893900  1
  H  H40  1  0.95855400  0.86106000  0.35060000  1
  H  H41  1  0.34476900  0.87758400  0.97469300  1
  H  H42  1  0.13561200  0.85278400  0.84218500  1
  H  H43  1  0.34387300  0.16613000  0.04922100  1
  H  H44  1  0.82371100  0.02567400  0.33331800  1
  H  H45  1  0.63561200  0.14721600  0.65781500  1
  H  H46  1  0.17628900  0.97432600  0.66668200  1
  H  H47  1  0.74941800  0.17448100  0.91449700  1
  C  C48  1  0.97587100  0.12404900  0.12631700  1
  C  C49  1  0.22609000  0.88221700  0.00897700  1
  C  C50  1  0.33446100  0.44885400  0.78508200  1
  C  C51  1  0.66068000  0.89139100  0.87324200  1
  C  C52  1  0.77391000  0.11778300  0.99102300  1
  C  C53  1  0.16553900  0.44885400  0.28508200  1
  C  C54  1  0.02412900  0.87595100  0.87368300  1
  C  C55  1  0.72609000  0.11778300  0.49102300  1
  C  C56  1  0.83446100  0.55114600  0.71491800  1
  C  C57  1  0.33932000  0.10860900  0.12675800  1
  C  C58  1  0.83932000  0.89139100  0.37324200  1
  C  C59  1  0.66553900  0.55114600  0.21491800  1
  C  C60  1  0.16068000  0.10860900  0.62675800  1
  C  C61  1  0.27391000  0.88221700  0.50897700  1
  C  C62  1  0.47587100  0.87595100  0.37368300  1
  C  C63  1  0.52412900  0.12404900  0.62631700  1
  S  S64  1  0.66422000  0.80696100  0.34177200  1
  S  S65  1  0.16422000  0.19303900  0.15822800  1
  S  S66  1  0.05306200  0.76279600  0.00305100  1
  S  S67  1  0.44693800  0.76279600  0.50305100  1
  S  S68  1  0.10497200  0.56163900  0.33517900  1
  S  S69  1  0.39502800  0.56163900  0.83517900  1
  S  S70  1  0.83578000  0.80696100  0.84177200  1
  S  S71  1  0.33578000  0.19303900  0.65822800  1
  S  S72  1  0.55306200  0.23720400  0.49694900  1
  S  S73  1  0.94693800  0.23720400  0.99694900  1
  S  S74  1  0.60497200  0.43836100  0.16482100  1
  S  S75  1  0.89502800  0.43836100  0.66482100  1
  O  O76  1  0.98426100  0.45118000  0.41446100  1
  O  O77  1  0.73142800  0.40942600  0.62959800  1
  O  O78  1  0.48426100  0.54882000  0.08553900  1
  O  O79  1  0.47542900  0.71590200  0.75726800  1
  O  O80  1  0.23142800  0.59057400  0.87040200  1
  O  O81  1  0.01573900  0.54882000  0.58553900  1
  O  O82  1  0.52457100  0.28409800  0.24273200  1
  O  O83  1  0.26857200  0.59057400  0.37040200  1
  O  O84  1  0.97542900  0.28409800  0.74273200  1
  O  O85  1  0.76857200  0.40942600  0.12959800  1
  O  O86  1  0.02457100  0.71590200  0.25726800  1
  O  O87  1  0.51573900  0.45118000  0.91446100  1
