# generated using pymatgen
data_Na2BeSiO4
_symmetry_space_group_name_H-M   'P 1'
_cell_length_a   4.98793500
_cell_length_b   9.97274700
_cell_length_c   14.21488700
_cell_angle_alpha   90.00000000
_cell_angle_beta   90.00000000
_cell_angle_gamma   90.00000000
_symmetry_Int_Tables_number   1
_chemical_formula_structural   Na2BeSiO4
_chemical_formula_sum   'Na16 Be8 Si8 O32'
_cell_volume   707.09700627
_cell_formula_units_Z   8
loop_
 _symmetry_equiv_pos_site_id
 _symmetry_equiv_pos_as_xyz
  1  'x, y, z'
loop_
 _atom_site_type_symbol
 _atom_site_label
 _atom_site_symmetry_multiplicity
 _atom_site_fract_x
 _atom_site_fract_y
 _atom_site_fract_z
 _atom_site_occupancy
  Na  Na0  1  0.00867300  0.00703900  0.04197300  1
  Na  Na1  1  0.97884600  0.77987100  0.21383300  1
  Na  Na2  1  0.50967000  0.49204400  0.92714000  1
  Na  Na3  1  0.49033000  0.50795600  0.42714000  1
  Na  Na4  1  0.97884600  0.72012900  0.71383300  1
  Na  Na5  1  0.00867300  0.49296100  0.54197300  1
  Na  Na6  1  0.50967000  0.00795600  0.42714000  1
  Na  Na7  1  0.49033000  0.99204400  0.92714000  1
  Na  Na8  1  0.47182600  0.76479200  0.33647200  1
  Na  Na9  1  0.02115400  0.27987100  0.21383300  1
  Na  Na10  1  0.02115400  0.22012900  0.71383300  1
  Na  Na11  1  0.47182600  0.73520800  0.83647200  1
  Na  Na12  1  0.52817400  0.26479200  0.33647200  1
  Na  Na13  1  0.52817400  0.23520800  0.83647200  1
  Na  Na14  1  0.99132700  0.99296100  0.54197300  1
  Na  Na15  1  0.99132700  0.50703900  0.04197300  1
  Be  Be16  1  0.98950600  0.76612000  0.42595400  1
  Be  Be17  1  0.01049400  0.26612000  0.42595400  1
  Be  Be18  1  0.04381700  0.01601100  0.31727000  1
  Be  Be19  1  0.95618300  0.98398900  0.81727000  1
  Be  Be20  1  0.04381700  0.48398900  0.81727000  1
  Be  Be21  1  0.01049400  0.23388000  0.92595400  1
  Be  Be22  1  0.98950600  0.73388000  0.92595400  1
  Be  Be23  1  0.95618300  0.51601100  0.31727000  1
  Si  Si24  1  0.52380900  0.48797700  0.69163600  1
  Si  Si25  1  0.50872200  0.26336800  0.05962700  1
  Si  Si26  1  0.47619100  0.51202300  0.19163600  1
  Si  Si27  1  0.52380900  0.01202300  0.19163600  1
  Si  Si28  1  0.47619100  0.98797700  0.69163600  1
  Si  Si29  1  0.49127800  0.76336800  0.05962700  1
  Si  Si30  1  0.49127800  0.73663200  0.55962700  1
  Si  Si31  1  0.50872200  0.23663200  0.55962700  1
  O  O32  1  0.29264000  0.48846500  0.28353000  1
  O  O33  1  0.27744900  0.31328800  0.50130700  1
  O  O34  1  0.70736000  0.98846500  0.28353000  1
  O  O35  1  0.11555600  0.33691400  0.84975600  1
  O  O36  1  0.87655100  0.40038400  0.38927600  1
  O  O37  1  0.62913800  0.90277600  0.10759600  1
  O  O38  1  0.70736000  0.51153500  0.78353000  1
  O  O39  1  0.20528800  0.50878600  0.70481900  1
  O  O40  1  0.37086200  0.40277600  0.10759600  1
  O  O41  1  0.12344900  0.59961600  0.88927600  1
  O  O42  1  0.88444400  0.83691400  0.84975600  1
  O  O43  1  0.27744900  0.18671200  0.00130700  1
  O  O44  1  0.72255100  0.81328800  0.50130700  1
  O  O45  1  0.60484800  0.33347300  0.65078500  1
  O  O46  1  0.72255100  0.68671200  0.00130700  1
  O  O47  1  0.79471200  0.49121400  0.20481900  1
  O  O48  1  0.60484800  0.16652700  0.15078500  1
  O  O49  1  0.12344900  0.90038400  0.38927600  1
  O  O50  1  0.11555600  0.16308600  0.34975600  1
  O  O51  1  0.39515200  0.83347300  0.65078500  1
  O  O52  1  0.39515200  0.66652700  0.15078500  1
  O  O53  1  0.79471200  0.00878600  0.70481900  1
  O  O54  1  0.62913800  0.59722400  0.60759600  1
  O  O55  1  0.23533500  0.81243100  0.99902600  1
  O  O56  1  0.88444400  0.66308600  0.34975600  1
  O  O57  1  0.29264000  0.01153500  0.78353000  1
  O  O58  1  0.37086200  0.09722400  0.60759600  1
  O  O59  1  0.23533500  0.68756900  0.49902600  1
  O  O60  1  0.20528800  0.99121400  0.20481900  1
  O  O61  1  0.76466500  0.31243100  0.99902600  1
  O  O62  1  0.76466500  0.18756900  0.49902600  1
  O  O63  1  0.87655100  0.09961600  0.88927600  1
