# generated using pymatgen
data_Sr2CaWO6
_symmetry_space_group_name_H-M   'P 1'
_cell_length_a   5.90842900
_cell_length_b   5.96567900
_cell_length_c   8.37512500
_cell_angle_alpha   90.00000000
_cell_angle_beta   90.00000000
_cell_angle_gamma   90.00000000
_symmetry_Int_Tables_number   1
_chemical_formula_structural   Sr2CaWO6
_chemical_formula_sum   'Sr4 Ca2 W2 O12'
_cell_volume   295.20465399
_cell_formula_units_Z   2
loop_
 _symmetry_equiv_pos_site_id
 _symmetry_equiv_pos_as_xyz
  1  'x, y, z'
loop_
 _atom_site_type_symbol
 _atom_site_label
 _atom_site_symmetry_multiplicity
 _atom_site_fract_x
 _atom_site_fract_y
 _atom_site_fract_z
 _atom_site_occupancy
  Sr  Sr0  1  0.00000000  0.51629100  0.25457600  1
  Sr  Sr1  1  0.50000000  0.99069500  0.24823000  1
  Sr  Sr2  1  0.00000000  0.51629100  0.74542400  1
  Sr  Sr3  1  0.50000000  0.99069500  0.75177000  1
  Ca  Ca4  1  0.50000000  0.47275800  0.00000000  1
  Ca  Ca5  1  0.00000000  0.99689900  0.50000000  1
  W  W6  1  0.00000000  0.96812800  0.00000000  1
  W  W7  1  0.50000000  0.49144700  0.50000000  1
  O  O8  1  0.26917600  0.72585700  0.50000000  1
  O  O9  1  0.26435200  0.26361000  0.50000000  1
  O  O10  1  0.00000000  0.95841300  0.23266100  1
  O  O11  1  0.00000000  0.95841300  0.76733900  1
  O  O12  1  0.50000000  0.48423800  0.73218800  1
  O  O13  1  0.22277000  0.72357900  0.00000000  1
  O  O14  1  0.73082400  0.72585700  0.50000000  1
  O  O15  1  0.77723000  0.72357900  0.00000000  1
  O  O16  1  0.75514200  0.18270100  0.00000000  1
  O  O17  1  0.73564800  0.26361000  0.50000000  1
  O  O18  1  0.50000000  0.48423800  0.26781200  1
  O  O19  1  0.24485800  0.18270100  0.00000000  1
