# generated using pymatgen
data_RbTi2(PO4)3
_symmetry_space_group_name_H-M   'P 1'
_cell_length_a   9.30089372
_cell_length_b   9.30089372
_cell_length_c   9.30089344
_cell_angle_alpha   53.82518041
_cell_angle_beta   53.82518041
_cell_angle_gamma   53.82518477
_symmetry_Int_Tables_number   1
_chemical_formula_structural   RbTi2(PO4)3
_chemical_formula_sum   'Rb2 Ti4 P6 O24'
_cell_volume   486.82203258
_cell_formula_units_Z   2
loop_
 _symmetry_equiv_pos_site_id
 _symmetry_equiv_pos_as_xyz
  1  'x, y, z'
loop_
 _atom_site_type_symbol
 _atom_site_label
 _atom_site_symmetry_multiplicity
 _atom_site_fract_x
 _atom_site_fract_y
 _atom_site_fract_z
 _atom_site_occupancy
  Rb  Rb0  1  0.50000000  0.50000000  0.50000000  1
  Rb  Rb1  1  0.00000000  0.00000000  0.00000000  1
  Ti  Ti2  1  0.34856700  0.34856700  0.34856700  1
  Ti  Ti3  1  0.84982400  0.84982400  0.84982400  1
  Ti  Ti4  1  0.65143300  0.65143300  0.65143300  1
  Ti  Ti5  1  0.15017600  0.15017600  0.15017600  1
  P  P6  1  0.96994000  0.25054200  0.53042200  1
  P  P7  1  0.53042200  0.96994000  0.25054200  1
  P  P8  1  0.25054200  0.53042200  0.96994000  1
  P  P9  1  0.74945800  0.46957800  0.03006000  1
  P  P10  1  0.03006000  0.74945800  0.46957800  1
  P  P11  1  0.46957800  0.03006000  0.74945800  1
  O  O12  1  0.55927600  0.44213900  0.19094000  1
  O  O13  1  0.48636800  0.84386700  0.76986300  1
  O  O14  1  0.29417600  0.08372600  0.92221000  1
  O  O15  1  0.44213900  0.19094000  0.55927600  1
  O  O16  1  0.35256500  0.98857600  0.25300300  1
  O  O17  1  0.70582400  0.91627400  0.07779000  1
  O  O18  1  0.91627400  0.07779000  0.70582400  1
  O  O19  1  0.76986300  0.48636800  0.84386700  1
  O  O20  1  0.80906000  0.44072400  0.55786100  1
  O  O21  1  0.15613300  0.23013700  0.51363200  1
  O  O22  1  0.98857600  0.25300300  0.35256500  1
  O  O23  1  0.19094000  0.55927600  0.44213900  1
  O  O24  1  0.55786100  0.80906000  0.44072400  1
  O  O25  1  0.01142400  0.74699700  0.64743500  1
  O  O26  1  0.23013700  0.51363200  0.15613300  1
  O  O27  1  0.07779000  0.70582400  0.91627400  1
  O  O28  1  0.08372600  0.92221000  0.29417600  1
  O  O29  1  0.84386700  0.76986300  0.48636800  1
  O  O30  1  0.92221000  0.29417600  0.08372600  1
  O  O31  1  0.64743500  0.01142400  0.74699700  1
  O  O32  1  0.25300300  0.35256500  0.98857600  1
  O  O33  1  0.51363200  0.15613300  0.23013700  1
  O  O34  1  0.44072400  0.55786100  0.80906000  1
  O  O35  1  0.74699700  0.64743500  0.01142400  1
