# generated using pymatgen
data_Dy3Si2Cl5O6
_symmetry_space_group_name_H-M   'P 1'
_cell_length_a   7.45469076
_cell_length_b   7.45469076
_cell_length_c   11.70447645
_cell_angle_alpha   80.56145076
_cell_angle_beta   80.56145076
_cell_angle_gamma   88.58584727
_symmetry_Int_Tables_number   1
_chemical_formula_structural   Dy3Si2Cl5O6
_chemical_formula_sum   'Dy6 Si4 Cl10 O12'
_cell_volume   632.95217885
_cell_formula_units_Z   2
loop_
 _symmetry_equiv_pos_site_id
 _symmetry_equiv_pos_as_xyz
  1  'x, y, z'
loop_
 _atom_site_type_symbol
 _atom_site_label
 _atom_site_symmetry_multiplicity
 _atom_site_fract_x
 _atom_site_fract_y
 _atom_site_fract_z
 _atom_site_occupancy
  Dy  Dy0  1  0.58400000  0.08147600  0.66959600  1
  Dy  Dy1  1  0.91852400  0.41600000  0.33040400  1
  Dy  Dy2  1  0.41600000  0.91852400  0.33040400  1
  Dy  Dy3  1  0.08147600  0.58400000  0.66959600  1
  Dy  Dy4  1  0.50000000  0.00000000  0.00000000  1
  Dy  Dy5  1  0.00000000  0.50000000  0.00000000  1
  Si  Si6  1  0.81721500  0.11018900  0.14468800  1
  Si  Si7  1  0.88981100  0.18278500  0.85531200  1
  Si  Si8  1  0.18278500  0.88981100  0.85531200  1
  Si  Si9  1  0.11018900  0.81721500  0.14468800  1
  Cl  Cl10  1  0.31614200  0.31614200  0.99695000  1
  Cl  Cl11  1  0.77913500  0.77913500  0.66325500  1
  Cl  Cl12  1  0.68385800  0.68385800  0.00305000  1
  Cl  Cl13  1  0.62186000  0.62186000  0.35696100  1
  Cl  Cl14  1  0.37814000  0.37814000  0.64303900  1
  Cl  Cl15  1  0.88460600  0.32638700  0.57905400  1
  Cl  Cl16  1  0.11539400  0.67361300  0.42094600  1
  Cl  Cl17  1  0.32638700  0.88460600  0.57905400  1
  Cl  Cl18  1  0.67361300  0.11539400  0.42094600  1
  Cl  Cl19  1  0.22086500  0.22086500  0.33674500  1
  O  O20  1  0.30830900  0.86761900  0.17205300  1
  O  O21  1  0.39418400  0.95505600  0.82794600  1
  O  O22  1  0.95505600  0.39418400  0.82794600  1
  O  O23  1  0.60581600  0.04494400  0.17205400  1
  O  O24  1  0.04826000  0.04826000  0.80483400  1
  O  O25  1  0.04494400  0.60581600  0.17205400  1
  O  O26  1  0.86761900  0.30830900  0.17205300  1
  O  O27  1  0.13238100  0.69169100  0.82794700  1
  O  O28  1  0.85771800  0.14228200  0.00000000  1
  O  O29  1  0.14228200  0.85771800  0.00000000  1
  O  O30  1  0.69169100  0.13238100  0.82794700  1
  O  O31  1  0.95174000  0.95174000  0.19516600  1
