# generated using pymatgen
data_V3(H3O5)2
_symmetry_space_group_name_H-M   'P 1'
_cell_length_a   6.10990900
_cell_length_b   8.90692701
_cell_length_c   9.07209393
_cell_angle_alpha   88.65203732
_cell_angle_beta   86.15278078
_cell_angle_gamma   81.79564230
_symmetry_Int_Tables_number   1
_chemical_formula_structural   V3(H3O5)2
_chemical_formula_sum   'V6 H12 O20'
_cell_volume   487.50527528
_cell_formula_units_Z   2
loop_
 _symmetry_equiv_pos_site_id
 _symmetry_equiv_pos_as_xyz
  1  'x, y, z'
loop_
 _atom_site_type_symbol
 _atom_site_label
 _atom_site_symmetry_multiplicity
 _atom_site_fract_x
 _atom_site_fract_y
 _atom_site_fract_z
 _atom_site_occupancy
  V  V0  1  0.73416800  0.49543600  0.49740500  1
  V  V1  1  0.72907000  0.99288100  0.00314000  1
  V  V2  1  0.74985000  0.36472900  0.87579000  1
  V  V3  1  0.76015400  0.63042400  0.13574800  1
  V  V4  1  0.68400700  0.13021600  0.37100500  1
  V  V5  1  0.70993800  0.85568900  0.64572400  1
  H  H6  1  0.34581900  0.65481500  0.44724100  1
  H  H7  1  0.34067100  0.12790600  0.06275800  1
  H  H8  1  0.29101000  0.32870900  0.08349100  1
  H  H9  1  0.28801100  0.22402200  0.23413300  1
  H  H10  1  0.12087900  0.72280700  0.89412300  1
  H  H11  1  0.30838700  0.58642500  0.84563900  1
  H  H12  1  0.33738700  0.78847000  0.73224100  1
  H  H13  1  0.19886800  0.09628100  0.69803100  1
  H  H14  1  0.26990300  0.18196300  0.55127000  1
  H  H15  1  0.99973700  0.29746500  0.66187000  1
  H  H16  1  0.28540900  0.84937400  0.41220400  1
  H  H17  1  0.33205100  0.73156500  0.27243700  1
  O  O18  1  0.45724000  0.54061200  0.50858800  1
  O  O19  1  0.44839200  0.02028400  0.00442800  1
  O  O20  1  0.85458900  0.38239600  0.68080400  1
  O  O21  1  0.84165200  0.57394900  0.31248400  1
  O  O22  1  0.77178700  0.07032800  0.19483100  1
  O  O23  1  0.81355600  0.90362300  0.80682100  1
  O  O24  1  0.78462300  0.29578100  0.41075500  1
  O  O25  1  0.81354900  0.67429900  0.59687900  1
  O  O26  1  0.86405800  0.79659500  0.07546000  1
  O  O27  1  0.82803500  0.17718600  0.92292300  1
  O  O28  1  0.47782300  0.40929900  0.89127300  1
  O  O29  1  0.48451400  0.66305100  0.14192800  1
  O  O30  1  0.40334200  0.15613800  0.38534800  1
  O  O31  1  0.41935500  0.86908700  0.66717200  1
  O  O32  1  0.86219400  0.48547900  0.99832200  1
  O  O33  1  0.78321800  0.98362600  0.50258600  1
  O  O34  1  0.24033200  0.23755600  0.12913500  1
  O  O35  1  0.22247500  0.68239800  0.81213500  1
  O  O36  1  0.19746800  0.19721300  0.65329400  1
  O  O37  1  0.25697000  0.75134900  0.37709900  1
