# generated using pymatgen
data_Te3As2S(OF6)2
_symmetry_space_group_name_H-M   'P 1'
_cell_length_a   10.06565300
_cell_length_b   10.52813978
_cell_length_c   16.26309370
_cell_angle_alpha   75.12636513
_cell_angle_beta   77.41078274
_cell_angle_gamma   63.42714361
_symmetry_Int_Tables_number   1
_chemical_formula_structural   Te3As2S(OF6)2
_chemical_formula_sum   'Te12 As8 S4 O8 F48'
_cell_volume   1479.10173453
_cell_formula_units_Z   4
loop_
 _symmetry_equiv_pos_site_id
 _symmetry_equiv_pos_as_xyz
  1  'x, y, z'
loop_
 _atom_site_type_symbol
 _atom_site_label
 _atom_site_symmetry_multiplicity
 _atom_site_fract_x
 _atom_site_fract_y
 _atom_site_fract_z
 _atom_site_occupancy
  Te  Te0  1  0.12436400  0.36536100  0.14752400  1
  Te  Te1  1  0.91963100  0.83464600  0.67896900  1
  Te  Te2  1  0.42821200  0.21767700  0.14144700  1
  Te  Te3  1  0.76383000  0.74717900  0.60345500  1
  Te  Te4  1  0.23617000  0.25282100  0.39654500  1
  Te  Te5  1  0.87563600  0.63463900  0.85247600  1
  Te  Te6  1  0.61730500  0.98344600  0.68170800  1
  Te  Te7  1  0.28399100  0.45478100  0.21869700  1
  Te  Te8  1  0.08036900  0.16535400  0.32103100  1
  Te  Te9  1  0.57178800  0.78232300  0.85855300  1
  Te  Te10  1  0.38269500  0.01655400  0.31829200  1
  Te  Te11  1  0.71600900  0.54521900  0.78130300  1
  As  As12  1  0.70477400  0.10003400  0.38438500  1
  As  As13  1  0.27672000  0.92656300  0.10133200  1
  As  As14  1  0.74785900  0.40548900  0.09396700  1
  As  As15  1  0.25214100  0.59451100  0.90603300  1
  As  As16  1  0.77559800  0.36392200  0.58474800  1
  As  As17  1  0.72328000  0.07343700  0.89866800  1
  As  As18  1  0.29522600  0.89996600  0.61561500  1
  As  As19  1  0.22440200  0.63607800  0.41525200  1
  S  S20  1  0.13195400  0.11279200  0.84394800  1
  S  S21  1  0.86804600  0.88720800  0.15605200  1
  S  S22  1  0.30309700  0.43641500  0.67179500  1
  S  S23  1  0.69690300  0.56358500  0.32820500  1
  O  O24  1  0.05500500  0.26885000  0.83186800  1
  O  O25  1  0.94499500  0.73115000  0.16813200  1
  O  O26  1  0.29477000  0.05300300  0.83012000  1
  O  O27  1  0.70523000  0.94699700  0.16988000  1
  O  O28  1  0.14043100  0.50882600  0.68457500  1
  O  O29  1  0.36658500  0.28187100  0.67486900  1
  O  O30  1  0.63341500  0.71812900  0.32513100  1
  O  O31  1  0.85956900  0.49117400  0.31542500  1
  F  F32  1  0.87115500  0.96359400  0.82933700  1
  F  F33  1  0.12884500  0.03640600  0.17066300  1
  F  F34  1  0.58248200  0.47643800  0.16505800  1
  F  F35  1  0.13440800  0.97724600  0.68761500  1
  F  F36  1  0.21983100  0.43862400  0.91510800  1
  F  F37  1  0.64661800  0.48661500  0.00451500  1
  F  F38  1  0.75175800  0.22719300  0.84008100  1
  F  F39  1  0.08314200  0.66629200  0.97405200  1
  F  F40  1  0.59504500  0.10365200  0.82665100  1
  F  F41  1  0.24824200  0.77280700  0.15991900  1
  F  F42  1  0.66822900  0.94397100  0.40100600  1
  F  F43  1  0.74059100  0.25539800  0.36596600  1
  F  F44  1  0.85390200  0.32342900  0.18390000  1
  F  F45  1  0.41751800  0.52356200  0.83494200  1
  F  F46  1  0.85211400  0.03742200  0.96834900  1
  F  F47  1  0.71782900  0.24758400  0.10621000  1
  F  F48  1  0.37298900  0.54474200  0.33867900  1
  F  F49  1  0.25940900  0.74460200  0.63403400  1
  F  F50  1  0.21026200  0.80542600  0.35368400  1
  F  F51  1  0.18741500  0.97799000  0.52859900  1
  F  F52  1  0.59217100  0.17927600  0.29775500  1
  F  F53  1  0.09723000  0.63297600  0.35504200  1
  F  F54  1  0.92651200  0.27955800  0.50953400  1
  F  F55  1  0.35338200  0.51338500  0.99548500  1
  F  F56  1  0.81258500  0.02201000  0.47140100  1
  F  F57  1  0.30571300  0.08364000  0.04566600  1
  F  F58  1  0.69428700  0.91636000  0.95433400  1
  F  F59  1  0.07348800  0.72044200  0.49046600  1
  F  F60  1  0.78016900  0.56137600  0.08489200  1
  F  F61  1  0.57283400  0.17932000  0.96582300  1
  F  F62  1  0.91685800  0.33370800  0.02594800  1
  F  F63  1  0.62701100  0.45525800  0.66132100  1
  F  F64  1  0.40782900  0.82072400  0.70224500  1
  F  F65  1  0.40495500  0.89634800  0.17334900  1
  F  F66  1  0.64442300  0.37037900  0.52688300  1
  F  F67  1  0.45983000  0.82247900  0.54524100  1
  F  F68  1  0.33177100  0.05602900  0.59899400  1
  F  F69  1  0.42716600  0.82068000  0.03417700  1
  F  F70  1  0.86559200  0.02275400  0.31238500  1
  F  F71  1  0.28217100  0.75241600  0.89379000  1
  F  F72  1  0.14788600  0.96257800  0.03165100  1
  F  F73  1  0.90277000  0.36702400  0.64495800  1
  F  F74  1  0.76263200  0.53714200  0.52368700  1
  F  F75  1  0.54017000  0.17752100  0.45475900  1
  F  F76  1  0.35557700  0.62962100  0.47311700  1
  F  F77  1  0.23736800  0.46285800  0.47631300  1
  F  F78  1  0.78973800  0.19457400  0.64631600  1
  F  F79  1  0.14609800  0.67657100  0.81610000  1
