# generated using pymatgen
data_Sr3Cu3(PO4)4
_symmetry_space_group_name_H-M   'P 1'
_cell_length_a   9.51605534
_cell_length_b   9.51605534
_cell_length_c   17.43975502
_cell_angle_alpha   63.87290063
_cell_angle_beta   63.87290063
_cell_angle_gamma   30.49970552
_symmetry_Int_Tables_number   1
_chemical_formula_structural   Sr3Cu3(PO4)4
_chemical_formula_sum   'Sr6 Cu6 P8 O32'
_cell_volume   713.16571720
_cell_formula_units_Z   2
loop_
 _symmetry_equiv_pos_site_id
 _symmetry_equiv_pos_as_xyz
  1  'x, y, z'
loop_
 _atom_site_type_symbol
 _atom_site_label
 _atom_site_symmetry_multiplicity
 _atom_site_fract_x
 _atom_site_fract_y
 _atom_site_fract_z
 _atom_site_occupancy
  Sr  Sr0  1  0.84671600  0.45702100  0.36304000  1
  Sr  Sr1  1  0.54297900  0.15328400  0.13696000  1
  Sr  Sr2  1  0.28780900  0.71219100  0.75000000  1
  Sr  Sr3  1  0.71219100  0.28780900  0.25000000  1
  Sr  Sr4  1  0.45702100  0.84671600  0.86304000  1
  Sr  Sr5  1  0.15328400  0.54297900  0.63696000  1
  Cu  Cu6  1  0.16296300  0.63600600  0.96990900  1
  Cu  Cu7  1  0.63600600  0.16296300  0.46990900  1
  Cu  Cu8  1  0.36399400  0.83703700  0.53009100  1
  Cu  Cu9  1  0.83703700  0.36399400  0.03009100  1
  Cu  Cu10  1  0.50000000  0.00000000  0.00000000  1
  Cu  Cu11  1  0.00000000  0.50000000  0.50000000  1
  P  P12  1  0.18476200  0.78122800  0.10118900  1
  P  P13  1  0.47654900  0.96164600  0.61978900  1
  P  P14  1  0.96164600  0.47654900  0.11978900  1
  P  P15  1  0.03835400  0.52345100  0.88021100  1
  P  P16  1  0.52345100  0.03835400  0.38021100  1
  P  P17  1  0.81523800  0.21877200  0.89881100  1
  P  P18  1  0.21877200  0.81523800  0.39881100  1
  P  P19  1  0.78122800  0.18476200  0.60118900  1
  O  O20  1  0.19909700  0.30323700  0.40403100  1
  O  O21  1  0.68836800  0.13090500  0.57748200  1
  O  O22  1  0.62948200  0.24219400  0.96988700  1
  O  O23  1  0.21258600  0.35592300  0.04622200  1
  O  O24  1  0.24219400  0.62948200  0.46988700  1
  O  O25  1  0.69676300  0.80090300  0.09596900  1
  O  O26  1  0.64407700  0.78741400  0.45377800  1
  O  O27  1  0.30323700  0.19909700  0.90403100  1
  O  O28  1  0.75780600  0.37051800  0.53011300  1
  O  O29  1  0.34868600  0.92028900  0.62231000  1
  O  O30  1  0.92028900  0.34868600  0.12231000  1
  O  O31  1  0.13090500  0.68836800  0.07748200  1
  O  O32  1  0.39367100  0.69967700  0.31236300  1
  O  O33  1  0.35592300  0.21258600  0.54622200  1
  O  O34  1  0.88394700  0.10069700  0.11378400  1
  O  O35  1  0.39777400  0.03689000  0.70525300  1
  O  O36  1  0.96311000  0.60222600  0.79474700  1
  O  O37  1  0.65131400  0.07971100  0.37769000  1
  O  O38  1  0.60222600  0.96311000  0.29474700  1
  O  O39  1  0.10069700  0.88394700  0.61378400  1
  O  O40  1  0.60632900  0.30032300  0.68763700  1
  O  O41  1  0.86909500  0.31163200  0.92251800  1
  O  O42  1  0.80090300  0.69676300  0.59596900  1
  O  O43  1  0.31163200  0.86909500  0.42251800  1
  O  O44  1  0.11605300  0.89930300  0.88621600  1
  O  O45  1  0.69967700  0.39367100  0.81236300  1
  O  O46  1  0.89930300  0.11605300  0.38621600  1
  O  O47  1  0.37051800  0.75780600  0.03011300  1
  O  O48  1  0.07971100  0.65131400  0.87769000  1
  O  O49  1  0.30032300  0.60632900  0.18763700  1
  O  O50  1  0.78741400  0.64407700  0.95377800  1
  O  O51  1  0.03689000  0.39777400  0.20525300  1
