# generated using pymatgen
data_Cu2SeO4
_symmetry_space_group_name_H-M   'P 1'
_cell_length_a   6.02848700
_cell_length_b   7.12105600
_cell_length_c   10.91342020
_cell_angle_alpha   51.43730849
_cell_angle_beta   90.00000000
_cell_angle_gamma   90.00000000
_symmetry_Int_Tables_number   1
_chemical_formula_structural   Cu2SeO4
_chemical_formula_sum   'Cu8 Se4 O16'
_cell_volume   366.33597242
_cell_formula_units_Z   4
loop_
 _symmetry_equiv_pos_site_id
 _symmetry_equiv_pos_as_xyz
  1  'x, y, z'
loop_
 _atom_site_type_symbol
 _atom_site_label
 _atom_site_symmetry_multiplicity
 _atom_site_fract_x
 _atom_site_fract_y
 _atom_site_fract_z
 _atom_site_occupancy
  Cu  Cu0  1  0.29696400  0.50447100  0.24211700  1
  Cu  Cu1  1  0.79696400  0.49552900  0.25788300  1
  Cu  Cu2  1  0.70303600  0.49552900  0.75788300  1
  Cu  Cu3  1  0.50000000  0.00000000  0.50000000  1
  Cu  Cu4  1  0.00000000  0.00000000  0.00000000  1
  Cu  Cu5  1  0.00000000  0.50000000  0.00000000  1
  Cu  Cu6  1  0.50000000  0.50000000  0.50000000  1
  Cu  Cu7  1  0.20303600  0.50447100  0.74211700  1
  Se  Se8  1  0.08117300  0.16464400  0.59947800  1
  Se  Se9  1  0.91882700  0.83535600  0.40052200  1
  Se  Se10  1  0.58117300  0.83535600  0.90052200  1
  Se  Se11  1  0.41882700  0.16464400  0.09947800  1
  O  O12  1  0.27921300  0.95046700  0.10165700  1
  O  O13  1  0.72078700  0.04953300  0.89834300  1
  O  O14  1  0.06391900  0.41294300  0.39816200  1
  O  O15  1  0.46459600  0.65592500  0.59753000  1
  O  O16  1  0.21166100  0.26135700  0.15862300  1
  O  O17  1  0.71166100  0.73864300  0.34137700  1
  O  O18  1  0.03540400  0.65592500  0.09753000  1
  O  O19  1  0.22078700  0.95046700  0.60165700  1
  O  O20  1  0.93608100  0.58705700  0.60183800  1
  O  O21  1  0.96459600  0.34407500  0.90247000  1
  O  O22  1  0.77921300  0.04953300  0.39834300  1
  O  O23  1  0.28833900  0.26135700  0.65862300  1
  O  O24  1  0.56391900  0.58705700  0.10183800  1
  O  O25  1  0.78833900  0.73864300  0.84137700  1
  O  O26  1  0.43608100  0.41294300  0.89816200  1
  O  O27  1  0.53540400  0.34407500  0.40247000  1
