# generated using pymatgen
data_CsNiPdF5
_symmetry_space_group_name_H-M   'P 1'
_cell_length_a   7.36433051
_cell_length_b   7.36433051
_cell_length_c   7.36433051
_cell_angle_alpha   126.28755141
_cell_angle_beta   117.97513952
_cell_angle_gamma   86.50700702
_symmetry_Int_Tables_number   1
_chemical_formula_structural   CsNiPdF5
_chemical_formula_sum   'Cs2 Ni2 Pd2 F10'
_cell_volume   270.82254177
_cell_formula_units_Z   2
loop_
 _symmetry_equiv_pos_site_id
 _symmetry_equiv_pos_as_xyz
  1  'x, y, z'
loop_
 _atom_site_type_symbol
 _atom_site_label
 _atom_site_symmetry_multiplicity
 _atom_site_fract_x
 _atom_site_fract_y
 _atom_site_fract_z
 _atom_site_occupancy
  Cs  Cs0  1  0.86906900  0.61906900  0.25000000  1
  Cs  Cs1  1  0.13093100  0.38093100  0.75000000  1
  Ni  Ni2  1  0.00000000  0.00000000  0.00000000  1
  Ni  Ni3  1  0.50000000  0.00000000  0.50000000  1
  Pd  Pd4  1  0.50000000  0.00000000  0.00000000  1
  Pd  Pd5  1  0.50000000  0.50000000  0.50000000  1
  F  F6  1  0.44210500  0.65353700  0.33566700  1
  F  F7  1  0.55789500  0.89356300  0.21143200  1
  F  F8  1  0.18213000  0.34646300  0.28856800  1
  F  F9  1  0.81787000  0.10643700  0.16433300  1
  F  F10  1  0.55789500  0.34646300  0.66433300  1
  F  F11  1  0.44210500  0.10643700  0.78856800  1
  F  F12  1  0.82005900  0.07005900  0.75000000  1
  F  F13  1  0.17994100  0.92994100  0.25000000  1
  F  F14  1  0.18213000  0.89356300  0.83566700  1
  F  F15  1  0.81787000  0.65353700  0.71143200  1
