# generated using pymatgen
data_K4V5CuClO15
_symmetry_space_group_name_H-M   'P 1'
_cell_length_a   8.97799500
_cell_length_b   8.97799500
_cell_length_c   5.66323700
_cell_angle_alpha   90.00000000
_cell_angle_beta   90.00000000
_cell_angle_gamma   90.00000000
_symmetry_Int_Tables_number   1
_chemical_formula_structural   K4V5CuClO15
_chemical_formula_sum   'K4 V5 Cu1 Cl1 O15'
_cell_volume   456.48178771
_cell_formula_units_Z   1
loop_
 _symmetry_equiv_pos_site_id
 _symmetry_equiv_pos_as_xyz
  1  'x, y, z'
loop_
 _atom_site_type_symbol
 _atom_site_label
 _atom_site_symmetry_multiplicity
 _atom_site_fract_x
 _atom_site_fract_y
 _atom_site_fract_z
 _atom_site_occupancy
  K  K0  1  0.15422800  0.68726400  0.42505700  1
  K  K1  1  0.68726400  0.84577200  0.42505700  1
  K  K2  1  0.31273600  0.15422800  0.42505700  1
  K  K3  1  0.84577200  0.31273600  0.42505700  1
  V  V4  1  0.86184700  0.63030100  0.89661300  1
  V  V5  1  0.36969900  0.86184700  0.89661300  1
  V  V6  1  0.63030100  0.13815300  0.89661300  1
  V  V7  1  0.50000000  0.50000000  0.86043300  1
  V  V8  1  0.13815300  0.36969900  0.89661300  1
  Cu  Cu9  1  0.00000000  0.00000000  0.84446900  1
  Cl  Cl10  1  0.00000000  0.00000000  0.29596200  1
  O  O11  1  0.90696800  0.80446900  0.79804700  1
  O  O12  1  0.00000000  0.50000000  0.77782600  1
  O  O13  1  0.50000000  0.00000000  0.77782600  1
  O  O14  1  0.41626100  0.68567400  0.77088100  1
  O  O15  1  0.62040200  0.14118000  0.19070800  1
  O  O16  1  0.31432600  0.41626100  0.77088100  1
  O  O17  1  0.14118000  0.37959800  0.19070800  1
  O  O18  1  0.19553100  0.90696800  0.79804700  1
  O  O19  1  0.09303200  0.19553100  0.79804700  1
  O  O20  1  0.68567400  0.58373900  0.77088100  1
  O  O21  1  0.85882000  0.62040200  0.19070800  1
  O  O22  1  0.58373900  0.31432600  0.77088100  1
  O  O23  1  0.50000000  0.50000000  0.14646900  1
  O  O24  1  0.37959800  0.85882000  0.19070800  1
  O  O25  1  0.80446900  0.09303200  0.79804700  1
