# generated using pymatgen
data_Pr2Mo4O15
_symmetry_space_group_name_H-M   'P 1'
_cell_length_a   7.52474100
_cell_length_b   7.67424380
_cell_length_c   12.00665424
_cell_angle_alpha   88.69952555
_cell_angle_beta   83.89974066
_cell_angle_gamma   84.42924846
_symmetry_Int_Tables_number   1
_chemical_formula_structural   Pr2Mo4O15
_chemical_formula_sum   'Pr4 Mo8 O30'
_cell_volume   686.10878199
_cell_formula_units_Z   2
loop_
 _symmetry_equiv_pos_site_id
 _symmetry_equiv_pos_as_xyz
  1  'x, y, z'
loop_
 _atom_site_type_symbol
 _atom_site_label
 _atom_site_symmetry_multiplicity
 _atom_site_fract_x
 _atom_site_fract_y
 _atom_site_fract_z
 _atom_site_occupancy
  Pr  Pr0  1  0.24345900  0.41019300  0.22236800  1
  Pr  Pr1  1  0.75654100  0.58980700  0.77763200  1
  Pr  Pr2  1  0.31985000  0.91042300  0.77710000  1
  Pr  Pr3  1  0.68015000  0.08957700  0.22290000  1
  Mo  Mo4  1  0.56336700  0.74986600  0.47448500  1
  Mo  Mo5  1  0.09589700  0.66796300  0.53222400  1
  Mo  Mo6  1  0.77228400  0.07501300  0.87094400  1
  Mo  Mo7  1  0.90410300  0.33203700  0.46777600  1
  Mo  Mo8  1  0.22771600  0.92498700  0.12905600  1
  Mo  Mo9  1  0.72626200  0.57185500  0.12783700  1
  Mo  Mo10  1  0.43663300  0.25013400  0.52551500  1
  Mo  Mo11  1  0.27373800  0.42814500  0.87216300  1
  O  O12  1  0.72298900  0.59654500  0.98047100  1
  O  O13  1  0.37780500  0.05188000  0.59498100  1
  O  O14  1  0.99627500  0.00188200  0.15308100  1
  O  O15  1  0.03448100  0.17137600  0.53106300  1
  O  O16  1  0.33234100  0.71287000  0.44724200  1
  O  O17  1  0.94661800  0.49184800  0.15729500  1
  O  O18  1  0.00372500  0.99811800  0.84691900  1
  O  O19  1  0.70771600  0.09952600  0.01698000  1
  O  O20  1  0.35341500  0.09163600  0.18494200  1
  O  O21  1  0.64658500  0.90836400  0.81505800  1
  O  O22  1  0.41618700  0.26064000  0.37758300  1
  O  O23  1  0.13284400  0.76534500  0.66102200  1
  O  O24  1  0.73462600  0.28518500  0.80470300  1
  O  O25  1  0.29700000  0.42802800  0.58723300  1
  O  O26  1  0.66765900  0.28713000  0.55275800  1
  O  O27  1  0.62219500  0.94812000  0.40501900  1
  O  O28  1  0.05338200  0.50815200  0.84270500  1
  O  O29  1  0.26537400  0.71481500  0.19529700  1
  O  O30  1  0.57326000  0.40729700  0.17973400  1
  O  O31  1  0.27701100  0.40345500  0.01952900  1
  O  O32  1  0.66258000  0.78327800  0.18666900  1
  O  O33  1  0.29228400  0.90047400  0.98302000  1
  O  O34  1  0.70300000  0.57197200  0.41276700  1
  O  O35  1  0.86715600  0.23465500  0.33897800  1
  O  O36  1  0.33742000  0.21672200  0.81333100  1
  O  O37  1  0.91714100  0.52081300  0.59662500  1
  O  O38  1  0.58381300  0.73936000  0.62241700  1
  O  O39  1  0.42674000  0.59270300  0.82026600  1
  O  O40  1  0.08285900  0.47918700  0.40337500  1
  O  O41  1  0.96551900  0.82862400  0.46893700  1
