# generated using pymatgen
data_Yb2PrDyS6
_symmetry_space_group_name_H-M   'P 1'
_cell_length_a   4.13495100
_cell_length_b   10.95720100
_cell_length_c   11.48754568
_cell_angle_alpha   75.15177442
_cell_angle_beta   90.00000000
_cell_angle_gamma   90.00000000
_symmetry_Int_Tables_number   1
_chemical_formula_structural   Yb2PrDyS6
_chemical_formula_sum   'Yb4 Pr2 Dy2 S12'
_cell_volume   503.09227629
_cell_formula_units_Z   2
loop_
 _symmetry_equiv_pos_site_id
 _symmetry_equiv_pos_as_xyz
  1  'x, y, z'
loop_
 _atom_site_type_symbol
 _atom_site_label
 _atom_site_symmetry_multiplicity
 _atom_site_fract_x
 _atom_site_fract_y
 _atom_site_fract_z
 _atom_site_occupancy
  Yb  Yb0  1  0.25000000  0.32677700  0.58554100  1
  Yb  Yb1  1  0.25000000  0.05014800  0.35019900  1
  Yb  Yb2  1  0.75000000  0.94985200  0.64980100  1
  Yb  Yb3  1  0.75000000  0.67322300  0.41445900  1
  Pr  Pr4  1  0.25000000  0.47227100  0.18006100  1
  Pr  Pr5  1  0.75000000  0.52772900  0.81993900  1
  Dy  Dy6  1  0.75000000  0.16927900  0.96632100  1
  Dy  Dy7  1  0.25000000  0.83072100  0.03367900  1
  S  S8  1  0.25000000  0.37129200  0.96644500  1
  S  S9  1  0.75000000  0.40201900  0.38115200  1
  S  S10  1  0.75000000  0.62870800  0.03355500  1
  S  S11  1  0.25000000  0.59798100  0.61884800  1
  S  S12  1  0.75000000  0.90079000  0.43108500  1
  S  S13  1  0.75000000  0.30277200  0.73960000  1
  S  S14  1  0.25000000  0.05182100  0.10248100  1
  S  S15  1  0.75000000  0.94817900  0.89751900  1
  S  S16  1  0.25000000  0.69722800  0.26040000  1
  S  S17  1  0.75000000  0.27530900  0.26938600  1
  S  S18  1  0.25000000  0.09921000  0.56891500  1
  S  S19  1  0.25000000  0.72469100  0.73061400  1
