# generated using pymatgen
data_CS2(NCl)3
_symmetry_space_group_name_H-M   'P 1'
_cell_length_a   7.71574300
_cell_length_b   9.65845240
_cell_length_c   11.98297563
_cell_angle_alpha   85.22423259
_cell_angle_beta   77.87454171
_cell_angle_gamma   76.00105227
_symmetry_Int_Tables_number   1
_chemical_formula_structural   CS2(NCl)3
_chemical_formula_sum   'C4 S8 N12 Cl12'
_cell_volume   846.64846376
_cell_formula_units_Z   4
loop_
 _symmetry_equiv_pos_site_id
 _symmetry_equiv_pos_as_xyz
  1  'x, y, z'
loop_
 _atom_site_type_symbol
 _atom_site_label
 _atom_site_symmetry_multiplicity
 _atom_site_fract_x
 _atom_site_fract_y
 _atom_site_fract_z
 _atom_site_occupancy
  C  C0  1  0.74555800  0.32989800  0.62592400  1
  C  C1  1  0.74022500  0.90046200  0.16830000  1
  C  C2  1  0.25977500  0.09953800  0.83170000  1
  C  C3  1  0.25444200  0.67010200  0.37407600  1
  S  S4  1  0.80451000  0.57870900  0.63641600  1
  S  S5  1  0.03459300  0.33414000  0.89298200  1
  S  S6  1  0.19549000  0.42129100  0.36358400  1
  S  S7  1  0.96540700  0.66586000  0.10701800  1
  S  S8  1  0.52192700  0.48143200  0.78297200  1
  S  S9  1  0.69884100  0.80601200  0.98374900  1
  S  S10  1  0.47807300  0.51856800  0.21702800  1
  S  S11  1  0.30115900  0.19398800  0.01625100  1
  N  N12  1  0.87839900  0.79736400  0.19136600  1
  N  N13  1  0.34618000  0.07677000  0.91873900  1
  N  N14  1  0.33742900  0.41514500  0.24229200  1
  N  N15  1  0.15653800  0.57610900  0.41906000  1
  N  N16  1  0.83434300  0.66008100  0.01974900  1
  N  N17  1  0.16565700  0.33991900  0.98025100  1
  N  N18  1  0.12160100  0.20263600  0.80863400  1
  N  N19  1  0.84346200  0.42389100  0.58094000  1
  N  N20  1  0.60314900  0.33725100  0.71143400  1
  N  N21  1  0.65382000  0.92323000  0.08126100  1
  N  N22  1  0.39685100  0.66274900  0.28856600  1
  N  N23  1  0.66257100  0.58485500  0.75770800  1
  Cl  Cl24  1  0.70794600  0.41744800  0.29586500  1
  Cl  Cl25  1  0.85603100  0.89883400  0.84077800  1
  Cl  Cl26  1  0.79323500  0.26932000  0.99265300  1
  Cl  Cl27  1  0.20676500  0.73068000  0.00734700  1
  Cl  Cl28  1  0.34908400  0.97645200  0.72617500  1
  Cl  Cl29  1  0.14396900  0.10116600  0.15922200  1
  Cl  Cl30  1  0.29205400  0.58255200  0.70413500  1
  Cl  Cl31  1  0.33896400  0.28082400  0.47995400  1
  Cl  Cl32  1  0.65091600  0.02354800  0.27382500  1
  Cl  Cl33  1  0.82298600  0.16428800  0.56536200  1
  Cl  Cl34  1  0.17701400  0.83571200  0.43463800  1
  Cl  Cl35  1  0.66103600  0.71917600  0.52004600  1
