# generated using pymatgen
data_Sr5Nb4O15
_symmetry_space_group_name_H-M   'P 1'
_cell_length_a   5.74585644
_cell_length_b   5.74585644
_cell_length_c   11.67169612
_cell_angle_alpha   89.34713984
_cell_angle_beta   89.34713984
_cell_angle_gamma   59.88645047
_symmetry_Int_Tables_number   1
_chemical_formula_structural   Sr5Nb4O15
_chemical_formula_sum   'Sr5 Nb4 O15'
_cell_volume   333.30247361
_cell_formula_units_Z   1
loop_
 _symmetry_equiv_pos_site_id
 _symmetry_equiv_pos_as_xyz
  1  'x, y, z'
loop_
 _atom_site_type_symbol
 _atom_site_label
 _atom_site_symmetry_multiplicity
 _atom_site_fract_x
 _atom_site_fract_y
 _atom_site_fract_z
 _atom_site_occupancy
  Sr  Sr0  1  0.33307400  0.33307400  0.21969000  1
  Sr  Sr1  1  0.66692600  0.66692600  0.78031000  1
  Sr  Sr2  1  0.33011400  0.33011400  0.56117500  1
  Sr  Sr3  1  0.66988600  0.66988600  0.43882500  1
  Sr  Sr4  1  0.00000000  0.00000000  0.00000000  1
  Nb  Nb5  1  0.00240200  0.00240200  0.67958700  1
  Nb  Nb6  1  0.99759800  0.99759800  0.32041300  1
  Nb  Nb7  1  0.33532000  0.33532000  0.89427400  1
  Nb  Nb8  1  0.66468000  0.66468000  0.10572600  1
  O  O9  1  0.65787700  0.16384300  0.39278400  1
  O  O10  1  0.67600800  0.17031700  0.80752400  1
  O  O11  1  0.83615700  0.34212300  0.60721600  1
  O  O12  1  0.16610800  0.16610800  0.39045600  1
  O  O13  1  0.17031700  0.67600800  0.80752400  1
  O  O14  1  0.34212300  0.83615700  0.60721600  1
  O  O15  1  0.00000000  0.50000000  0.00000000  1
  O  O16  1  0.83389200  0.83389200  0.60954400  1
  O  O17  1  0.82827600  0.82827600  0.19658400  1
  O  O18  1  0.50000000  0.00000000  0.00000000  1
  O  O19  1  0.82968300  0.32399200  0.19247600  1
  O  O20  1  0.17172400  0.17172400  0.80341600  1
  O  O21  1  0.32399200  0.82968300  0.19247600  1
  O  O22  1  0.16384300  0.65787700  0.39278400  1
  O  O23  1  0.50000000  0.50000000  0.00000000  1
