# generated using pymatgen
data_SiO2
_symmetry_space_group_name_H-M   'P 1'
_cell_length_a   12.07119040
_cell_length_b   12.07119040
_cell_length_c   12.07119040
_cell_angle_alpha   152.12924527
_cell_angle_beta   152.12924527
_cell_angle_gamma   39.82459140
_symmetry_Int_Tables_number   1
_chemical_formula_structural   SiO2
_chemical_formula_sum   'Si8 O16'
_cell_volume   383.66233852
_cell_formula_units_Z   8
loop_
 _symmetry_equiv_pos_site_id
 _symmetry_equiv_pos_as_xyz
  1  'x, y, z'
loop_
 _atom_site_type_symbol
 _atom_site_label
 _atom_site_symmetry_multiplicity
 _atom_site_fract_x
 _atom_site_fract_y
 _atom_site_fract_z
 _atom_site_occupancy
  Si  Si0  1  0.06036100  0.68492800  0.12204600  1
  Si  Si1  1  0.18711700  0.56507200  0.87543300  1
  Si  Si2  1  0.43492800  0.81288300  0.12456700  1
  Si  Si3  1  0.31507200  0.93963900  0.87795400  1
  Si  Si4  1  0.68963900  0.31168500  0.12456700  1
  Si  Si5  1  0.56288300  0.93831500  0.87795400  1
  Si  Si6  1  0.68831500  0.31036100  0.87543300  1
  Si  Si7  1  0.06168500  0.43711700  0.12204600  1
  O  O8  1  0.81466500  0.81466500  0.00000000  1
  O  O9  1  0.77357000  0.22643000  0.00000000  1
  O  O10  1  0.60968600  0.12500000  0.98468600  1
  O  O11  1  0.87500000  0.39031400  0.01531400  1
  O  O12  1  0.30811600  0.80811600  0.50000000  1
  O  O13  1  0.97643000  0.47643000  0.95286000  1
  O  O14  1  0.14031400  0.62500000  0.01531400  1
  O  O15  1  0.93533500  0.43533500  0.50000000  1
  O  O16  1  0.19188400  0.69188400  0.50000000  1
  O  O17  1  0.22643000  0.77357000  0.00000000  1
  O  O18  1  0.18533500  0.18533500  0.00000000  1
  O  O19  1  0.56466500  0.06466500  0.50000000  1
  O  O20  1  0.44188400  0.44188400  0.00000000  1
  O  O21  1  0.52357000  0.02357000  0.04714000  1
  O  O22  1  0.55811600  0.55811600  0.00000000  1
  O  O23  1  0.37500000  0.85968600  0.98468600  1
