# generated using pymatgen
data_SiO2
_symmetry_space_group_name_H-M   'P 1'
_cell_length_a   11.50616265
_cell_length_b   11.50616265
_cell_length_c   19.94488100
_cell_angle_alpha   90.00000000
_cell_angle_beta   90.00000000
_cell_angle_gamma   129.13649298
_symmetry_Int_Tables_number   1
_chemical_formula_structural   SiO2
_chemical_formula_sum   'Si32 O64'
_cell_volume   2048.11914474
_cell_formula_units_Z   32
loop_
 _symmetry_equiv_pos_site_id
 _symmetry_equiv_pos_as_xyz
  1  'x, y, z'
loop_
 _atom_site_type_symbol
 _atom_site_label
 _atom_site_symmetry_multiplicity
 _atom_site_fract_x
 _atom_site_fract_y
 _atom_site_fract_z
 _atom_site_occupancy
  Si  Si0  1  0.96012300  0.49185600  0.10886900  1
  Si  Si1  1  0.71978500  0.36191200  0.82825600  1
  Si  Si2  1  0.32078300  0.47367800  0.05950700  1
  Si  Si3  1  0.99862900  0.69268900  0.50662700  1
  Si  Si4  1  0.28021500  0.63808800  0.17174400  1
  Si  Si5  1  0.30731100  0.00137100  0.00662700  1
  Si  Si6  1  0.50814400  0.03987700  0.60886900  1
  Si  Si7  1  0.69268900  0.99862900  0.50662700  1
  Si  Si8  1  0.03987700  0.50814400  0.60886900  1
  Si  Si9  1  0.63808800  0.28021500  0.32825600  1
  Si  Si10  1  0.63808800  0.28021500  0.17174400  1
  Si  Si11  1  0.96012300  0.49185600  0.39113100  1
  Si  Si12  1  0.67921700  0.52632200  0.55950700  1
  Si  Si13  1  0.71978500  0.36191200  0.67174400  1
  Si  Si14  1  0.28021500  0.63808800  0.32825600  1
  Si  Si15  1  0.03987700  0.50814400  0.89113100  1
  Si  Si16  1  0.67921700  0.52632200  0.94049300  1
  Si  Si17  1  0.00137100  0.30731100  0.49337300  1
  Si  Si18  1  0.47367800  0.32078300  0.05950700  1
  Si  Si19  1  0.69268900  0.99862900  0.99337300  1
  Si  Si20  1  0.99862900  0.69268900  0.99337300  1
  Si  Si21  1  0.36191200  0.71978500  0.67174400  1
  Si  Si22  1  0.49185600  0.96012300  0.39113100  1
  Si  Si23  1  0.52632200  0.67921700  0.55950700  1
  Si  Si24  1  0.49185600  0.96012300  0.10886900  1
  Si  Si25  1  0.32078300  0.47367800  0.44049300  1
  Si  Si26  1  0.52632200  0.67921700  0.94049300  1
  Si  Si27  1  0.30731100  0.00137100  0.49337300  1
  Si  Si28  1  0.36191200  0.71978500  0.82825600  1
  Si  Si29  1  0.47367800  0.32078300  0.44049300  1
  Si  Si30  1  0.50814400  0.03987700  0.89113100  1
  Si  Si31  1  0.00137100  0.30731100  0.00662700  1
  O  O32  1  0.40153300  0.81797900  0.15941200  1
  O  O33  1  0.59125600  0.59125600  0.92683300  1
  O  O34  1  0.05659100  0.62697200  0.55679300  1
  O  O35  1  0.85072900  0.66253600  0.96295700  1
  O  O36  1  0.18202100  0.59846700  0.84058800  1
  O  O37  1  0.37302800  0.94340900  0.05679300  1
  O  O38  1  0.61463800  0.96202300  0.43308800  1
  O  O39  1  0.14927100  0.33746400  0.46295700  1
  O  O40  1  0.42257300  0.88712800  0.65239500  1
  O  O41  1  0.57742700  0.11287200  0.15239500  1
  O  O42  1  0.60385400  0.28445200  0.25000000  1
  O  O43  1  0.39614600  0.71554800  0.75000000  1
  O  O44  1  0.62697200  0.05659100  0.55679300  1
  O  O45  1  0.67651700  0.44871900  0.87209100  1
  O  O46  1  0.14927100  0.33746400  0.03704300  1
  O  O47  1  0.61463800  0.96202300  0.06691200  1
  O  O48  1  0.44871900  0.67651700  0.62790900  1
  O  O49  1  0.62697200  0.05659100  0.94320700  1
  O  O50  1  0.59125600  0.59125600  0.57316700  1
  O  O51  1  0.71554800  0.39614600  0.75000000  1
  O  O52  1  0.66253600  0.85072900  0.53704300  1
  O  O53  1  0.12746800  0.87253200  0.00000000  1
  O  O54  1  0.40130600  0.59869300  0.50000000  1
  O  O55  1  0.96202300  0.61463800  0.06691200  1
  O  O56  1  0.42257300  0.88712800  0.84760500  1
  O  O57  1  0.67651700  0.44871900  0.62790900  1
  O  O58  1  0.40153300  0.81797900  0.34058800  1
  O  O59  1  0.66253600  0.85072900  0.96295700  1
  O  O60  1  0.05659100  0.62697200  0.94320700  1
  O  O61  1  0.87253200  0.12746800  0.50000000  1
  O  O62  1  0.96202300  0.61463800  0.43308800  1
  O  O63  1  0.44871900  0.67651700  0.87209100  1
  O  O64  1  0.57742700  0.11287200  0.34760500  1
  O  O65  1  0.38536200  0.03797700  0.56691200  1
  O  O66  1  0.88712800  0.42257300  0.65239500  1
  O  O67  1  0.33746400  0.14927100  0.03704300  1
  O  O68  1  0.40130600  0.59869300  0.00000000  1
  O  O69  1  0.85072900  0.66253600  0.53704300  1
  O  O70  1  0.32348300  0.55128100  0.37209100  1
  O  O71  1  0.40874400  0.40874400  0.07316700  1
  O  O72  1  0.81797900  0.40153300  0.15941200  1
  O  O73  1  0.12746800  0.87253200  0.50000000  1
  O  O74  1  0.59846700  0.18202100  0.84058800  1
  O  O75  1  0.55128100  0.32348300  0.12790900  1
  O  O76  1  0.11287200  0.57742700  0.15239500  1
  O  O77  1  0.88712800  0.42257300  0.84760500  1
  O  O78  1  0.94340900  0.37302800  0.05679300  1
  O  O79  1  0.94340900  0.37302800  0.44320700  1
  O  O80  1  0.11287200  0.57742700  0.34760500  1
  O  O81  1  0.55128100  0.32348300  0.37209100  1
  O  O82  1  0.03797700  0.38536200  0.93308800  1
  O  O83  1  0.18202100  0.59846700  0.65941200  1
  O  O84  1  0.59869300  0.40130600  0.50000000  1
  O  O85  1  0.03797700  0.38536200  0.56691200  1
  O  O86  1  0.38536200  0.03797700  0.93308800  1
  O  O87  1  0.40874400  0.40874400  0.42683300  1
  O  O88  1  0.59846700  0.18202100  0.65941200  1
  O  O89  1  0.32348300  0.55128100  0.12790900  1
  O  O90  1  0.33746400  0.14927100  0.46295700  1
  O  O91  1  0.28445200  0.60385400  0.25000000  1
  O  O92  1  0.81797900  0.40153300  0.34058800  1
  O  O93  1  0.37302800  0.94340900  0.44320700  1
  O  O94  1  0.87253200  0.12746800  0.00000000  1
  O  O95  1  0.59869300  0.40130600  0.00000000  1
