# generated using pymatgen
data_SiO2
_symmetry_space_group_name_H-M   'P 1'
_cell_length_a   11.92173512
_cell_length_b   11.92173512
_cell_length_c   7.59836000
_cell_angle_alpha   90.00000000
_cell_angle_beta   90.00000000
_cell_angle_gamma   105.53899336
_symmetry_Int_Tables_number   1
_chemical_formula_structural   SiO2
_chemical_formula_sum   'Si18 O36'
_cell_volume   1040.46444315
_cell_formula_units_Z   18
loop_
 _symmetry_equiv_pos_site_id
 _symmetry_equiv_pos_as_xyz
  1  'x, y, z'
loop_
 _atom_site_type_symbol
 _atom_site_label
 _atom_site_symmetry_multiplicity
 _atom_site_fract_x
 _atom_site_fract_y
 _atom_site_fract_z
 _atom_site_occupancy
  Si  Si0  1  0.88348500  0.71890100  0.70625700  1
  Si  Si1  1  0.88348500  0.71890100  0.29374300  1
  Si  Si2  1  0.14907600  0.85092400  0.70499200  1
  Si  Si3  1  0.71890100  0.88348400  0.70625700  1
  Si  Si4  1  0.73161900  0.26838100  0.00000000  1
  Si  Si5  1  0.26838100  0.73161900  0.00000000  1
  Si  Si6  1  0.71890100  0.88348400  0.29374300  1
  Si  Si7  1  0.47086700  0.12512600  0.00000000  1
  Si  Si8  1  0.28109900  0.11651500  0.70625700  1
  Si  Si9  1  0.85092400  0.14907600  0.29500800  1
  Si  Si10  1  0.11651600  0.28109900  0.70625700  1
  Si  Si11  1  0.52913300  0.87487300  0.00000000  1
  Si  Si12  1  0.85092400  0.14907600  0.70499200  1
  Si  Si13  1  0.11651600  0.28109900  0.29374300  1
  Si  Si14  1  0.12512700  0.47086700  0.00000000  1
  Si  Si15  1  0.87487300  0.52913300  0.00000000  1
  Si  Si16  1  0.28109900  0.11651500  0.29374300  1
  Si  Si17  1  0.14907600  0.85092400  0.29500800  1
  O  O18  1  0.98944300  0.19236400  0.74787900  1
  O  O19  1  0.78397000  0.78397000  0.75460100  1
  O  O20  1  0.13727000  0.39784400  0.17596900  1
  O  O21  1  0.86273000  0.60215600  0.82403100  1
  O  O22  1  0.01055700  0.80763600  0.74787900  1
  O  O23  1  0.12487900  0.31913700  0.50000000  1
  O  O24  1  0.01055700  0.80763600  0.25212100  1
  O  O25  1  0.60215600  0.86273000  0.17596900  1
  O  O26  1  0.78049400  0.21950600  0.82458200  1
  O  O27  1  0.86273000  0.60215600  0.17596900  1
  O  O28  1  0.68086300  0.87512100  0.50000000  1
  O  O29  1  0.17388300  0.82611700  0.50000000  1
  O  O30  1  0.78397000  0.78397000  0.24539900  1
  O  O31  1  0.87512100  0.68086300  0.50000000  1
  O  O32  1  0.98944300  0.19236400  0.25212100  1
  O  O33  1  0.19236400  0.98944300  0.74787900  1
  O  O34  1  0.22871000  0.59066700  0.00000000  1
  O  O35  1  0.80763600  0.01055700  0.25212100  1
  O  O36  1  0.82611700  0.17388300  0.50000000  1
  O  O37  1  0.21950600  0.78049400  0.17541800  1
  O  O38  1  0.50000000  0.00000000  0.00000000  1
  O  O39  1  0.31913700  0.12487900  0.50000000  1
  O  O40  1  0.60215600  0.86273000  0.82403100  1
  O  O41  1  0.59066700  0.22871000  0.00000000  1
  O  O42  1  0.78049400  0.21950600  0.17541800  1
  O  O43  1  0.21950600  0.78049400  0.82458200  1
  O  O44  1  0.40933300  0.77129000  0.00000000  1
  O  O45  1  0.21603000  0.21603000  0.24539900  1
  O  O46  1  0.39784400  0.13727000  0.82403100  1
  O  O47  1  0.21603000  0.21603000  0.75460100  1
  O  O48  1  0.00000000  0.50000000  0.00000000  1
  O  O49  1  0.19236400  0.98944300  0.25212100  1
  O  O50  1  0.77129000  0.40933300  0.00000000  1
  O  O51  1  0.13727000  0.39784400  0.82403100  1
  O  O52  1  0.39784400  0.13727000  0.17596900  1
  O  O53  1  0.80763600  0.01055700  0.74787900  1
