# generated using pymatgen
data_RbB3O5
_symmetry_space_group_name_H-M   'P 1'
_cell_length_a   5.50282300
_cell_length_b   8.34060600
_cell_length_c   10.39062300
_cell_angle_alpha   90.00000000
_cell_angle_beta   90.00000000
_cell_angle_gamma   90.00000000
_symmetry_Int_Tables_number   1
_chemical_formula_structural   RbB3O5
_chemical_formula_sum   'Rb4 B12 O20'
_cell_volume   476.89716169
_cell_formula_units_Z   4
loop_
 _symmetry_equiv_pos_site_id
 _symmetry_equiv_pos_as_xyz
  1  'x, y, z'
loop_
 _atom_site_type_symbol
 _atom_site_label
 _atom_site_symmetry_multiplicity
 _atom_site_fract_x
 _atom_site_fract_y
 _atom_site_fract_z
 _atom_site_occupancy
  Rb  Rb0  1  0.50392000  0.20528800  0.86239400  1
  Rb  Rb1  1  0.49608000  0.70528800  0.63760600  1
  Rb  Rb2  1  0.99608000  0.79471200  0.36239400  1
  Rb  Rb3  1  0.00392000  0.29471200  0.13760600  1
  B  B4  1  0.03895300  0.06049800  0.68875300  1
  B  B5  1  0.71731500  0.11729900  0.53558500  1
  B  B6  1  0.78268500  0.88270100  0.03558500  1
  B  B7  1  0.96104700  0.56049800  0.81124700  1
  B  B8  1  0.08208300  0.84573900  0.85359100  1
  B  B9  1  0.53895300  0.43950200  0.31124700  1
  B  B10  1  0.28268500  0.61729900  0.96441500  1
  B  B11  1  0.58208300  0.65426100  0.14640900  1
  B  B12  1  0.91791700  0.34573900  0.64640900  1
  B  B13  1  0.41791700  0.15426100  0.35359100  1
  B  B14  1  0.46104700  0.93950200  0.18875300  1
  B  B15  1  0.21731500  0.38270100  0.46441500  1
  O  O16  1  0.21390000  0.22639600  0.42526300  1
  O  O17  1  0.71390000  0.27360400  0.57473700  1
  O  O18  1  0.36601100  0.49586400  0.39989900  1
  O  O19  1  0.57507400  0.05595200  0.43988200  1
  O  O20  1  0.68463400  0.54556600  0.24495100  1
  O  O21  1  0.92492600  0.94404800  0.93988200  1
  O  O22  1  0.06523800  0.22030800  0.71110600  1
  O  O23  1  0.31536600  0.04556600  0.25504900  1
  O  O24  1  0.86601100  0.00413600  0.60010100  1
  O  O25  1  0.13398900  0.50413600  0.89989900  1
  O  O26  1  0.07507400  0.44404800  0.56011800  1
  O  O27  1  0.42492600  0.55595200  0.06011800  1
  O  O28  1  0.18463400  0.95443400  0.75504900  1
  O  O29  1  0.93476200  0.72030800  0.78889400  1
  O  O30  1  0.43476200  0.77969200  0.21110600  1
  O  O31  1  0.63398900  0.99586400  0.10010100  1
  O  O32  1  0.56523800  0.27969200  0.28889400  1
  O  O33  1  0.81536600  0.45443400  0.74495100  1
  O  O34  1  0.78610000  0.72639600  0.07473700  1
  O  O35  1  0.28610000  0.77360400  0.92526300  1
