# generated using pymatgen
data_Tb3Si2S8I
_symmetry_space_group_name_H-M   'P 1'
_cell_length_a   8.77160406
_cell_length_b   8.77160406
_cell_length_c   10.69548107
_cell_angle_alpha   81.83968362
_cell_angle_beta   81.83968362
_cell_angle_gamma   51.95747271
_symmetry_Int_Tables_number   1
_chemical_formula_structural   Tb3Si2S8I
_chemical_formula_sum   'Tb6 Si4 S16 I2'
_cell_volume   639.96463337
_cell_formula_units_Z   2
loop_
 _symmetry_equiv_pos_site_id
 _symmetry_equiv_pos_as_xyz
  1  'x, y, z'
loop_
 _atom_site_type_symbol
 _atom_site_label
 _atom_site_symmetry_multiplicity
 _atom_site_fract_x
 _atom_site_fract_y
 _atom_site_fract_z
 _atom_site_occupancy
  Tb  Tb0  1  0.32782400  0.07554500  0.31910900  1
  Tb  Tb1  1  0.92445500  0.67217600  0.18089100  1
  Tb  Tb2  1  0.67217600  0.92445500  0.68089100  1
  Tb  Tb3  1  0.61168600  0.38831400  0.25000000  1
  Tb  Tb4  1  0.07554500  0.32782400  0.81910900  1
  Tb  Tb5  1  0.38831400  0.61168600  0.75000000  1
  Si  Si6  1  0.62027600  0.69632200  0.97454700  1
  Si  Si7  1  0.69632200  0.62027600  0.47454700  1
  Si  Si8  1  0.30367800  0.37972400  0.52545300  1
  Si  Si9  1  0.37972400  0.30367800  0.02545300  1
  S  S10  1  0.14928400  0.28505800  0.08717000  1
  S  S11  1  0.55016000  0.74476600  0.17046000  1
  S  S12  1  0.71494200  0.85071600  0.41283000  1
  S  S13  1  0.25523400  0.44984000  0.32954000  1
  S  S14  1  0.44984000  0.25523400  0.82954000  1
  S  S15  1  0.26928400  0.59531100  0.03488300  1
  S  S16  1  0.74476600  0.55016000  0.67046000  1
  S  S17  1  0.89502200  0.39179600  0.35410500  1
  S  S18  1  0.39179600  0.89502200  0.85410500  1
  S  S19  1  0.40468900  0.73071600  0.46511700  1
  S  S20  1  0.59531100  0.26928400  0.53488300  1
  S  S21  1  0.85071600  0.71494200  0.91283000  1
  S  S22  1  0.60820400  0.10497800  0.14589500  1
  S  S23  1  0.28505800  0.14928400  0.58717000  1
  S  S24  1  0.73071600  0.40468900  0.96511700  1
  S  S25  1  0.10497800  0.60820400  0.64589500  1
  I  I26  1  0.01781700  0.98218300  0.25000000  1
  I  I27  1  0.98218300  0.01781700  0.75000000  1
