# generated using pymatgen
data_SrZnNi(PO4)2
_symmetry_space_group_name_H-M   'P 1'
_cell_length_a   6.95239271
_cell_length_b   9.36338922
_cell_length_c   10.96346283
_cell_angle_alpha   101.76320896
_cell_angle_beta   98.15171735
_cell_angle_gamma   110.67820170
_symmetry_Int_Tables_number   1
_chemical_formula_structural   SrZnNi(PO4)2
_chemical_formula_sum   'Sr4 Zn4 Ni4 P8 O32'
_cell_volume   635.64261292
_cell_formula_units_Z   4
loop_
 _symmetry_equiv_pos_site_id
 _symmetry_equiv_pos_as_xyz
  1  'x, y, z'
loop_
 _atom_site_type_symbol
 _atom_site_label
 _atom_site_symmetry_multiplicity
 _atom_site_fract_x
 _atom_site_fract_y
 _atom_site_fract_z
 _atom_site_occupancy
  Sr  Sr0  1  0.79898000  0.05116500  0.12432900  1
  Sr  Sr1  1  0.79898000  0.05116500  0.62432900  1
  Sr  Sr2  1  0.20102000  0.94883500  0.37567100  1
  Sr  Sr3  1  0.20102000  0.94883500  0.87567100  1
  Zn  Zn4  1  0.38414100  0.64723300  0.49491000  1
  Zn  Zn5  1  0.38414100  0.64723300  0.99491000  1
  Zn  Zn6  1  0.61585900  0.35276700  0.00509000  1
  Zn  Zn7  1  0.61585900  0.35276700  0.50509000  1
  Ni  Ni8  1  0.85270600  0.56059300  0.81921500  1
  Ni  Ni9  1  0.14729400  0.43940700  0.68078500  1
  Ni  Ni10  1  0.85270600  0.56059300  0.31921500  1
  Ni  Ni11  1  0.14729400  0.43940700  0.18078500  1
  P  P12  1  0.42439000  0.23657800  0.19788800  1
  P  P13  1  0.42439000  0.23657800  0.69788800  1
  P  P14  1  0.57561000  0.76342200  0.30211200  1
  P  P15  1  0.57561000  0.76342200  0.80211200  1
  P  P16  1  0.02402600  0.30239300  0.42144500  1
  P  P17  1  0.02402600  0.30239300  0.92144500  1
  P  P18  1  0.97597400  0.69760700  0.07855500  1
  P  P19  1  0.97597400  0.69760700  0.57855500  1
  O  O20  1  0.55433100  0.89219200  0.40612600  1
  O  O21  1  0.55433100  0.89219200  0.90612600  1
  O  O22  1  0.44566900  0.10780800  0.09387400  1
  O  O23  1  0.44566900  0.10780800  0.59387400  1
  O  O24  1  0.47470600  0.20922800  0.33244100  1
  O  O25  1  0.47470600  0.20922800  0.83244100  1
  O  O26  1  0.52529400  0.79077200  0.16755900  1
  O  O27  1  0.52529400  0.79077200  0.66755900  1
  O  O28  1  0.79834200  0.76186600  0.32945300  1
  O  O29  1  0.79834200  0.76186600  0.82945300  1
  O  O30  1  0.20165800  0.23813400  0.17054700  1
  O  O31  1  0.20165800  0.23813400  0.67054700  1
  O  O32  1  0.11539900  0.69559900  0.47630100  1
  O  O33  1  0.11539900  0.69559900  0.97630100  1
  O  O34  1  0.88460100  0.30440100  0.02369900  1
  O  O35  1  0.88460100  0.30440100  0.52369900  1
  O  O36  1  0.74820300  0.57815100  0.49793200  1
  O  O37  1  0.74820300  0.57815100  0.99793200  1
  O  O38  1  0.25179700  0.42184900  0.00206800  1
  O  O39  1  0.25179700  0.42184900  0.50206800  1
  O  O40  1  0.99677900  0.86712300  0.13102800  1
  O  O41  1  0.99677900  0.86712300  0.63102800  1
  O  O42  1  0.00322100  0.13287700  0.36897200  1
  O  O43  1  0.00322100  0.13287700  0.86897200  1
  O  O44  1  0.59157100  0.39830100  0.18868800  1
  O  O45  1  0.59157100  0.39830100  0.68868800  1
  O  O46  1  0.40842900  0.60169900  0.31131200  1
  O  O47  1  0.40842900  0.60169900  0.81131200  1
  O  O48  1  0.95381600  0.36892100  0.31062200  1
  O  O49  1  0.95381600  0.36892100  0.81062200  1
  O  O50  1  0.04618400  0.63107900  0.18937800  1
  O  O51  1  0.04618400  0.63107900  0.68937800  1
