# generated using pymatgen
data_KMoIO6
_symmetry_space_group_name_H-M   'P 1'
_cell_length_a   7.49523800
_cell_length_b   8.00926700
_cell_length_c   19.77962700
_cell_angle_alpha   90.00000000
_cell_angle_beta   90.00000000
_cell_angle_gamma   90.00000000
_symmetry_Int_Tables_number   1
_chemical_formula_structural   KMoIO6
_chemical_formula_sum   'K8 Mo8 I8 O48'
_cell_volume   1187.39795599
_cell_formula_units_Z   8
loop_
 _symmetry_equiv_pos_site_id
 _symmetry_equiv_pos_as_xyz
  1  'x, y, z'
loop_
 _atom_site_type_symbol
 _atom_site_label
 _atom_site_symmetry_multiplicity
 _atom_site_fract_x
 _atom_site_fract_y
 _atom_site_fract_z
 _atom_site_occupancy
  K  K0  1  0.16516500  0.19012800  0.42906800  1
  K  K1  1  0.33483500  0.69012800  0.57093200  1
  K  K2  1  0.66516500  0.30987200  0.42906800  1
  K  K3  1  0.83483500  0.30987200  0.92906800  1
  K  K4  1  0.83483500  0.80987200  0.57093200  1
  K  K5  1  0.66516500  0.80987200  0.07093200  1
  K  K6  1  0.16516500  0.69012800  0.07093200  1
  K  K7  1  0.33483500  0.19012800  0.92906800  1
  Mo  Mo8  1  0.42082200  0.22017200  0.60700400  1
  Mo  Mo9  1  0.92082200  0.27982800  0.60700400  1
  Mo  Mo10  1  0.57917800  0.27982800  0.10700400  1
  Mo  Mo11  1  0.07917800  0.22017200  0.10700400  1
  Mo  Mo12  1  0.07917800  0.72017200  0.39299600  1
  Mo  Mo13  1  0.92082200  0.77982800  0.89299600  1
  Mo  Mo14  1  0.57917800  0.77982800  0.39299600  1
  Mo  Mo15  1  0.42082200  0.72017200  0.89299600  1
  I  I16  1  0.07692500  0.99482600  0.72372400  1
  I  I17  1  0.42307500  0.99482600  0.22372400  1
  I  I18  1  0.57692500  0.50517400  0.72372400  1
  I  I19  1  0.42307500  0.49482600  0.27627600  1
  I  I20  1  0.57692500  0.00517400  0.77627600  1
  I  I21  1  0.92307500  0.00517400  0.27627600  1
  I  I22  1  0.92307500  0.50517400  0.22372400  1
  I  I23  1  0.07692500  0.49482600  0.77627600  1
  O  O24  1  0.37273700  0.44178300  0.67512900  1
  O  O25  1  0.62726300  0.55821700  0.32487100  1
  O  O26  1  0.85856000  0.68353400  0.17376600  1
  O  O27  1  0.94319400  0.88114300  0.78743400  1
  O  O28  1  0.01323300  0.52426200  0.42210800  1
  O  O29  1  0.12726300  0.44178300  0.17512900  1
  O  O30  1  0.16974900  0.68611300  0.87409200  1
  O  O31  1  0.51323300  0.47573800  0.07789200  1
  O  O32  1  0.85856000  0.18353400  0.32623400  1
  O  O33  1  0.44319400  0.11885700  0.71256600  1
  O  O34  1  0.98676700  0.97573800  0.92210800  1
  O  O35  1  0.35856000  0.81646600  0.17376600  1
  O  O36  1  0.66974900  0.81388700  0.87409200  1
  O  O37  1  0.89276700  0.16521500  0.53181100  1
  O  O38  1  0.44319400  0.61885700  0.78743400  1
  O  O39  1  0.55680600  0.38114300  0.21256600  1
  O  O40  1  0.14144000  0.31646600  0.82623400  1
  O  O41  1  0.39276700  0.83478500  0.96818900  1
  O  O42  1  0.48676700  0.02426200  0.57789200  1
  O  O43  1  0.89276700  0.66521500  0.96818900  1
  O  O44  1  0.60723300  0.66521500  0.46818900  1
  O  O45  1  0.14144000  0.81646600  0.67376600  1
  O  O46  1  0.33025100  0.18611300  0.12590800  1
  O  O47  1  0.39276700  0.33478500  0.53181100  1
  O  O48  1  0.55680600  0.88114300  0.28743400  1
  O  O49  1  0.05680600  0.61885700  0.28743400  1
  O  O50  1  0.64144000  0.18353400  0.82623400  1
  O  O51  1  0.35856000  0.31646600  0.32623400  1
  O  O52  1  0.48676700  0.52426200  0.92210800  1
  O  O53  1  0.66974900  0.31388700  0.62590800  1
  O  O54  1  0.01323300  0.02426200  0.07789200  1
  O  O55  1  0.37273700  0.94178300  0.82487100  1
  O  O56  1  0.87273700  0.55821700  0.82487100  1
  O  O57  1  0.64144000  0.68353400  0.67376600  1
  O  O58  1  0.51323300  0.97573800  0.42210800  1
  O  O59  1  0.83025100  0.81388700  0.37409200  1
  O  O60  1  0.10723300  0.83478500  0.46818900  1
  O  O61  1  0.60723300  0.16521500  0.03181100  1
  O  O62  1  0.33025100  0.68611300  0.37409200  1
  O  O63  1  0.05680600  0.11885700  0.21256600  1
  O  O64  1  0.10723300  0.33478500  0.03181100  1
  O  O65  1  0.12726300  0.94178300  0.32487100  1
  O  O66  1  0.83025100  0.31388700  0.12590800  1
  O  O67  1  0.62726300  0.05821700  0.17512900  1
  O  O68  1  0.94319400  0.38114300  0.71256600  1
  O  O69  1  0.98676700  0.47573800  0.57789200  1
  O  O70  1  0.16974900  0.18611300  0.62590800  1
  O  O71  1  0.87273700  0.05821700  0.67512900  1
