# generated using pymatgen
data_BaNa2Ti2(Si2O7)2
_symmetry_space_group_name_H-M   'P 1'
_cell_length_a   9.69841000
_cell_length_b   9.69841000
_cell_length_c   9.69841000
_cell_angle_alpha   129.87326336
_cell_angle_beta   114.19154954
_cell_angle_gamma   87.08352732
_symmetry_Int_Tables_number   1
_chemical_formula_structural   BaNa2Ti2(Si2O7)2
_chemical_formula_sum   'Ba2 Na4 Ti4 Si8 O28'
_cell_volume   608.67975681
_cell_formula_units_Z   2
loop_
 _symmetry_equiv_pos_site_id
 _symmetry_equiv_pos_as_xyz
  1  'x, y, z'
loop_
 _atom_site_type_symbol
 _atom_site_label
 _atom_site_symmetry_multiplicity
 _atom_site_fract_x
 _atom_site_fract_y
 _atom_site_fract_z
 _atom_site_occupancy
  Ba  Ba0  1  0.00138900  0.72831300  0.22692400  1
  Ba  Ba1  1  0.99861100  0.22553400  0.72692400  1
  Na  Na2  1  0.00000000  0.97835000  0.97835000  1
  Na  Na3  1  0.59323100  0.81215100  0.71892100  1
  Na  Na4  1  0.40676900  0.12569000  0.21892100  1
  Na  Na5  1  0.50000000  0.97835000  0.47835000  1
  Ti  Ti6  1  0.21768200  0.17180300  0.45412200  1
  Ti  Ti7  1  0.78231800  0.23644000  0.95412200  1
  Ti  Ti8  1  0.78086100  0.73703800  0.45617700  1
  Ti  Ti9  1  0.21913900  0.67531600  0.95617700  1
  Si  Si10  1  0.61611800  0.43236200  0.75832200  1
  Si  Si11  1  0.82619800  0.53742200  0.65320900  1
  Si  Si12  1  0.17380200  0.82701100  0.71122400  1
  Si  Si13  1  0.17403900  0.43236200  0.31624400  1
  Si  Si14  1  0.61578800  0.82701100  0.15320900  1
  Si  Si15  1  0.38388200  0.14220400  0.81624400  1
  Si  Si16  1  0.38421200  0.53742200  0.21122400  1
  Si  Si17  1  0.82596100  0.14220400  0.25832200  1
  O  O18  1  0.18316900  0.26629800  0.31741700  1
  O  O19  1  0.21641300  0.46337900  0.74696600  1
  O  O20  1  0.44888200  0.26629800  0.58312900  1
  O  O21  1  0.55111800  0.13424800  0.81741700  1
  O  O22  1  0.18487000  0.83102800  0.88488600  1
  O  O23  1  0.81513000  0.70001700  0.64615900  1
  O  O24  1  0.66175000  0.48701200  0.64786300  1
  O  O25  1  0.79661700  0.04113400  0.74451800  1
  O  O26  1  0.82127100  0.34199200  0.44876600  1
  O  O27  1  0.01933000  0.87894700  0.62165200  1
  O  O28  1  0.60677400  0.62749500  0.94876600  1
  O  O29  1  0.98067000  0.60232200  0.85961700  1
  O  O30  1  0.24270500  0.60232200  0.12165200  1
  O  O31  1  0.44614200  0.83102800  0.14615900  1
  O  O32  1  0.24043800  0.09232700  0.61256100  1
  O  O33  1  0.97976700  0.09232700  0.35188900  1
  O  O34  1  0.66085100  0.98611300  0.14786300  1
  O  O35  1  0.17872900  0.62749500  0.52072100  1
  O  O36  1  0.39322600  0.34199200  0.02072100  1
  O  O37  1  0.02023300  0.37212200  0.11256100  1
  O  O38  1  0.81683100  0.13424800  0.08312900  1
  O  O39  1  0.78358700  0.53055400  0.24696600  1
  O  O40  1  0.75956200  0.37212200  0.85188900  1
  O  O41  1  0.75729500  0.87894700  0.35961700  1
  O  O42  1  0.55385800  0.70001700  0.38488600  1
  O  O43  1  0.33825000  0.98611300  0.82526200  1
  O  O44  1  0.33914900  0.48701200  0.32526200  1
  O  O45  1  0.20338300  0.94790100  0.24451800  1
