# generated using pymatgen
data_TiSi2C3N2Cl5
_symmetry_space_group_name_H-M   'P 1'
_cell_length_a   13.50043900
_cell_length_b   7.40446700
_cell_length_c   15.77874426
_cell_angle_alpha   68.60230286
_cell_angle_beta   90.00000000
_cell_angle_gamma   90.00000000
_symmetry_Int_Tables_number   1
_chemical_formula_structural   TiSi2C3N2Cl5
_chemical_formula_sum   'Ti4 Si8 C12 N8 Cl20'
_cell_volume   1468.57688292
_cell_formula_units_Z   4
loop_
 _symmetry_equiv_pos_site_id
 _symmetry_equiv_pos_as_xyz
  1  'x, y, z'
loop_
 _atom_site_type_symbol
 _atom_site_label
 _atom_site_symmetry_multiplicity
 _atom_site_fract_x
 _atom_site_fract_y
 _atom_site_fract_z
 _atom_site_occupancy
  Ti  Ti0  1  0.58878000  0.64116800  0.03339300  1
  Ti  Ti1  1  0.91122000  0.64116800  0.53339300  1
  Ti  Ti2  1  0.41122000  0.35883200  0.96660700  1
  Ti  Ti3  1  0.08878000  0.35883200  0.46660700  1
  Si  Si4  1  0.77978200  0.43623400  0.16713000  1
  Si  Si5  1  0.72021800  0.43623400  0.66713000  1
  Si  Si6  1  0.22021800  0.56376600  0.83287000  1
  Si  Si7  1  0.27978200  0.56376600  0.33287000  1
  Si  Si8  1  0.75484100  0.80282900  0.97655400  1
  Si  Si9  1  0.74515900  0.80282900  0.47655400  1
  Si  Si10  1  0.24515900  0.19717100  0.02344600  1
  Si  Si11  1  0.25484100  0.19717100  0.52344600  1
  C  C12  1  0.93840200  0.34810900  0.25311600  1
  C  C13  1  0.56159800  0.34810900  0.75311600  1
  C  C14  1  0.06159800  0.65189100  0.74688400  1
  C  C15  1  0.43840200  0.65189100  0.24688400  1
  C  C16  1  0.90679400  0.33469600  0.17228600  1
  C  C17  1  0.59320600  0.33469600  0.67228600  1
  C  C18  1  0.09320600  0.66530400  0.82771400  1
  C  C19  1  0.40679400  0.66530400  0.32771400  1
  C  C20  1  0.86829400  0.48815300  0.24659100  1
  C  C21  1  0.63170600  0.48815300  0.74659100  1
  C  C22  1  0.13170600  0.51184700  0.75340900  1
  C  C23  1  0.36829400  0.51184700  0.25340900  1
  N  N24  1  0.72917600  0.60772300  0.07607200  1
  N  N25  1  0.77082400  0.60772300  0.57607200  1
  N  N26  1  0.27082400  0.39227700  0.92392800  1
  N  N27  1  0.22917600  0.39227700  0.42392800  1
  N  N28  1  0.63111000  0.84653300  0.94657700  1
  N  N29  1  0.86889000  0.84653300  0.44657700  1
  N  N30  1  0.36889000  0.15346700  0.05342300  1
  N  N31  1  0.13111000  0.15346700  0.55342300  1
  Cl  Cl32  1  0.40812600  0.61867900  0.02517400  1
  Cl  Cl33  1  0.09187400  0.61867900  0.52517400  1
  Cl  Cl34  1  0.59187400  0.38132100  0.97482600  1
  Cl  Cl35  1  0.90812600  0.38132100  0.47482600  1
  Cl  Cl36  1  0.54248400  0.74484100  0.18124200  1
  Cl  Cl37  1  0.95751600  0.74484100  0.68124200  1
  Cl  Cl38  1  0.45751600  0.25515900  0.81875800  1
  Cl  Cl39  1  0.04248400  0.25515900  0.31875800  1
  Cl  Cl40  1  0.67230800  0.23690600  0.22843400  1
  Cl  Cl41  1  0.82769200  0.23690600  0.72843400  1
  Cl  Cl42  1  0.32769200  0.76309400  0.77156600  1
  Cl  Cl43  1  0.17230800  0.76309400  0.27156600  1
  Cl  Cl44  1  0.83264300  0.71893300  0.88582600  1
  Cl  Cl45  1  0.66735700  0.71893300  0.38582600  1
  Cl  Cl46  1  0.16735700  0.28106700  0.11417400  1
  Cl  Cl47  1  0.33264300  0.28106700  0.61417400  1
  Cl  Cl48  1  0.83165700  0.02054200  0.99748500  1
  Cl  Cl49  1  0.66834300  0.02054200  0.49748500  1
  Cl  Cl50  1  0.16834300  0.97945800  0.00251500  1
  Cl  Cl51  1  0.33165700  0.97945800  0.50251500  1
