# generated using pymatgen
data_WN2(OF4)2
_symmetry_space_group_name_H-M   'P 1'
_cell_length_a   6.00815100
_cell_length_b   10.77241500
_cell_length_c   12.98467600
_cell_angle_alpha   90.00000000
_cell_angle_beta   90.00000000
_cell_angle_gamma   90.00000000
_symmetry_Int_Tables_number   1
_chemical_formula_structural   WN2(OF4)2
_chemical_formula_sum   'W4 N8 O8 F32'
_cell_volume   840.39804295
_cell_formula_units_Z   4
loop_
 _symmetry_equiv_pos_site_id
 _symmetry_equiv_pos_as_xyz
  1  'x, y, z'
loop_
 _atom_site_type_symbol
 _atom_site_label
 _atom_site_symmetry_multiplicity
 _atom_site_fract_x
 _atom_site_fract_y
 _atom_site_fract_z
 _atom_site_occupancy
  W  W0  1  0.25000000  0.24808300  0.12294300  1
  W  W1  1  0.75000000  0.25191700  0.62294300  1
  W  W2  1  0.75000000  0.75191700  0.87705700  1
  W  W3  1  0.25000000  0.74808300  0.37705700  1
  N  N4  1  0.25000000  0.88209500  0.10146700  1
  N  N5  1  0.75000000  0.01318500  0.26887100  1
  N  N6  1  0.75000000  0.61790500  0.60146700  1
  N  N7  1  0.75000000  0.11790500  0.89853300  1
  N  N8  1  0.25000000  0.38209500  0.39853300  1
  N  N9  1  0.75000000  0.51318500  0.23112900  1
  N  N10  1  0.25000000  0.98681500  0.73112900  1
  N  N11  1  0.25000000  0.48681500  0.76887100  1
  O  O12  1  0.25000000  0.55887000  0.00591400  1
  O  O13  1  0.75000000  0.94113000  0.50591400  1
  O  O14  1  0.75000000  0.45373200  0.30073700  1
  O  O15  1  0.25000000  0.05887000  0.49408600  1
  O  O16  1  0.75000000  0.44113000  0.99408600  1
  O  O17  1  0.75000000  0.95373200  0.19926300  1
  O  O18  1  0.25000000  0.54626800  0.69926300  1
  O  O19  1  0.25000000  0.04626800  0.80073700  1
  F  F20  1  0.44607800  0.21690200  0.24009300  1
  F  F21  1  0.04033000  0.12800300  0.07222900  1
  F  F22  1  0.54033000  0.87199700  0.92777100  1
  F  F23  1  0.45967000  0.12800300  0.07222900  1
  F  F24  1  0.95967000  0.87199700  0.92777100  1
  F  F25  1  0.94607800  0.28309800  0.74009300  1
  F  F26  1  0.55392200  0.28309800  0.74009300  1
  F  F27  1  0.25000000  0.28996500  0.97890100  1
  F  F28  1  0.45774000  0.88713600  0.37800700  1
  F  F29  1  0.25000000  0.78996500  0.52109900  1
  F  F30  1  0.55392200  0.78309800  0.75990700  1
  F  F31  1  0.75000000  0.71003500  0.02109900  1
  F  F32  1  0.75000000  0.05155100  0.81027800  1
  F  F33  1  0.54226000  0.61286400  0.87800700  1
  F  F34  1  0.25000000  0.44844900  0.31027800  1
  F  F35  1  0.04226000  0.38713600  0.12199300  1
  F  F36  1  0.95774000  0.11286400  0.62199300  1
  F  F37  1  0.75000000  0.21003500  0.47890100  1
  F  F38  1  0.95774000  0.61286400  0.87800700  1
  F  F39  1  0.75000000  0.55155100  0.68972200  1
  F  F40  1  0.04033000  0.62800300  0.42777100  1
  F  F41  1  0.04226000  0.88713600  0.37800700  1
  F  F42  1  0.45967000  0.62800300  0.42777100  1
  F  F43  1  0.05392200  0.21690200  0.24009300  1
  F  F44  1  0.54226000  0.11286400  0.62199300  1
  F  F45  1  0.95967000  0.37199700  0.57222900  1
  F  F46  1  0.44607800  0.71690200  0.25990700  1
  F  F47  1  0.05392200  0.71690200  0.25990700  1
  F  F48  1  0.25000000  0.94844900  0.18972200  1
  F  F49  1  0.45774000  0.38713600  0.12199300  1
  F  F50  1  0.54033000  0.37199700  0.57222900  1
  F  F51  1  0.94607800  0.78309800  0.75990700  1
