# generated using pymatgen
data_Y4In20Ni11
_symmetry_space_group_name_H-M   'P 1'
_cell_length_a   11.50951143
_cell_length_b   11.50951143
_cell_length_c   16.66782312
_cell_angle_alpha   56.92124533
_cell_angle_beta   56.92124533
_cell_angle_gamma   21.74960879
_symmetry_Int_Tables_number   1
_chemical_formula_structural   Y4In20Ni11
_chemical_formula_sum   'Y4 In20 Ni11'
_cell_volume   680.16880584
_cell_formula_units_Z   1
loop_
 _symmetry_equiv_pos_site_id
 _symmetry_equiv_pos_as_xyz
  1  'x, y, z'
loop_
 _atom_site_type_symbol
 _atom_site_label
 _atom_site_symmetry_multiplicity
 _atom_site_fract_x
 _atom_site_fract_y
 _atom_site_fract_z
 _atom_site_occupancy
  Y  Y0  1  0.22836400  0.22836400  0.67358200  1
  Y  Y1  1  0.11761700  0.11761700  0.16834200  1
  Y  Y2  1  0.88238300  0.88238300  0.83165800  1
  Y  Y3  1  0.77163600  0.77163600  0.32641800  1
  In  In4  1  0.24519800  0.24519800  0.21023800  1
  In  In5  1  0.70223800  0.70223800  0.99802100  1
  In  In6  1  0.38744600  0.38744600  0.19079600  1
  In  In7  1  0.61255400  0.61255400  0.80920400  1
  In  In8  1  0.45850400  0.45850400  0.87710400  1
  In  In9  1  0.93551500  0.93551500  0.28985200  1
  In  In10  1  0.60005700  0.60005700  0.50919700  1
  In  In11  1  0.75480200  0.75480200  0.78976200  1
  In  In12  1  0.11343500  0.11343500  0.94912900  1
  In  In13  1  0.54149600  0.54149600  0.12289600  1
  In  In14  1  0.98816000  0.98816000  0.59588000  1
  In  In15  1  0.01184000  0.01184000  0.40412000  1
  In  In16  1  0.39994300  0.39994300  0.49080300  1
  In  In17  1  0.62798300  0.62798300  0.30271700  1
  In  In18  1  0.79651100  0.79651100  0.50323100  1
  In  In19  1  0.29776200  0.29776200  0.00197900  1
  In  In20  1  0.20348900  0.20348900  0.49676900  1
  In  In21  1  0.88656500  0.88656500  0.05087100  1
  In  In22  1  0.37201700  0.37201700  0.69728300  1
  In  In23  1  0.06448500  0.06448500  0.71014800  1
  Ni  Ni24  1  0.25162700  0.25162700  0.88323000  1
  Ni  Ni25  1  0.34576600  0.34576600  0.37886700  1
  Ni  Ni26  1  0.86227800  0.86227800  0.60411000  1
  Ni  Ni27  1  0.02146700  0.02146700  0.89939500  1
  Ni  Ni28  1  0.49244900  0.49244900  0.69443800  1
  Ni  Ni29  1  0.97853300  0.97853300  0.10060500  1
  Ni  Ni30  1  0.50000000  0.50000000  0.00000000  1
  Ni  Ni31  1  0.65423400  0.65423400  0.62113300  1
  Ni  Ni32  1  0.13772200  0.13772200  0.39589000  1
  Ni  Ni33  1  0.50755100  0.50755100  0.30556200  1
  Ni  Ni34  1  0.74837300  0.74837300  0.11677000  1
