# generated using pymatgen
data_Rb4Te8O23
_symmetry_space_group_name_H-M   'P 1'
_cell_length_a   7.42777500
_cell_length_b   14.92283600
_cell_length_c   20.29770300
_cell_angle_alpha   90.00000000
_cell_angle_beta   90.00000000
_cell_angle_gamma   90.00000000
_symmetry_Int_Tables_number   1
_chemical_formula_structural   Rb4Te8O23
_chemical_formula_sum   'Rb16 Te32 O92'
_cell_volume   2249.86779640
_cell_formula_units_Z   4
loop_
 _symmetry_equiv_pos_site_id
 _symmetry_equiv_pos_as_xyz
  1  'x, y, z'
loop_
 _atom_site_type_symbol
 _atom_site_label
 _atom_site_symmetry_multiplicity
 _atom_site_fract_x
 _atom_site_fract_y
 _atom_site_fract_z
 _atom_site_occupancy
  Rb  Rb0  1  0.12183700  0.25083200  0.07155500  1
  Rb  Rb1  1  0.62137600  0.50577200  0.31343500  1
  Rb  Rb2  1  0.62183700  0.75083200  0.42844500  1
  Rb  Rb3  1  0.12070300  0.50281100  0.17477100  1
  Rb  Rb4  1  0.12137600  0.49422800  0.68656500  1
  Rb  Rb5  1  0.12070300  0.99718900  0.67477100  1
  Rb  Rb6  1  0.12145900  0.75713400  0.06285000  1
  Rb  Rb7  1  0.62145900  0.24286600  0.93715000  1
  Rb  Rb8  1  0.62070300  0.00281100  0.32522900  1
  Rb  Rb9  1  0.12137600  0.00577200  0.18656500  1
  Rb  Rb10  1  0.12145900  0.74286600  0.56285000  1
  Rb  Rb11  1  0.62183700  0.74916800  0.92844500  1
  Rb  Rb12  1  0.62070300  0.49718900  0.82522900  1
  Rb  Rb13  1  0.12183700  0.24916800  0.57155500  1
  Rb  Rb14  1  0.62145900  0.25713400  0.43715000  1
  Rb  Rb15  1  0.62137600  0.99422800  0.81343500  1
  Te  Te16  1  0.86967600  0.00002300  0.49992100  1
  Te  Te17  1  0.62039900  0.38187900  0.12842100  1
  Te  Te18  1  0.62097400  0.12325600  0.13547300  1
  Te  Te19  1  0.62014500  0.62830500  0.12256600  1
  Te  Te20  1  0.12014500  0.12830500  0.37743400  1
  Te  Te21  1  0.62097400  0.37674400  0.63547300  1
  Te  Te22  1  0.12097400  0.62325600  0.36452700  1
  Te  Te23  1  0.62093100  0.87262000  0.10787900  1
  Te  Te24  1  0.87117400  0.00001700  0.00006400  1
  Te  Te25  1  0.12093100  0.37262000  0.39212100  1
  Te  Te26  1  0.36967600  0.50002300  0.00007900  1
  Te  Te27  1  0.37080500  0.76129600  0.24389800  1
  Te  Te28  1  0.12039900  0.61812100  0.87157900  1
  Te  Te29  1  0.37117400  0.50001700  0.49993600  1
  Te  Te30  1  0.87117400  0.49998300  0.50006400  1
  Te  Te31  1  0.87080500  0.23870400  0.75610200  1
  Te  Te32  1  0.12093100  0.12738000  0.89212100  1
  Te  Te33  1  0.12014500  0.37169500  0.87743400  1
  Te  Te34  1  0.37039800  0.26094000  0.25619300  1
  Te  Te35  1  0.12097400  0.87674400  0.86452700  1
  Te  Te36  1  0.37039800  0.23906000  0.75619300  1
  Te  Te37  1  0.37117400  0.99998300  0.99993600  1
  Te  Te38  1  0.12039900  0.88187900  0.37157900  1
  Te  Te39  1  0.87080500  0.26129600  0.25610200  1
  Te  Te40  1  0.87039800  0.76094000  0.24380700  1
  Te  Te41  1  0.87039800  0.73906000  0.74380700  1
  Te  Te42  1  0.62093100  0.62738000  0.60787900  1
  Te  Te43  1  0.86967600  0.49997700  0.99992100  1
  Te  Te44  1  0.36967600  0.99997700  0.50007900  1
  Te  Te45  1  0.62014500  0.87169500  0.62256600  1
  Te  Te46  1  0.62039900  0.11812100  0.62842100  1
  Te  Te47  1  0.37080500  0.73870400  0.74389800  1
  O  O48  1  0.12072700  0.72913700  0.21768000  1
  O  O49  1  0.93227600  0.15477100  0.31307500  1
  O  O50  1  0.62015200  0.74758700  0.08105800  1
  O  O51  1  0.36312100  0.67972400  0.31613500  1
  O  O52  1  0.80881400  0.84547200  0.68670600  1
  O  O53  1  0.80543000  0.13532600  0.70133000  1
  O  O54  1  0.12072700  0.77086300  0.71768000  1
  O  O55  1  0.30543000  0.86467400  0.29867000  1
  O  O56  1  0.42064100  0.04850700  0.08704500  1
  O  O57  1  0.36312100  0.82027600  0.81613500  1
  O  O58  1  0.12015200  0.25241300  0.91894200  1
  O  O59  1  0.92064100  0.54850700  0.41295500  1
  O  O60  1  0.93558300  0.63581700  0.79868800  1
  O  O61  1  0.31002600  0.39578000  0.94132700  1
  O  O62  1  0.61971400  0.50827500  0.16096200  1
  O  O63  1  0.30881400  0.15452800  0.31329400  1
  O  O64  1  0.88809000  0.42268900  0.07363700  1
  O  O65  1  0.11971400  0.49172500  0.83903800  1
  O  O66  1  0.35479500  0.16059400  0.83064400  1
  O  O67  1  0.12123900  0.52605300  0.53153600  1
  O  O68  1  0.81002600  0.89578000  0.55867300  1
  O  O69  1  0.81002600  0.60422000  0.05867300  1
  O  O70  1  0.82187300  0.45132100  0.58713800  1
  O  O71  1  0.62072700  0.22913700  0.28232000  1
  O  O72  1  0.12024200  0.77737300  0.91953400  1
  O  O73  1  0.35177800  0.42259500  0.07371900  1
  O  O74  1  0.93227600  0.34522900  0.81307500  1
  O  O75  1  0.62015200  0.75241300  0.58105800  1
  O  O76  1  0.62024200  0.27737300  0.58046600  1
  O  O77  1  0.32187300  0.54867900  0.41286200  1
  O  O78  1  0.37824500  0.17903400  0.18416600  1
  O  O79  1  0.30805100  0.38048100  0.46775300  1
  O  O80  1  0.80805100  0.88048100  0.03224700  1
  O  O81  1  0.43558300  0.13581700  0.70131200  1
  O  O82  1  0.38671100  0.83980800  0.16949200  1
  O  O83  1  0.80881400  0.65452800  0.18670600  1
  O  O84  1  0.88671100  0.16019200  0.83050800  1
  O  O85  1  0.43227600  0.65477100  0.18692500  1
  O  O86  1  0.62070600  0.70896600  0.76908300  1
  O  O87  1  0.30881400  0.34547200  0.81329400  1
  O  O88  1  0.30805100  0.11951900  0.96775300  1
  O  O89  1  0.88671100  0.33980800  0.33050800  1
  O  O90  1  0.92064100  0.95149300  0.91295500  1
  O  O91  1  0.92933900  0.10421100  0.44105200  1
  O  O92  1  0.82187300  0.04867900  0.08713800  1
  O  O93  1  0.61971400  0.99172500  0.66096200  1
  O  O94  1  0.62123900  0.47394700  0.46846400  1
  O  O95  1  0.42933900  0.60421100  0.05894800  1
  O  O96  1  0.42064100  0.45149300  0.58704500  1
  O  O97  1  0.37824500  0.32096600  0.68416600  1
  O  O98  1  0.62072700  0.27086300  0.78232000  1
  O  O99  1  0.11974100  0.95673600  0.51125500  1
  O  O100  1  0.62123900  0.02605300  0.96846400  1
  O  O101  1  0.85479500  0.66059400  0.66935600  1
  O  O102  1  0.80805100  0.61951900  0.53224700  1
  O  O103  1  0.61974100  0.45673600  0.98874500  1
  O  O104  1  0.38671100  0.66019200  0.66949200  1
  O  O105  1  0.11974100  0.54326400  0.01125500  1
  O  O106  1  0.43442200  0.88047900  0.03207100  1
  O  O107  1  0.80543000  0.36467400  0.20133000  1
  O  O108  1  0.85177800  0.57740500  0.92628100  1
  O  O109  1  0.87824500  0.82096600  0.81583400  1
  O  O110  1  0.93442200  0.11952100  0.96792900  1
  O  O111  1  0.11971400  0.00827500  0.33903800  1
  O  O112  1  0.35177800  0.07740500  0.57371900  1
  O  O113  1  0.93442200  0.38047900  0.46792900  1
  O  O114  1  0.88809000  0.07731100  0.57363700  1
  O  O115  1  0.42933900  0.89578900  0.55894800  1
  O  O116  1  0.86312100  0.17972400  0.18386500  1
  O  O117  1  0.31002600  0.10422000  0.44132700  1
  O  O118  1  0.38809000  0.92268900  0.42636300  1
  O  O119  1  0.43558300  0.36418300  0.20131200  1
  O  O120  1  0.35479500  0.33940600  0.33064400  1
  O  O121  1  0.12015200  0.24758700  0.41894200  1
  O  O122  1  0.86312100  0.32027600  0.68386500  1
  O  O123  1  0.61974100  0.04326400  0.48874500  1
  O  O124  1  0.85479500  0.83940600  0.16935600  1
  O  O125  1  0.62070600  0.79103400  0.26908300  1
  O  O126  1  0.12070600  0.29103400  0.23091700  1
  O  O127  1  0.62024200  0.22262700  0.08046600  1
  O  O128  1  0.85177800  0.92259500  0.42628100  1
  O  O129  1  0.12070600  0.20896600  0.73091700  1
  O  O130  1  0.38809000  0.57731100  0.92636300  1
  O  O131  1  0.92933900  0.39578900  0.94105200  1
  O  O132  1  0.12024200  0.72262700  0.41953400  1
  O  O133  1  0.32187300  0.95132100  0.91286200  1
  O  O134  1  0.43442200  0.61952100  0.53207100  1
  O  O135  1  0.12123900  0.97394700  0.03153600  1
  O  O136  1  0.30543000  0.63532600  0.79867000  1
  O  O137  1  0.87824500  0.67903400  0.31583400  1
  O  O138  1  0.93558300  0.86418300  0.29868800  1
  O  O139  1  0.43227600  0.84522900  0.68692500  1
