# generated using pymatgen
data_Sr(H8O5)2
_symmetry_space_group_name_H-M   'P 1'
_cell_length_a   6.29798400
_cell_length_b   6.35956002
_cell_length_c   7.01353221
_cell_angle_alpha   89.82861530
_cell_angle_beta   89.17738671
_cell_angle_gamma   89.20966192
_symmetry_Int_Tables_number   1
_chemical_formula_structural   Sr(H8O5)2
_chemical_formula_sum   'Sr1 H16 O10'
_cell_volume   280.85207909
_cell_formula_units_Z   1
loop_
 _symmetry_equiv_pos_site_id
 _symmetry_equiv_pos_as_xyz
  1  'x, y, z'
loop_
 _atom_site_type_symbol
 _atom_site_label
 _atom_site_symmetry_multiplicity
 _atom_site_fract_x
 _atom_site_fract_y
 _atom_site_fract_z
 _atom_site_occupancy
  Sr  Sr0  1  0.98983600  0.00177000  0.01120600  1
  H  H1  1  0.66799800  0.33533300  0.20085400  1
  H  H2  1  0.72272900  0.14682200  0.34512600  1
  H  H3  1  0.33685600  0.67801000  0.19018000  1
  H  H4  1  0.28901200  0.90119700  0.29166800  1
  H  H5  1  0.10234000  0.28899600  0.29299500  1
  H  H6  1  0.32600300  0.33181200  0.18528900  1
  H  H7  1  0.67915200  0.66050400  0.19616400  1
  H  H8  1  0.89923100  0.70455300  0.30001000  1
  H  H9  1  0.28085000  0.90303400  0.71276300  1
  H  H10  1  0.33234300  0.67920100  0.81211800  1
  H  H11  1  0.66245500  0.32054800  0.80894600  1
  H  H12  1  0.71227400  0.09218900  0.71311700  1
  H  H13  1  0.67769100  0.66558400  0.81111900  1
  H  H14  1  0.90160300  0.72523400  0.70980800  1
  H  H15  1  0.31996600  0.33154400  0.81242500  1
  H  H16  1  0.09973100  0.27985100  0.70758300  1
  O  O17  1  0.49940300  0.49575500  0.10731100  1
  O  O18  1  0.50111900  0.49675300  0.89342800  1
  O  O19  1  0.78797000  0.24451100  0.25595300  1
  O  O20  1  0.22087700  0.77716200  0.23943700  1
  O  O21  1  0.22742200  0.21805200  0.23640300  1
  O  O22  1  0.77437100  0.77388200  0.24558000  1
  O  O23  1  0.21512200  0.77692700  0.76599700  1
  O  O24  1  0.77859200  0.22175400  0.75675400  1
  O  O25  1  0.77023400  0.78548000  0.76441500  1
  O  O26  1  0.22482000  0.21531700  0.76641600  1
