# generated using pymatgen
data_K2V3P4O17
_symmetry_space_group_name_H-M   'P 1'
_cell_length_a   7.38296900
_cell_length_b   11.65079200
_cell_length_c   17.72623300
_cell_angle_alpha   90.00000000
_cell_angle_beta   90.00000000
_cell_angle_gamma   90.00000000
_symmetry_Int_Tables_number   1
_chemical_formula_structural   K2V3P4O17
_chemical_formula_sum   'K8 V12 P16 O68'
_cell_volume   1524.76511546
_cell_formula_units_Z   4
loop_
 _symmetry_equiv_pos_site_id
 _symmetry_equiv_pos_as_xyz
  1  'x, y, z'
loop_
 _atom_site_type_symbol
 _atom_site_label
 _atom_site_symmetry_multiplicity
 _atom_site_fract_x
 _atom_site_fract_y
 _atom_site_fract_z
 _atom_site_occupancy
  K  K0  1  0.25632000  0.04313100  0.64539600  1
  K  K1  1  0.25632000  0.45686900  0.14539600  1
  K  K2  1  0.73588800  0.36916300  0.32868100  1
  K  K3  1  0.23588800  0.86916300  0.17131900  1
  K  K4  1  0.75632000  0.95686900  0.35460400  1
  K  K5  1  0.75632000  0.54313100  0.85460400  1
  K  K6  1  0.23588800  0.63083700  0.67131900  1
  K  K7  1  0.73588800  0.13083700  0.82868100  1
  V  V8  1  0.24326900  0.16147000  0.31099300  1
  V  V9  1  0.73810500  0.16128500  0.60173500  1
  V  V10  1  0.74326900  0.66147000  0.18900700  1
  V  V11  1  0.23810500  0.83871500  0.39826500  1
  V  V12  1  0.74326900  0.83853000  0.68900700  1
  V  V13  1  0.96545000  0.99811400  0.99924300  1
  V  V14  1  0.23810500  0.66128500  0.89826500  1
  V  V15  1  0.24326900  0.33853000  0.81099300  1
  V  V16  1  0.73810500  0.33871500  0.10173500  1
  V  V17  1  0.46545000  0.00188600  0.00075700  1
  V  V18  1  0.46545000  0.49811400  0.50075700  1
  V  V19  1  0.96545000  0.50188600  0.49924300  1
  P  P20  1  0.43719900  0.20968200  0.47407600  1
  P  P21  1  0.54202600  0.11095400  0.17408300  1
  P  P22  1  0.54202600  0.38904600  0.67408300  1
  P  P23  1  0.53185400  0.71186400  0.03007000  1
  P  P24  1  0.44446500  0.88834000  0.82908500  1
  P  P25  1  0.53185400  0.78813600  0.53007000  1
  P  P26  1  0.94446500  0.38834000  0.67091500  1
  P  P27  1  0.04202600  0.88904600  0.82591700  1
  P  P28  1  0.43719900  0.29031800  0.97407600  1
  P  P29  1  0.94446500  0.11166000  0.17091500  1
  P  P30  1  0.03185400  0.28813600  0.96993000  1
  P  P31  1  0.93719900  0.70968200  0.02592400  1
  P  P32  1  0.93719900  0.79031800  0.52592400  1
  P  P33  1  0.44446500  0.61166000  0.32908500  1
  P  P34  1  0.03185400  0.21186400  0.46993000  1
  P  P35  1  0.04202600  0.61095400  0.32591700  1
  O  O36  1  0.96685600  0.53294400  0.38718900  1
  O  O37  1  0.46685600  0.46705600  0.61281100  1
  O  O38  1  0.73231700  0.70812500  0.99145400  1
  O  O39  1  0.46322200  0.83463400  0.03103100  1
  O  O40  1  0.04304600  0.62916400  0.97370100  1
  O  O41  1  0.74436100  0.06696500  0.19497200  1
  O  O42  1  0.41505400  0.86689300  0.48084200  1
  O  O43  1  0.42730300  0.76244300  0.85328700  1
  O  O44  1  0.91505400  0.13310700  0.51915800  1
  O  O45  1  0.51427600  0.96764800  0.89090100  1
  O  O46  1  0.24436100  0.93303500  0.80502800  1
  O  O47  1  0.51186400  0.33150500  0.47564800  1
  O  O48  1  0.96685600  0.96705600  0.88718900  1
  O  O49  1  0.54304600  0.12916400  0.52629900  1
  O  O50  1  0.23231700  0.20812500  0.50854600  1
  O  O51  1  0.55296500  0.59316800  0.25732600  1
  O  O52  1  0.74002300  0.04606700  0.65536300  1
  O  O53  1  0.44159900  0.40816500  0.74783600  1
  O  O54  1  0.24002300  0.54606700  0.84463700  1
  O  O55  1  0.94159900  0.59183500  0.25216400  1
  O  O56  1  0.74002300  0.45393300  0.15536300  1
  O  O57  1  0.74703500  0.79384400  0.21988400  1
  O  O58  1  0.54543200  0.66266200  0.11013800  1
  O  O59  1  0.23732100  0.00821200  0.99092700  1
  O  O60  1  0.01186400  0.83150500  0.02435200  1
  O  O61  1  0.96322200  0.33463400  0.46896900  1
  O  O62  1  0.55607100  0.26252500  0.65080500  1
  O  O63  1  0.05607100  0.76252500  0.84919500  1
  O  O64  1  0.96322200  0.16536600  0.96896900  1
  O  O65  1  0.73732100  0.50821200  0.50907300  1
  O  O66  1  0.05296500  0.40683200  0.74267400  1
  O  O67  1  0.54543200  0.83733800  0.61013800  1
  O  O68  1  0.04304600  0.87083600  0.47370100  1
  O  O69  1  0.24703500  0.20615600  0.78011600  1
  O  O70  1  0.04543200  0.16266200  0.38986200  1
  O  O71  1  0.01427600  0.46764800  0.60909900  1
  O  O72  1  0.43135000  0.16197900  0.39361500  1
  O  O73  1  0.74703500  0.70615600  0.71988400  1
  O  O74  1  0.24436100  0.56696500  0.30502800  1
  O  O75  1  0.04543200  0.33733800  0.88986200  1
  O  O76  1  0.55607100  0.23747500  0.15080500  1
  O  O77  1  0.46685600  0.03294400  0.11281100  1
  O  O78  1  0.01186400  0.66849500  0.52435200  1
  O  O79  1  0.42730300  0.73755700  0.35328700  1
  O  O80  1  0.93135000  0.83802100  0.60638500  1
  O  O81  1  0.05296500  0.09316800  0.24267400  1
  O  O82  1  0.54304600  0.37083600  0.02629900  1
  O  O83  1  0.46322200  0.66536600  0.53103100  1
  O  O84  1  0.74436100  0.43303500  0.69497200  1
  O  O85  1  0.44159900  0.09183500  0.24783600  1
  O  O86  1  0.43135000  0.33802100  0.89361500  1
  O  O87  1  0.55296500  0.90683200  0.75732600  1
  O  O88  1  0.92730300  0.26244300  0.64671300  1
  O  O89  1  0.91505400  0.36689300  0.01915800  1
  O  O90  1  0.94159900  0.90816500  0.75216400  1
  O  O91  1  0.23231700  0.29187500  0.00854600  1
  O  O92  1  0.23732100  0.49178800  0.49092700  1
  O  O93  1  0.24703500  0.29384400  0.28011600  1
  O  O94  1  0.51427600  0.53235200  0.39090100  1
  O  O95  1  0.73732100  0.99178800  0.00907300  1
  O  O96  1  0.51186400  0.16849500  0.97564800  1
  O  O97  1  0.24002300  0.95393300  0.34463700  1
  O  O98  1  0.73231700  0.79187500  0.49145400  1
  O  O99  1  0.05607100  0.73747500  0.34919500  1
  O  O100  1  0.92730300  0.23755700  0.14671300  1
  O  O101  1  0.93135000  0.66197900  0.10638500  1
  O  O102  1  0.41505400  0.63310700  0.98084200  1
  O  O103  1  0.01427600  0.03235200  0.10909900  1
