# generated using pymatgen
data_Na(CO)3
_symmetry_space_group_name_H-M   'P 1'
_cell_length_a   9.33842240
_cell_length_b   8.28394244
_cell_length_c   7.12390633
_cell_angle_alpha   74.18440946
_cell_angle_beta   58.59442499
_cell_angle_gamma   47.22116555
_symmetry_Int_Tables_number   1
_chemical_formula_structural   Na(CO)3
_chemical_formula_sum   'Na4 C12 O12'
_cell_volume   342.31218122
_cell_formula_units_Z   4
loop_
 _symmetry_equiv_pos_site_id
 _symmetry_equiv_pos_as_xyz
  1  'x, y, z'
loop_
 _atom_site_type_symbol
 _atom_site_label
 _atom_site_symmetry_multiplicity
 _atom_site_fract_x
 _atom_site_fract_y
 _atom_site_fract_z
 _atom_site_occupancy
  Na  Na0  1  0.14840500  0.85159500  0.14840500  1
  Na  Na1  1  0.39840500  0.10159500  0.39840500  1
  Na  Na2  1  0.10159500  0.39840500  0.10159500  1
  Na  Na3  1  0.85159500  0.14840500  0.85159500  1
  C  C4  1  0.85207600  0.85207600  0.64792400  1
  C  C5  1  0.86563600  0.53298000  0.64935000  1
  C  C6  1  0.71702000  0.38436400  0.29796600  1
  C  C7  1  0.64935000  0.95203400  0.86563600  1
  C  C8  1  0.53298000  0.86563600  0.95203400  1
  C  C9  1  0.60207600  0.60207600  0.39792400  1
  C  C10  1  0.60065000  0.29796600  0.38436400  1
  C  C11  1  0.29796600  0.60065000  0.71702000  1
  C  C12  1  0.38436400  0.71702000  0.60065000  1
  C  C13  1  0.39792400  0.39792400  0.60207600  1
  C  C14  1  0.95203400  0.64935000  0.53298000  1
  C  C15  1  0.64792400  0.64792400  0.85207600  1
  O  O16  1  0.34291600  0.97173500  0.11716500  1
  O  O17  1  0.68881600  0.68881600  0.31118400  1
  O  O18  1  0.97173500  0.34291600  0.56818400  1
  O  O19  1  0.27826500  0.90708400  0.68181600  1
  O  O20  1  0.56118400  0.56118400  0.93881600  1
  O  O21  1  0.90708400  0.27826500  0.13283500  1
  O  O22  1  0.56818400  0.11716500  0.97173500  1
  O  O23  1  0.31118400  0.31118400  0.68881600  1
  O  O24  1  0.11716500  0.56818400  0.34291600  1
  O  O25  1  0.68181600  0.13283500  0.27826500  1
  O  O26  1  0.13283500  0.68181600  0.90708400  1
  O  O27  1  0.93881600  0.93881600  0.56118400  1
